MODEL 1
REMARK VINA RESULT:     -10.5      0.000      0.000
REMARK  Name = 
REMARK  5 active torsions:
REMARK  status: ('A' for Active; 'I' for Inactive)
REMARK    1  A    between atoms: O_2  and  C_3
REMARK    2  A    between atoms: C_3  and  C_5
REMARK    3  A    between atoms: N_10  and  C_11
REMARK    4  A    between atoms: C_11  and  C_12
REMARK    5  A    between atoms: C_15  and  C_18
REMARK                            x       y       z     vdW  Elec       q    Type
REMARK                         _______ _______ _______ _____ _____    ______ ____
ROOT
ATOM      5  C   UNL     1      -4.487   1.803  24.520  0.00  0.00    +0.164 C 
ATOM      6  C   UNL     1      -4.124   2.431  24.130  0.00  0.00    +0.075 C 
ATOM      7  C   UNL     1      -3.437   2.304  23.690  0.00  0.00    +0.078 A 
ATOM      8  C   UNL     1      -3.114   1.546  23.641  0.00  0.00    +0.090 A 
ATOM      9  C   UNL     1      -3.478   0.916  24.031  0.00  0.00    +0.121 C 
ATOM     10  N   UNL     1      -4.165   1.045  24.471  0.00  0.00    -0.256 NA
ATOM     21  N   UNL     1      -2.439   1.586  23.170  0.00  0.00    -0.226 NA
ATOM     22  C   UNL     1      -2.343   2.369  22.929  0.00  0.00    +0.198 A 
ATOM     23  N   UNL     1      -2.960   2.812  23.250  0.00  0.00    -0.227 NA
ENDROOT
BRANCH   5   3
ATOM      3  C   UNL     1      -5.173   1.931  24.959  0.00  0.00    +0.332 C 
ATOM      4  O   UNL     1      -5.909   1.742  24.638  0.00  0.00    -0.249 OA
BRANCH   3   2
ATOM      1  C   UNL     1      -5.777   2.628  26.050  0.00  0.00    +0.256 C 
ATOM      2  O   UNL     1      -5.124   2.247  25.719  0.00  0.00    -0.443 OA
ENDBRANCH   3   2
ENDBRANCH   5   3
BRANCH  10  11
ATOM     11  C   UNL     1      -4.528   0.415  24.860  0.00  0.00    +0.100 C 
BRANCH  11  12
ATOM     12  C   UNL     1      -4.192  -0.338  24.831  0.00  0.00    -0.006 A 
ATOM     13  C   UNL     1      -4.364  -0.842  24.202  0.00  0.00    -0.003 A 
ATOM     14  C   UNL     1      -4.028  -1.595  24.173  0.00  0.00    +0.006 A 
ATOM     15  C   UNL     1      -3.520  -1.844  24.773  0.00  0.00    +0.080 A 
ATOM     16  C   UNL     1      -3.348  -1.338  25.404  0.00  0.00    +0.006 A 
ATOM     17  C   UNL     1      -3.684  -0.586  25.433  0.00  0.00    -0.003 A 
BRANCH  15  18
ATOM     18  C   UNL     1      -3.184  -2.597  24.744  0.00  0.00    +0.388 C 
ATOM     19  O   UNL     1      -3.574  -3.235  25.089  0.00  0.00    -0.241 OA
ATOM     20  O   UNL     1      -2.457  -2.709  24.370  0.00  0.00    -0.241 OA
ENDBRANCH  15  18
ENDBRANCH  11  12
ENDBRANCH  10  11
TORSDOF 5
ENDMDL
MODEL 2
REMARK VINA RESULT:     -10.0      1.271      1.451
REMARK  Name = 
REMARK  5 active torsions:
REMARK  status: ('A' for Active; 'I' for Inactive)
REMARK    1  A    between atoms: O_2  and  C_3
REMARK    2  A    between atoms: C_3  and  C_5
REMARK    3  A    between atoms: N_10  and  C_11
REMARK    4  A    between atoms: C_11  and  C_12
REMARK    5  A    between atoms: C_15  and  C_18
REMARK                            x       y       z     vdW  Elec       q    Type
REMARK                         _______ _______ _______ _____ _____    ______ ____
ROOT
ATOM      5  C   UNL     1      -3.276   2.173  24.709  0.00  0.00    +0.164 C 
ATOM      6  C   UNL     1      -2.596   2.637  24.670  0.00  0.00    +0.075 C 
ATOM      7  C   UNL     1      -1.853   2.280  24.649  0.00  0.00    +0.078 A 
ATOM      8  C   UNL     1      -1.790   1.458  24.668  0.00  0.00    +0.090 A 
ATOM      9  C   UNL     1      -2.471   0.993  24.708  0.00  0.00    +0.121 C 
ATOM     10  N   UNL     1      -3.214   1.351  24.728  0.00  0.00    -0.256 NA
ATOM     21  N   UNL     1      -0.989   1.262  24.642  0.00  0.00    -0.226 NA
ATOM     22  C   UNL     1      -0.557   1.964  24.606  0.00  0.00    +0.198 A 
ATOM     23  N   UNL     1      -1.091   2.592  24.610  0.00  0.00    -0.227 NA
ENDROOT
BRANCH   5   3
ATOM      3  C   UNL     1      -4.019   2.530  24.729  0.00  0.00    +0.332 C 
ATOM      4  O   UNL     1      -4.461   2.602  24.036  0.00  0.00    -0.249 OA
BRANCH   3   2
ATOM      1  C   UNL     1      -4.944   3.357  25.438  0.00  0.00    +0.256 C 
ATOM      2  O   UNL     1      -4.321   2.816  25.442  0.00  0.00    -0.443 OA
ENDBRANCH   3   2
ENDBRANCH   5   3
BRANCH  10  11
ATOM     11  C   UNL     1      -3.894   0.885  24.768  0.00  0.00    +0.100 C 
BRANCH  11  12
ATOM     12  C   UNL     1      -3.834   0.063  24.737  0.00  0.00    -0.006 A 
ATOM     13  C   UNL     1      -3.741  -0.369  25.433  0.00  0.00    -0.003 A 
ATOM     14  C   UNL     1      -3.682  -1.192  25.402  0.00  0.00    +0.006 A 
ATOM     15  C   UNL     1      -3.714  -1.581  24.676  0.00  0.00    +0.080 A 
ATOM     16  C   UNL     1      -3.807  -1.148  23.979  0.00  0.00    +0.006 A 
ATOM     17  C   UNL     1      -3.867  -0.325  24.010  0.00  0.00    -0.003 A 
BRANCH  15  18
ATOM     18  C   UNL     1      -3.655  -2.404  24.645  0.00  0.00    +0.388 C 
ATOM     19  O   UNL     1      -3.483  -2.830  25.329  0.00  0.00    -0.241 OA
ATOM     20  O   UNL     1      -3.767  -2.798  23.929  0.00  0.00    -0.241 OA
ENDBRANCH  15  18
ENDBRANCH  11  12
ENDBRANCH  10  11
TORSDOF 5
ENDMDL
MODEL 3
REMARK VINA RESULT:     -10.0      1.309      2.263
REMARK  Name = 
REMARK  5 active torsions:
REMARK  status: ('A' for Active; 'I' for Inactive)
REMARK    1  A    between atoms: O_2  and  C_3
REMARK    2  A    between atoms: C_3  and  C_5
REMARK    3  A    between atoms: N_10  and  C_11
REMARK    4  A    between atoms: C_11  and  C_12
REMARK    5  A    between atoms: C_15  and  C_18
REMARK                            x       y       z     vdW  Elec       q    Type
REMARK                         _______ _______ _______ _____ _____    ______ ____
ROOT
ATOM      5  C   UNL     1      -3.656   2.064  24.395  0.00  0.00    +0.164 C 
ATOM      6  C   UNL     1      -4.138   2.617  24.771  0.00  0.00    +0.075 C 
ATOM      7  C   UNL     1      -4.824   2.371  25.158  0.00  0.00    +0.078 A 
ATOM      8  C   UNL     1      -5.027   1.572  25.170  0.00  0.00    +0.090 A 
ATOM      9  C   UNL     1      -4.544   1.018  24.794  0.00  0.00    +0.121 C 
ATOM     10  N   UNL     1      -3.859   1.264  24.407  0.00  0.00    -0.256 NA
ATOM     21  N   UNL     1      -5.730   1.493  25.593  0.00  0.00    -0.226 NA
ATOM     22  C   UNL     1      -5.963   2.244  25.842  0.00  0.00    +0.198 A 
ATOM     23  N   UNL     1      -5.403   2.786  25.574  0.00  0.00    -0.227 NA
ENDROOT
BRANCH   5   3
ATOM      3  C   UNL     1      -2.971   2.310  24.008  0.00  0.00    +0.332 C 
ATOM      4  O   UNL     1      -2.967   2.387  23.186  0.00  0.00    -0.249 OA
BRANCH   3   2
ATOM      1  C   UNL     1      -1.686   2.928  24.101  0.00  0.00    +0.256 C 
ATOM      2  O   UNL     1      -2.289   2.479  24.441  0.00  0.00    -0.443 OA
ENDBRANCH   3   2
ENDBRANCH   5   3
BRANCH  10  11
ATOM     11  C   UNL     1      -3.377   0.711  24.031  0.00  0.00    +0.100 C 
BRANCH  11  12
ATOM     12  C   UNL     1      -3.444  -0.090  24.218  0.00  0.00    -0.006 A 
ATOM     13  C   UNL     1      -3.965  -0.569  23.794  0.00  0.00    -0.003 A 
ATOM     14  C   UNL     1      -4.033  -1.370  23.981  0.00  0.00    +0.006 A 
ATOM     15  C   UNL     1      -3.580  -1.692  24.591  0.00  0.00    +0.080 A 
ATOM     16  C   UNL     1      -3.059  -1.212  25.015  0.00  0.00    +0.006 A 
ATOM     17  C   UNL     1      -2.991  -0.411  24.828  0.00  0.00    -0.003 A 
BRANCH  15  18
ATOM     18  C   UNL     1      -3.648  -2.493  24.777  0.00  0.00    +0.388 C 
ATOM     19  O   UNL     1      -3.535  -2.746  25.554  0.00  0.00    -0.241 OA
ATOM     20  O   UNL     1      -3.828  -3.039  24.186  0.00  0.00    -0.241 OA
ENDBRANCH  15  18
ENDBRANCH  11  12
ENDBRANCH  10  11
TORSDOF 5
ENDMDL
MODEL 4
REMARK VINA RESULT:      -9.0      2.118      4.140
REMARK  Name = 
REMARK  5 active torsions:
REMARK  status: ('A' for Active; 'I' for Inactive)
REMARK    1  A    between atoms: O_2  and  C_3
REMARK    2  A    between atoms: C_3  and  C_5
REMARK    3  A    between atoms: N_10  and  C_11
REMARK    4  A    between atoms: C_11  and  C_12
REMARK    5  A    between atoms: C_15  and  C_18
REMARK                            x       y       z     vdW  Elec       q    Type
REMARK                         _______ _______ _______ _____ _____    ______ ____
ROOT
ATOM      5  C   UNL     1      -4.715   1.500  25.068  0.00  0.00    +0.164 C 
ATOM      6  C   UNL     1      -4.642   0.684  24.977  0.00  0.00    +0.075 C 
ATOM      7  C   UNL     1      -3.907   0.351  24.802  0.00  0.00    +0.078 A 
ATOM      8  C   UNL     1      -3.245   0.837  24.719  0.00  0.00    +0.090 A 
ATOM      9  C   UNL     1      -3.318   1.654  24.810  0.00  0.00    +0.121 C 
ATOM     10  N   UNL     1      -4.053   1.985  24.985  0.00  0.00    -0.256 NA
ATOM     21  N   UNL     1      -2.597   0.356  24.547  0.00  0.00    -0.226 NA
ATOM     22  C   UNL     1      -2.858  -0.425  24.524  0.00  0.00    +0.198 A 
ATOM     23  N   UNL     1      -3.668  -0.428  24.682  0.00  0.00    -0.227 NA
ENDROOT
BRANCH   5   3
ATOM      3  C   UNL     1      -5.449   1.831  25.242  0.00  0.00    +0.332 C 
ATOM      4  O   UNL     1      -5.916   2.141  24.637  0.00  0.00    -0.249 OA
BRANCH   3   2
ATOM      1  C   UNL     1      -6.525   1.926  26.178  0.00  0.00    +0.256 C 
ATOM      2  O   UNL     1      -5.718   1.854  26.022  0.00  0.00    -0.443 OA
ENDBRANCH   3   2
ENDBRANCH   5   3
BRANCH  10  11
ATOM     11  C   UNL     1      -4.125   2.801  25.076  0.00  0.00    +0.100 C 
BRANCH  11  12
ATOM     12  C   UNL     1      -3.450   3.275  25.102  0.00  0.00    -0.006 A 
ATOM     13  C   UNL     1      -3.129   3.574  24.404  0.00  0.00    -0.003 A 
ATOM     14  C   UNL     1      -2.454   4.048  24.431  0.00  0.00    +0.006 A 
ATOM     15  C   UNL     1      -2.101   4.223  25.155  0.00  0.00    +0.080 A 
ATOM     16  C   UNL     1      -2.422   3.924  25.854  0.00  0.00    +0.006 A 
ATOM     17  C   UNL     1      -3.097   3.450  25.828  0.00  0.00    -0.003 A 
BRANCH  15  18
ATOM     18  C   UNL     1      -1.426   4.697  25.181  0.00  0.00    +0.388 C 
ATOM     19  O   UNL     1      -0.678   4.352  25.147  0.00  0.00    -0.241 OA
ATOM     20  O   UNL     1      -1.500   5.517  25.242  0.00  0.00    -0.241 OA
ENDBRANCH  15  18
ENDBRANCH  11  12
ENDBRANCH  10  11
TORSDOF 5
ENDMDL
MODEL 5
REMARK VINA RESULT:      -8.9      2.365      3.644
REMARK  Name = 
REMARK  5 active torsions:
REMARK  status: ('A' for Active; 'I' for Inactive)
REMARK    1  A    between atoms: O_2  and  C_3
REMARK    2  A    between atoms: C_3  and  C_5
REMARK    3  A    between atoms: N_10  and  C_11
REMARK    4  A    between atoms: C_11  and  C_12
REMARK    5  A    between atoms: C_15  and  C_18
REMARK                            x       y       z     vdW  Elec       q    Type
REMARK                         _______ _______ _______ _____ _____    ______ ____
ROOT
ATOM      5  C   UNL     1      -3.973   0.191  24.740  0.00  0.00    +0.164 C 
ATOM      6  C   UNL     1      -4.700   0.565  24.843  0.00  0.00    +0.075 C 
ATOM      7  C   UNL     1      -4.737   1.387  24.905  0.00  0.00    +0.078 A 
ATOM      8  C   UNL     1      -4.046   1.835  24.864  0.00  0.00    +0.090 A 
ATOM      9  C   UNL     1      -3.317   1.460  24.761  0.00  0.00    +0.121 C 
ATOM     10  N   UNL     1      -3.281   0.639  24.699  0.00  0.00    -0.256 NA
ATOM     21  N   UNL     1      -4.251   2.629  24.942  0.00  0.00    -0.226 NA
ATOM     22  C   UNL     1      -5.070   2.673  25.031  0.00  0.00    +0.198 A 
ATOM     23  N   UNL     1      -5.370   1.905  25.008  0.00  0.00    -0.227 NA
ENDROOT
BRANCH   5   3
ATOM      3  C   UNL     1      -3.936  -0.630  24.678  0.00  0.00    +0.332 C 
ATOM      4  O   UNL     1      -3.792  -1.089  25.348  0.00  0.00    -0.249 OA
BRANCH   3   2
ATOM      1  C   UNL     1      -4.225  -1.799  23.908  0.00  0.00    +0.256 C 
ATOM      2  O   UNL     1      -4.044  -0.995  23.945  0.00  0.00    -0.443 OA
ENDBRANCH   3   2
ENDBRANCH   5   3
BRANCH  10  11
ATOM     11  C   UNL     1      -2.553   0.265  24.596  0.00  0.00    +0.100 C 
BRANCH  11  12
ATOM     12  C   UNL     1      -1.853   0.694  24.682  0.00  0.00    -0.006 A 
ATOM     13  C   UNL     1      -1.511   1.059  24.027  0.00  0.00    -0.003 A 
ATOM     14  C   UNL     1      -0.811   1.487  24.114  0.00  0.00    +0.006 A 
ATOM     15  C   UNL     1      -0.454   1.550  24.854  0.00  0.00    +0.080 A 
ATOM     16  C   UNL     1      -0.797   1.184  25.510  0.00  0.00    +0.006 A 
ATOM     17  C   UNL     1      -1.497   0.756  25.424  0.00  0.00    -0.003 A 
BRANCH  15  18
ATOM     18  C   UNL     1       0.246   1.979  24.941  0.00  0.00    +0.388 C 
ATOM     19  O   UNL     1       0.792   2.005  24.323  0.00  0.00    -0.241 OA
ATOM     20  O   UNL     1       0.399   2.381  25.645  0.00  0.00    -0.241 OA
ENDBRANCH  15  18
ENDBRANCH  11  12
ENDBRANCH  10  11
TORSDOF 5
ENDMDL
MODEL 6
REMARK VINA RESULT:      -8.9      2.366      4.579
REMARK  Name = 
REMARK  5 active torsions:
REMARK  status: ('A' for Active; 'I' for Inactive)
REMARK    1  A    between atoms: O_2  and  C_3
REMARK    2  A    between atoms: C_3  and  C_5
REMARK    3  A    between atoms: N_10  and  C_11
REMARK    4  A    between atoms: C_11  and  C_12
REMARK    5  A    between atoms: C_15  and  C_18
REMARK                            x       y       z     vdW  Elec       q    Type
REMARK                         _______ _______ _______ _____ _____    ______ ____
ROOT
ATOM      5  C   UNL     1      -3.397   0.809  24.869  0.00  0.00    +0.164 C 
ATOM      6  C   UNL     1      -4.209   0.669  24.873  0.00  0.00    +0.075 C 
ATOM      7  C   UNL     1      -4.738   1.301  24.918  0.00  0.00    +0.078 A 
ATOM      8  C   UNL     1      -4.453   2.074  24.959  0.00  0.00    +0.090 A 
ATOM      9  C   UNL     1      -3.639   2.215  24.954  0.00  0.00    +0.121 C 
ATOM     10  N   UNL     1      -3.112   1.582  24.909  0.00  0.00    -0.256 NA
ATOM     21  N   UNL     1      -5.100   2.583  24.998  0.00  0.00    -0.226 NA
ATOM     22  C   UNL     1      -5.786   2.125  24.982  0.00  0.00    +0.198 A 
ATOM     23  N   UNL     1      -5.561   1.333  24.933  0.00  0.00    -0.227 NA
ENDROOT
BRANCH   5   3
ATOM      3  C   UNL     1      -2.869   0.177  24.824  0.00  0.00    +0.332 C 
ATOM      4  O   UNL     1      -2.539  -0.033  24.098  0.00  0.00    -0.249 OA
BRANCH   3   2
ATOM      1  C   UNL     1      -2.342  -0.998  25.440  0.00  0.00    +0.256 C 
ATOM      2  O   UNL     1      -2.672  -0.245  25.505  0.00  0.00    -0.443 OA
ENDBRANCH   3   2
ENDBRANCH   5   3
BRANCH  10  11
ATOM     11  C   UNL     1      -2.299   1.724  24.905  0.00  0.00    +0.100 C 
BRANCH  11  12
ATOM     12  C   UNL     1      -2.014   2.497  24.942  0.00  0.00    -0.006 A 
ATOM     13  C   UNL     1      -1.907   2.862  25.674  0.00  0.00    -0.003 A 
ATOM     14  C   UNL     1      -1.622   3.635  25.711  0.00  0.00    +0.006 A 
ATOM     15  C   UNL     1      -1.444   4.043  25.017  0.00  0.00    +0.080 A 
ATOM     16  C   UNL     1      -1.551   3.678  24.285  0.00  0.00    +0.006 A 
ATOM     17  C   UNL     1      -1.836   2.905  24.247  0.00  0.00    -0.003 A 
BRANCH  15  18
ATOM     18  C   UNL     1      -1.159   4.817  25.055  0.00  0.00    +0.388 C 
ATOM     19  O   UNL     1      -1.630   5.415  25.371  0.00  0.00    -0.241 OA
ATOM     20  O   UNL     1      -0.402   4.991  24.775  0.00  0.00    -0.241 OA
ENDBRANCH  15  18
ENDBRANCH  11  12
ENDBRANCH  10  11
TORSDOF 5
ENDMDL
MODEL 7
REMARK VINA RESULT:      -8.8      1.697      4.020
REMARK  Name = 
REMARK  5 active torsions:
REMARK  status: ('A' for Active; 'I' for Inactive)
REMARK    1  A    between atoms: O_2  and  C_3
REMARK    2  A    between atoms: C_3  and  C_5
REMARK    3  A    between atoms: N_10  and  C_11
REMARK    4  A    between atoms: C_11  and  C_12
REMARK    5  A    between atoms: C_15  and  C_18
REMARK                            x       y       z     vdW  Elec       q    Type
REMARK                         _______ _______ _______ _____ _____    ______ ____
ROOT
ATOM      5  C   UNL     1      -2.937  -0.843  24.541  0.00  0.00    +0.164 C 
ATOM      6  C   UNL     1      -2.182  -1.158  24.642  0.00  0.00    +0.075 C 
ATOM      7  C   UNL     1      -1.525  -0.659  24.656  0.00  0.00    +0.078 A 
ATOM      8  C   UNL     1      -1.623   0.155  24.568  0.00  0.00    +0.090 A 
ATOM      9  C   UNL     1      -2.379   0.471  24.467  0.00  0.00    +0.121 C 
ATOM     10  N   UNL     1      -3.036  -0.029  24.453  0.00  0.00    -0.256 NA
ATOM     21  N   UNL     1      -0.879   0.507  24.604  0.00  0.00    -0.226 NA
ATOM     22  C   UNL     1      -0.320  -0.089  24.714  0.00  0.00    +0.198 A 
ATOM     23  N   UNL     1      -0.719  -0.809  24.746  0.00  0.00    -0.227 NA
ENDROOT
BRANCH   5   3
ATOM      3  C   UNL     1      -3.594  -1.341  24.527  0.00  0.00    +0.332 C 
ATOM      4  O   UNL     1      -4.002  -1.504  25.225  0.00  0.00    -0.249 OA
BRANCH   3   2
ATOM      1  C   UNL     1      -4.287  -2.372  23.822  0.00  0.00    +0.256 C 
ATOM      2  O   UNL     1      -3.843  -1.677  23.816  0.00  0.00    -0.443 OA
ENDBRANCH   3   2
ENDBRANCH   5   3
BRANCH  10  11
ATOM     11  C   UNL     1      -3.791   0.287  24.352  0.00  0.00    +0.100 C 
BRANCH  11  12
ATOM     12  C   UNL     1      -3.913   1.099  24.433  0.00  0.00    -0.006 A 
ATOM     13  C   UNL     1      -3.793   1.601  23.791  0.00  0.00    -0.003 A 
ATOM     14  C   UNL     1      -3.915   2.413  23.872  0.00  0.00    +0.006 A 
ATOM     15  C   UNL     1      -4.158   2.723  24.597  0.00  0.00    +0.080 A 
ATOM     16  C   UNL     1      -4.279   2.220  25.240  0.00  0.00    +0.006 A 
ATOM     17  C   UNL     1      -4.157   1.408  25.159  0.00  0.00    -0.003 A 
BRANCH  15  18
ATOM     18  C   UNL     1      -4.281   3.535  24.678  0.00  0.00    +0.388 C 
ATOM     19  O   UNL     1      -4.861   3.814  25.192  0.00  0.00    -0.241 OA
ATOM     20  O   UNL     1      -3.822   4.066  24.245  0.00  0.00    -0.241 OA
ENDBRANCH  15  18
ENDBRANCH  11  12
ENDBRANCH  10  11
TORSDOF 5
ENDMDL
MODEL 8
REMARK VINA RESULT:      -8.7      2.091      3.962
REMARK  Name = 
REMARK  5 active torsions:
REMARK  status: ('A' for Active; 'I' for Inactive)
REMARK    1  A    between atoms: O_2  and  C_3
REMARK    2  A    between atoms: C_3  and  C_5
REMARK    3  A    between atoms: N_10  and  C_11
REMARK    4  A    between atoms: C_11  and  C_12
REMARK    5  A    between atoms: C_15  and  C_18
REMARK                            x       y       z     vdW  Elec       q    Type
REMARK                         _______ _______ _______ _____ _____    ______ ____
ROOT
ATOM      5  C   UNL     1      -1.352   0.546  24.896  0.00  0.00    +0.164 C 
ATOM      6  C   UNL     1      -0.676   0.864  25.244  0.00  0.00    +0.075 C 
ATOM      7  C   UNL     1      -0.677   1.644  25.512  0.00  0.00    +0.078 A 
ATOM      8  C   UNL     1      -1.355   2.107  25.431  0.00  0.00    +0.090 A 
ATOM      9  C   UNL     1      -2.033   1.789  25.083  0.00  0.00    +0.121 C 
ATOM     10  N   UNL     1      -2.031   1.009  24.815  0.00  0.00    -0.256 NA
ATOM     21  N   UNL     1      -1.194   2.852  25.745  0.00  0.00    -0.226 NA
ATOM     22  C   UNL     1      -0.417   2.851  26.019  0.00  0.00    +0.198 A 
ATOM     23  N   UNL     1      -0.097   2.105  25.875  0.00  0.00    -0.227 NA
ENDROOT
BRANCH   5   3
ATOM      3  C   UNL     1      -1.351  -0.233  24.628  0.00  0.00    +0.332 C 
ATOM      4  O   UNL     1      -1.254  -0.393  23.825  0.00  0.00    -0.249 OA
BRANCH   3   2
ATOM      1  C   UNL     1      -1.182  -1.611  24.968  0.00  0.00    +0.256 C 
ATOM      2  O   UNL     1      -1.447  -0.854  25.163  0.00  0.00    -0.443 OA
ENDBRANCH   3   2
ENDBRANCH   5   3
BRANCH  10  11
ATOM     11  C   UNL     1      -2.708   0.691  24.467  0.00  0.00    +0.100 C 
BRANCH  11  12
ATOM     12  C   UNL     1      -3.441   1.052  24.585  0.00  0.00    -0.006 A 
ATOM     13  C   UNL     1      -3.933   0.795  25.195  0.00  0.00    -0.003 A 
ATOM     14  C   UNL     1      -4.666   1.155  25.313  0.00  0.00    +0.006 A 
ATOM     15  C   UNL     1      -4.906   1.773  24.821  0.00  0.00    +0.080 A 
ATOM     16  C   UNL     1      -4.413   2.030  24.211  0.00  0.00    +0.006 A 
ATOM     17  C   UNL     1      -3.680   1.669  24.093  0.00  0.00    -0.003 A 
BRANCH  15  18
ATOM     18  C   UNL     1      -5.639   2.133  24.940  0.00  0.00    +0.388 C 
ATOM     19  O   UNL     1      -6.330   1.743  24.718  0.00  0.00    -0.241 OA
ATOM     20  O   UNL     1      -5.679   2.884  25.280  0.00  0.00    -0.241 OA
ENDBRANCH  15  18
ENDBRANCH  11  12
ENDBRANCH  10  11
TORSDOF 5
ENDMDL
MODEL 9
REMARK VINA RESULT:      -8.7      1.994      4.350
REMARK  Name = 
REMARK  5 active torsions:
REMARK  status: ('A' for Active; 'I' for Inactive)
REMARK    1  A    between atoms: O_2  and  C_3
REMARK    2  A    between atoms: C_3  and  C_5
REMARK    3  A    between atoms: N_10  and  C_11
REMARK    4  A    between atoms: C_11  and  C_12
REMARK    5  A    between atoms: C_15  and  C_18
REMARK                            x       y       z     vdW  Elec       q    Type
REMARK                         _______ _______ _______ _____ _____    ______ ____
ROOT
ATOM      5  C   UNL     1      -1.911   0.665  24.427  0.00  0.00    +0.164 C 
ATOM      6  C   UNL     1      -1.786  -0.125  24.625  0.00  0.00    +0.075 C 
ATOM      7  C   UNL     1      -2.399  -0.573  24.948  0.00  0.00    +0.078 A 
ATOM      8  C   UNL     1      -3.138  -0.229  25.073  0.00  0.00    +0.090 A 
ATOM      9  C   UNL     1      -3.264   0.563  24.876  0.00  0.00    +0.121 C 
ATOM     10  N   UNL     1      -2.650   1.009  24.553  0.00  0.00    -0.256 NA
ATOM     21  N   UNL     1      -3.634  -0.802  25.398  0.00  0.00    -0.226 NA
ATOM     22  C   UNL     1      -3.202  -1.500  25.473  0.00  0.00    +0.198 A 
ATOM     23  N   UNL     1      -2.439  -1.358  25.195  0.00  0.00    -0.227 NA
ENDROOT
BRANCH   5   3
ATOM      3  C   UNL     1      -1.298   1.112  24.105  0.00  0.00    +0.332 C 
ATOM      4  O   UNL     1      -1.293   1.283  23.298  0.00  0.00    -0.249 OA
BRANCH   3   2
ATOM      1  C   UNL     1       0.029   1.619  24.254  0.00  0.00    +0.256 C 
ATOM      2  O   UNL     1      -0.689   1.388  24.588  0.00  0.00    -0.443 OA
ENDBRANCH   3   2
ENDBRANCH   5   3
BRANCH  10  11
ATOM     11  C   UNL     1      -2.776   1.800  24.356  0.00  0.00    +0.100 C 
BRANCH  11  12
ATOM     12  C   UNL     1      -3.426   2.204  24.664  0.00  0.00    -0.006 A 
ATOM     13  C   UNL     1      -4.155   2.167  24.280  0.00  0.00    -0.003 A 
ATOM     14  C   UNL     1      -4.804   2.571  24.589  0.00  0.00    +0.006 A 
ATOM     15  C   UNL     1      -4.725   3.013  25.281  0.00  0.00    +0.080 A 
ATOM     16  C   UNL     1      -3.995   3.049  25.666  0.00  0.00    +0.006 A 
ATOM     17  C   UNL     1      -3.346   2.645  25.357  0.00  0.00    -0.003 A 
BRANCH  15  18
ATOM     18  C   UNL     1      -5.375   3.417  25.590  0.00  0.00    +0.388 C 
ATOM     19  O   UNL     1      -5.878   3.041  26.124  0.00  0.00    -0.241 OA
ATOM     20  O   UNL     1      -5.520   4.197  25.364  0.00  0.00    -0.241 OA
ENDBRANCH  15  18
ENDBRANCH  11  12
ENDBRANCH  10  11
TORSDOF 5
ENDMDL
