MODEL 1
REMARK VINA RESULT:      -8.6      0.000      0.000
REMARK  Name = 
REMARK  5 active torsions:
REMARK  status: ('A' for Active; 'I' for Inactive)
REMARK    1  A    between atoms: O_2  and  C_3
REMARK    2  A    between atoms: C_5  and  C_6
REMARK    3  A    between atoms: C_6  and  N_7
REMARK    4  A    between atoms: C_18  and  O_19
REMARK    5  A    between atoms: C_21  and  O_22
REMARK                            x       y       z     vdW  Elec       q    Type
REMARK                         _______ _______ _______ _____ _____    ______ ____
ROOT
ATOM      3  C   UNL     1      -1.782   0.096  24.544  0.00  0.00    +0.175 A 
ATOM      4  C   UNL     1      -2.390   0.547  24.216  0.00  0.00    +0.037 A 
ATOM      5  C   UNL     1      -3.165   0.265  24.228  0.00  0.00    +0.000 A 
ATOM     17  C   UNL     1      -3.332  -0.468  24.569  0.00  0.00    +0.037 A 
ATOM     18  C   UNL     1      -2.723  -0.919  24.896  0.00  0.00    +0.175 A 
ATOM     21  C   UNL     1      -1.948  -0.636  24.884  0.00  0.00    +0.206 A 
ENDROOT
BRANCH   3   2
ATOM      1  C   UNL     1      -0.739   0.823  23.889  0.00  0.00    +0.253 C 
ATOM      2  O   UNL     1      -1.006   0.379  24.531  0.00  0.00    -0.468 OA
ENDBRANCH   3   2
BRANCH  18  19
ATOM     19  O   UNL     1      -2.889  -1.652  25.237  0.00  0.00    -0.468 OA
ATOM     20  C   UNL     1      -3.470  -2.137  24.909  0.00  0.00    +0.253 C 
ENDBRANCH  18  19
BRANCH  21  22
ATOM     22  O   UNL     1      -1.339  -1.087  25.212  0.00  0.00    -0.465 OA
ATOM     23  C   UNL     1      -1.107  -0.960  25.994  0.00  0.00    +0.253 C 
ENDBRANCH  21  22
BRANCH   5   6
ATOM      6  C   UNL     1      -3.773   0.715  23.901  0.00  0.00    +0.099 C 
BRANCH   6   7
ATOM      7  N   UNL     1      -4.161   1.281  24.360  0.00  0.00    -0.266 NA
ATOM      8  C   UNL     1      -4.774   1.055  24.863  0.00  0.00    +0.094 C 
ATOM      9  C   UNL     1      -5.161   1.620  25.321  0.00  0.00    +0.112 C 
ATOM     10  N   UNL     1      -4.936   2.413  25.277  0.00  0.00    -0.260 N 
ATOM     11  C   UNL     1      -4.324   2.639  24.773  0.00  0.00    +0.115 C 
ATOM     12  C   UNL     1      -4.223   3.455  24.844  0.00  0.00    +0.138 C 
ATOM     13  N   UNL     1      -4.774   3.732  25.392  0.00  0.00    -0.187 NA
ATOM     14  C   UNL     1      -5.214   3.088  25.658  0.00  0.00    +0.323 C 
ATOM     15  O   UNL     1      -5.826   3.115  26.212  0.00  0.00    -0.251 OA
ATOM     16  C   UNL     1      -3.936   2.073  24.314  0.00  0.00    +0.094 C 
ENDBRANCH   6   7
ENDBRANCH   5   6
TORSDOF 5
ENDMDL
MODEL 2
REMARK VINA RESULT:      -8.5      1.800      3.958
REMARK  Name = 
REMARK  5 active torsions:
REMARK  status: ('A' for Active; 'I' for Inactive)
REMARK    1  A    between atoms: O_2  and  C_3
REMARK    2  A    between atoms: C_5  and  C_6
REMARK    3  A    between atoms: C_6  and  N_7
REMARK    4  A    between atoms: C_18  and  O_19
REMARK    5  A    between atoms: C_21  and  O_22
REMARK                            x       y       z     vdW  Elec       q    Type
REMARK                         _______ _______ _______ _____ _____    ______ ____
ROOT
ATOM      3  C   UNL     1      -3.063   2.127  23.928  0.00  0.00    +0.175 A 
ATOM      4  C   UNL     1      -3.556   1.466  23.914  0.00  0.00    +0.037 A 
ATOM      5  C   UNL     1      -4.170   1.397  24.460  0.00  0.00    +0.000 A 
ATOM     17  C   UNL     1      -4.292   1.990  25.021  0.00  0.00    +0.037 A 
ATOM     18  C   UNL     1      -3.799   2.652  25.035  0.00  0.00    +0.175 A 
ATOM     21  C   UNL     1      -3.184   2.720  24.488  0.00  0.00    +0.206 A 
ENDROOT
BRANCH   3   2
ATOM      1  C   UNL     1      -2.558   1.945  22.603  0.00  0.00    +0.253 C 
ATOM      2  O   UNL     1      -2.448   2.196  23.382  0.00  0.00    -0.468 OA
ENDBRANCH   3   2
BRANCH  18  19
ATOM     19  O   UNL     1      -3.921   3.245  25.595  0.00  0.00    -0.468 OA
ATOM     20  C   UNL     1      -4.686   3.435  25.837  0.00  0.00    +0.253 C 
ENDBRANCH  18  19
BRANCH  21  22
ATOM     22  O   UNL     1      -2.692   3.382  24.502  0.00  0.00    -0.465 OA
ATOM     23  C   UNL     1      -2.017   3.383  24.977  0.00  0.00    +0.253 C 
ENDBRANCH  21  22
BRANCH   5   6
ATOM      6  C   UNL     1      -4.663   0.736  24.446  0.00  0.00    +0.099 C 
BRANCH   6   7
ATOM      7  N   UNL     1      -4.361  -0.008  24.637  0.00  0.00    -0.266 NA
ATOM      8  C   UNL     1      -4.049  -0.147  25.388  0.00  0.00    +0.094 C 
ATOM      9  C   UNL     1      -3.747  -0.890  25.578  0.00  0.00    +0.112 C 
ATOM     10  N   UNL     1      -3.757  -1.496  25.018  0.00  0.00    -0.260 N 
ATOM     11  C   UNL     1      -4.068  -1.357  24.267  0.00  0.00    +0.115 C 
ATOM     12  C   UNL     1      -4.005  -2.055  23.832  0.00  0.00    +0.138 C 
ATOM     13  N   UNL     1      -3.653  -2.625  24.314  0.00  0.00    -0.187 NA
ATOM     14  C   UNL     1      -3.501  -2.279  25.047  0.00  0.00    +0.323 C 
ATOM     15  O   UNL     1      -3.152  -2.651  25.695  0.00  0.00    -0.251 OA
ATOM     16  C   UNL     1      -4.371  -0.613  24.076  0.00  0.00    +0.094 C 
ENDBRANCH   6   7
ENDBRANCH   5   6
TORSDOF 5
ENDMDL
MODEL 3
REMARK VINA RESULT:      -8.4      1.799      4.057
REMARK  Name = 
REMARK  5 active torsions:
REMARK  status: ('A' for Active; 'I' for Inactive)
REMARK    1  A    between atoms: O_2  and  C_3
REMARK    2  A    between atoms: C_5  and  C_6
REMARK    3  A    between atoms: C_6  and  N_7
REMARK    4  A    between atoms: C_18  and  O_19
REMARK    5  A    between atoms: C_21  and  O_22
REMARK                            x       y       z     vdW  Elec       q    Type
REMARK                         _______ _______ _______ _____ _____    ______ ____
ROOT
ATOM      3  C   UNL     1      -3.843   2.650  25.028  0.00  0.00    +0.175 A 
ATOM      4  C   UNL     1      -4.326   1.981  25.015  0.00  0.00    +0.037 A 
ATOM      5  C   UNL     1      -4.194   1.389  24.456  0.00  0.00    +0.000 A 
ATOM     17  C   UNL     1      -3.580   1.465  23.910  0.00  0.00    +0.037 A 
ATOM     18  C   UNL     1      -3.097   2.134  23.924  0.00  0.00    +0.175 A 
ATOM     21  C   UNL     1      -3.228   2.727  24.483  0.00  0.00    +0.206 A 
ENDROOT
BRANCH   3   2
ATOM      1  C   UNL     1      -4.744   3.432  25.815  0.00  0.00    +0.253 C 
ATOM      2  O   UNL     1      -3.974   3.243  25.587  0.00  0.00    -0.468 OA
ENDBRANCH   3   2
BRANCH  18  19
ATOM     19  O   UNL     1      -2.483   2.210  23.379  0.00  0.00    -0.468 OA
ATOM     20  C   UNL     1      -2.580   1.938  22.606  0.00  0.00    +0.253 C 
ENDBRANCH  18  19
BRANCH  21  22
ATOM     22  O   UNL     1      -2.745   3.395  24.496  0.00  0.00    -0.465 OA
ATOM     23  C   UNL     1      -2.074   3.409  24.976  0.00  0.00    +0.253 C 
ENDBRANCH  21  22
BRANCH   5   6
ATOM      6  C   UNL     1      -4.677   0.720  24.443  0.00  0.00    +0.099 C 
BRANCH   6   7
ATOM      7  N   UNL     1      -4.365  -0.019  24.638  0.00  0.00    -0.266 NA
ATOM      8  C   UNL     1      -4.047  -0.147  25.388  0.00  0.00    +0.094 C 
ATOM      9  C   UNL     1      -3.736  -0.885  25.583  0.00  0.00    +0.112 C 
ATOM     10  N   UNL     1      -3.741  -1.495  25.028  0.00  0.00    -0.260 N 
ATOM     11  C   UNL     1      -4.059  -1.367  24.278  0.00  0.00    +0.115 C 
ATOM     12  C   UNL     1      -3.989  -2.067  23.848  0.00  0.00    +0.138 C 
ATOM     13  N   UNL     1      -3.628  -2.629  24.332  0.00  0.00    -0.187 NA
ATOM     14  C   UNL     1      -3.475  -2.275  25.061  0.00  0.00    +0.323 C 
ATOM     15  O   UNL     1      -3.118  -2.638  25.711  0.00  0.00    -0.251 OA
ATOM     16  C   UNL     1      -4.371  -0.628  24.082  0.00  0.00    +0.094 C 
ENDBRANCH   6   7
ENDBRANCH   5   6
TORSDOF 5
ENDMDL
MODEL 4
REMARK VINA RESULT:      -8.3      1.857      2.621
REMARK  Name = 
REMARK  5 active torsions:
REMARK  status: ('A' for Active; 'I' for Inactive)
REMARK    1  A    between atoms: O_2  and  C_3
REMARK    2  A    between atoms: C_5  and  C_6
REMARK    3  A    between atoms: C_6  and  N_7
REMARK    4  A    between atoms: C_18  and  O_19
REMARK    5  A    between atoms: C_21  and  O_22
REMARK                            x       y       z     vdW  Elec       q    Type
REMARK                         _______ _______ _______ _____ _____    ______ ____
ROOT
ATOM      3  C   UNL     1      -1.030   3.242  25.075  0.00  0.00    +0.175 A 
ATOM      4  C   UNL     1      -1.752   3.250  24.676  0.00  0.00    +0.037 A 
ATOM      5  C   UNL     1      -2.071   2.546  24.387  0.00  0.00    +0.000 A 
ATOM     17  C   UNL     1      -1.669   1.834  24.497  0.00  0.00    +0.037 A 
ATOM     18  C   UNL     1      -0.947   1.826  24.897  0.00  0.00    +0.175 A 
ATOM     21  C   UNL     1      -0.627   2.530  25.186  0.00  0.00    +0.206 A 
ENDROOT
BRANCH   3   2
ATOM      1  C   UNL     1      -0.883   4.661  24.991  0.00  0.00    +0.253 C 
ATOM      2  O   UNL     1      -0.710   3.946  25.364  0.00  0.00    -0.468 OA
ENDBRANCH   3   2
BRANCH  18  19
ATOM     19  O   UNL     1      -0.544   1.115  25.007  0.00  0.00    -0.468 OA
ATOM     20  C   UNL     1      -0.544   0.543  24.412  0.00  0.00    +0.253 C 
ENDBRANCH  18  19
BRANCH  21  22
ATOM     22  O   UNL     1       0.094   2.522  25.585  0.00  0.00    -0.465 OA
ATOM     23  C   UNL     1       0.110   2.446  26.407  0.00  0.00    +0.253 C 
ENDBRANCH  21  22
BRANCH   5   6
ATOM      6  C   UNL     1      -2.793   2.554  23.988  0.00  0.00    +0.099 C 
BRANCH   6   7
ATOM      7  N   UNL     1      -3.498   2.466  24.408  0.00  0.00    -0.266 NA
ATOM      8  C   UNL     1      -3.820   1.714  24.521  0.00  0.00    +0.094 C 
ATOM      9  C   UNL     1      -4.524   1.626  24.940  0.00  0.00    +0.112 C 
ATOM     10  N   UNL     1      -4.908   2.288  25.247  0.00  0.00    -0.260 N 
ATOM     11  C   UNL     1      -4.587   3.040  25.134  0.00  0.00    +0.115 C 
ATOM     12  C   UNL     1      -5.084   3.587  25.498  0.00  0.00    +0.138 C 
ATOM     13  N   UNL     1      -5.713   3.174  25.836  0.00  0.00    -0.187 NA
ATOM     14  C   UNL     1      -5.604   2.372  25.681  0.00  0.00    +0.323 C 
ATOM     15  O   UNL     1      -6.104   1.759  25.918  0.00  0.00    -0.251 OA
ATOM     16  C   UNL     1      -3.881   3.129  24.714  0.00  0.00    +0.094 C 
ENDBRANCH   6   7
ENDBRANCH   5   6
TORSDOF 5
ENDMDL
MODEL 5
REMARK VINA RESULT:      -8.0      1.482      4.201
REMARK  Name = 
REMARK  5 active torsions:
REMARK  status: ('A' for Active; 'I' for Inactive)
REMARK    1  A    between atoms: O_2  and  C_3
REMARK    2  A    between atoms: C_5  and  C_6
REMARK    3  A    between atoms: C_6  and  N_7
REMARK    4  A    between atoms: C_18  and  O_19
REMARK    5  A    between atoms: C_21  and  O_22
REMARK                            x       y       z     vdW  Elec       q    Type
REMARK                         _______ _______ _______ _____ _____    ______ ____
ROOT
ATOM      3  C   UNL     1      -3.709   3.209  25.024  0.00  0.00    +0.175 A 
ATOM      4  C   UNL     1      -3.317   2.706  24.499  0.00  0.00    +0.037 A 
ATOM      5  C   UNL     1      -3.678   2.008  24.252  0.00  0.00    +0.000 A 
ATOM     17  C   UNL     1      -4.430   1.810  24.528  0.00  0.00    +0.037 A 
ATOM     18  C   UNL     1      -4.821   2.313  25.052  0.00  0.00    +0.175 A 
ATOM     21  C   UNL     1      -4.460   3.012  25.301  0.00  0.00    +0.206 A 
ENDROOT
BRANCH   3   2
ATOM      1  C   UNL     1      -2.525   3.953  25.323  0.00  0.00    +0.253 C 
ATOM      2  O   UNL     1      -3.348   3.908  25.273  0.00  0.00    -0.468 OA
ENDBRANCH   3   2
BRANCH  18  19
ATOM     19  O   UNL     1      -5.573   2.116  25.329  0.00  0.00    -0.468 OA
ATOM     20  C   UNL     1      -5.989   1.492  24.987  0.00  0.00    +0.253 C 
ENDBRANCH  18  19
BRANCH  21  22
ATOM     22  O   UNL     1      -4.852   3.515  25.825  0.00  0.00    -0.465 OA
ATOM     23  C   UNL     1      -5.399   4.063  25.541  0.00  0.00    +0.253 C 
ENDBRANCH  21  22
BRANCH   5   6
ATOM      6  C   UNL     1      -3.287   1.505  23.727  0.00  0.00    +0.099 C 
BRANCH   6   7
ATOM      7  N   UNL     1      -2.717   0.978  24.007  0.00  0.00    -0.266 NA
ATOM      8  C   UNL     1      -2.948   0.304  24.423  0.00  0.00    +0.094 C 
ATOM      9  C   UNL     1      -2.379  -0.223  24.703  0.00  0.00    +0.112 C 
ATOM     10  N   UNL     1      -1.578  -0.076  24.568  0.00  0.00    -0.260 N 
ATOM     11  C   UNL     1      -1.347   0.598  24.152  0.00  0.00    +0.115 C 
ATOM     12  C   UNL     1      -0.524   0.598  24.103  0.00  0.00    +0.138 C 
ATOM     13  N   UNL     1      -0.246  -0.076  24.488  0.00  0.00    -0.187 NA
ATOM     14  C   UNL     1      -0.897  -0.492  24.775  0.00  0.00    +0.323 C 
ATOM     15  O   UNL     1      -0.873  -1.201  25.197  0.00  0.00    -0.251 OA
ATOM     16  C   UNL     1      -1.917   1.125  23.872  0.00  0.00    +0.094 C 
ENDBRANCH   6   7
ENDBRANCH   5   6
TORSDOF 5
ENDMDL
MODEL 6
REMARK VINA RESULT:      -7.9      2.099      4.231
REMARK  Name = 
REMARK  5 active torsions:
REMARK  status: ('A' for Active; 'I' for Inactive)
REMARK    1  A    between atoms: O_2  and  C_3
REMARK    2  A    between atoms: C_5  and  C_6
REMARK    3  A    between atoms: C_6  and  N_7
REMARK    4  A    between atoms: C_18  and  O_19
REMARK    5  A    between atoms: C_21  and  O_22
REMARK                            x       y       z     vdW  Elec       q    Type
REMARK                         _______ _______ _______ _____ _____    ______ ____
ROOT
ATOM      3  C   UNL     1      -4.311   1.419  24.642  0.00  0.00    +0.175 A 
ATOM      4  C   UNL     1      -3.618   1.754  24.346  0.00  0.00    +0.037 A 
ATOM      5  C   UNL     1      -3.465   2.556  24.463  0.00  0.00    +0.000 A 
ATOM     17  C   UNL     1      -4.006   3.024  24.876  0.00  0.00    +0.037 A 
ATOM     18  C   UNL     1      -4.699   2.688  25.172  0.00  0.00    +0.175 A 
ATOM     21  C   UNL     1      -4.852   1.885  25.055  0.00  0.00    +0.206 A 
ENDROOT
BRANCH   3   2
ATOM      1  C   UNL     1      -3.846   0.099  24.350  0.00  0.00    +0.253 C 
ATOM      2  O   UNL     1      -4.464   0.616  24.525  0.00  0.00    -0.468 OA
ENDBRANCH   3   2
BRANCH  18  19
ATOM     19  O   UNL     1      -5.240   3.155  25.585  0.00  0.00    -0.468 OA
ATOM     20  C   UNL     1      -5.124   3.970  25.641  0.00  0.00    +0.253 C 
ENDBRANCH  18  19
BRANCH  21  22
ATOM     22  O   UNL     1      -5.545   1.550  25.351  0.00  0.00    -0.465 OA
ATOM     23  C   UNL     1      -6.245   1.600  24.916  0.00  0.00    +0.253 C 
ENDBRANCH  21  22
BRANCH   5   6
ATOM      6  C   UNL     1      -2.772   2.891  24.167  0.00  0.00    +0.099 C 
BRANCH   6   7
ATOM      7  N   UNL     1      -2.060   2.793  24.574  0.00  0.00    -0.266 NA
ATOM      8  C   UNL     1      -1.948   3.158  25.305  0.00  0.00    +0.094 C 
ATOM      9  C   UNL     1      -1.237   3.060  25.710  0.00  0.00    +0.112 C 
ATOM     10  N   UNL     1      -0.636   2.597  25.385  0.00  0.00    -0.260 N 
ATOM     11  C   UNL     1      -0.748   2.232  24.653  0.00  0.00    +0.115 C 
ATOM     12  C   UNL     1      -0.063   1.811  24.471  0.00  0.00    +0.138 C 
ATOM     13  N   UNL     1       0.472   1.915  25.089  0.00  0.00    -0.187 NA
ATOM     14  C   UNL     1       0.118   2.401  25.654  0.00  0.00    +0.323 C 
ATOM     15  O   UNL     1       0.458   2.648  26.364  0.00  0.00    -0.251 OA
ATOM     16  C   UNL     1      -1.460   2.330  24.247  0.00  0.00    +0.094 C 
ENDBRANCH   6   7
ENDBRANCH   5   6
TORSDOF 5
ENDMDL
