MODEL 1
REMARK VINA RESULT:      -9.7      0.000      0.000
REMARK  Name = 
REMARK  8 active torsions:
REMARK  status: ('A' for Active; 'I' for Inactive)
REMARK    1  A    between atoms: N_2  and  C_4
REMARK    2  A    between atoms: C_7  and  C_8
REMARK    3  A    between atoms: C_8  and  N_9
REMARK    4  A    between atoms: N_9  and  C_10
REMARK    5  A    between atoms: C_14  and  O_18
REMARK    6  A    between atoms: O_18  and  C_19
REMARK    7  A    between atoms: N_21  and  C_22
REMARK    8  A    between atoms: C_24  and  C_28
REMARK                            x       y       z     vdW  Elec       q    Type
REMARK                         _______ _______ _______ _____ _____    ______ ____
ROOT
ATOM     10  C   UNL     1      -1.362   0.122  24.278  0.00  0.00    +0.132 C 
ATOM     11  C   UNL     1      -1.260  -0.697  24.289  0.00  0.00    +0.162 C 
ATOM     12  O   UNL     1      -0.521  -0.866  23.966  0.00  0.00    -0.348 OA
ATOM     13  C   UNL     1      -0.165  -0.153  23.755  0.00  0.00    +0.186 C 
ATOM     14  C   UNL     1       0.512   0.184  23.425  0.00  0.00    +0.229 C 
ATOM     15  C   UNL     1       0.411   1.002  23.413  0.00  0.00    +0.188 C 
ATOM     16  O   UNL     1      -0.329   1.172  23.736  0.00  0.00    -0.348 OA
ATOM     17  C   UNL     1      -0.685   0.458  23.947  0.00  0.00    +0.164 C 
ENDROOT
BRANCH  10   9
ATOM      9  N   UNL     1      -2.024   0.532  24.549  0.00  0.00    -0.210 NA
BRANCH   9   8
ATOM      8  C   UNL     1      -2.781   0.286  24.331  0.00  0.00    +0.115 C 
BRANCH   8   7
ATOM      4  C   UNL     1      -4.755   1.636  24.965  0.00  0.00    +0.048 A 
ATOM      5  C   UNL     1      -4.654   0.880  25.280  0.00  0.00    +0.014 A 
ATOM      6  C   UNL     1      -3.996   0.431  25.068  0.00  0.00    -0.002 A 
ATOM      7  C   UNL     1      -3.438   0.736  24.542  0.00  0.00    -0.005 A 
ATOM     32  C   UNL     1      -3.540   1.491  24.227  0.00  0.00    -0.002 A 
ATOM     33  C   UNL     1      -4.198   1.942  24.438  0.00  0.00    +0.014 A 
BRANCH   4   2
ATOM      1  C   UNL     1      -5.312   2.813  25.553  0.00  0.00    +0.112 C 
ATOM      2  N   UNL     1      -5.413   2.087  25.176  0.00  0.00    -0.304 N 
ATOM      3  C   UNL     1      -6.173   1.810  25.010  0.00  0.00    +0.112 C 
ENDBRANCH   4   2
ENDBRANCH   8   7
ENDBRANCH   9   8
ENDBRANCH  10   9
BRANCH  14  18
ATOM     18  O   UNL     1       1.175  -0.227  23.153  0.00  0.00    -0.432 OA
BRANCH  18  19
ATOM     19  C   UNL     1       1.920   0.125  23.186  0.00  0.00    +0.425 C 
ATOM     20  O   UNL     1       2.008   0.875  23.518  0.00  0.00    -0.224 OA
ATOM     21  N   UNL     1       2.578  -0.272  22.887  0.00  0.00    -0.142 NA
BRANCH  21  22
ATOM     22  C   UNL     1       3.323   0.079  22.919  0.00  0.00    +0.077 A 
ATOM     23  C   UNL     1       3.902  -0.226  23.420  0.00  0.00    +0.021 A 
ATOM     24  C   UNL     1       4.647   0.125  23.453  0.00  0.00    +0.073 A 
ATOM     25  C   UNL     1       4.814   0.783  22.984  0.00  0.00    +0.004 A 
ATOM     26  C   UNL     1       4.235   1.090  22.482  0.00  0.00    +0.001 A 
ATOM     27  C   UNL     1       3.489   0.737  22.450  0.00  0.00    +0.017 A 
BRANCH  24  28
ATOM     28  C   UNL     1       5.227  -0.182  23.954  0.00  0.00    +0.419 C 
ATOM     29  F   UNL     1       5.806  -0.488  24.455  0.00  0.00    -0.166 F 
ATOM     30  F   UNL     1       5.164  -0.914  23.580  0.00  0.00    -0.166 F 
ATOM     31  F   UNL     1       5.290   0.550  24.328  0.00  0.00    -0.166 F 
ENDBRANCH  24  28
ENDBRANCH  21  22
ENDBRANCH  18  19
ENDBRANCH  14  18
TORSDOF 8
ENDMDL
MODEL 2
REMARK VINA RESULT:      -9.3      3.498      7.623
REMARK  Name = 
REMARK  8 active torsions:
REMARK  status: ('A' for Active; 'I' for Inactive)
REMARK    1  A    between atoms: N_2  and  C_4
REMARK    2  A    between atoms: C_7  and  C_8
REMARK    3  A    between atoms: C_8  and  N_9
REMARK    4  A    between atoms: N_9  and  C_10
REMARK    5  A    between atoms: C_14  and  O_18
REMARK    6  A    between atoms: O_18  and  C_19
REMARK    7  A    between atoms: N_21  and  C_22
REMARK    8  A    between atoms: C_24  and  C_28
REMARK                            x       y       z     vdW  Elec       q    Type
REMARK                         _______ _______ _______ _____ _____    ______ ____
ROOT
ATOM     10  C   UNL     1       0.875   0.399  23.342  0.00  0.00    +0.132 C 
ATOM     11  C   UNL     1       0.510  -0.282  23.054  0.00  0.00    +0.162 C 
ATOM     12  O   UNL     1      -0.264  -0.295  23.338  0.00  0.00    -0.348 OA
ATOM     13  C   UNL     1      -0.377   0.376  23.802  0.00  0.00    +0.186 C 
ATOM     14  C   UNL     1      -0.925   0.784  24.266  0.00  0.00    +0.229 C 
ATOM     15  C   UNL     1      -0.560   1.465  24.554  0.00  0.00    +0.188 C 
ATOM     16  O   UNL     1       0.214   1.478  24.269  0.00  0.00    -0.348 OA
ATOM     17  C   UNL     1       0.327   0.806  23.805  0.00  0.00    +0.164 C 
ENDROOT
BRANCH  10   9
ATOM      9  N   UNL     1       1.653   0.632  23.193  0.00  0.00    -0.210 NA
BRANCH   9   8
ATOM      8  C   UNL     1       2.159   0.137  22.770  0.00  0.00    +0.115 C 
BRANCH   8   7
ATOM      4  C   UNL     1       4.590   0.161  23.231  0.00  0.00    +0.048 A 
ATOM      5  C   UNL     1       4.223   0.829  22.913  0.00  0.00    +0.014 A 
ATOM      6  C   UNL     1       3.413   0.820  22.760  0.00  0.00    -0.002 A 
ATOM      7  C   UNL     1       2.969   0.145  22.923  0.00  0.00    -0.005 A 
ATOM     32  C   UNL     1       3.335  -0.523  23.241  0.00  0.00    -0.002 A 
ATOM     33  C   UNL     1       4.146  -0.514  23.395  0.00  0.00    +0.014 A 
BRANCH   4   2
ATOM      1  C   UNL     1       5.687   0.533  24.068  0.00  0.00    +0.112 C 
ATOM      2  N   UNL     1       5.400   0.170  23.385  0.00  0.00    -0.304 N 
ATOM      3  C   UNL     1       5.925  -0.185  22.855  0.00  0.00    +0.112 C 
ENDBRANCH   4   2
ENDBRANCH   8   7
ENDBRANCH   9   8
ENDBRANCH  10   9
BRANCH  14  18
ATOM     18  O   UNL     1      -1.702   0.551  24.414  0.00  0.00    -0.432 OA
BRANCH  18  19
ATOM     19  C   UNL     1      -2.288   1.119  24.533  0.00  0.00    +0.425 C 
ATOM     20  O   UNL     1      -2.175   1.718  25.089  0.00  0.00    -0.224 OA
ATOM     21  N   UNL     1      -2.987   1.090  24.097  0.00  0.00    -0.142 NA
BRANCH  21  22
ATOM     22  C   UNL     1      -3.573   1.658  24.216  0.00  0.00    +0.077 A 
ATOM     23  C   UNL     1      -4.219   1.491  24.701  0.00  0.00    +0.021 A 
ATOM     24  C   UNL     1      -4.804   2.059  24.820  0.00  0.00    +0.073 A 
ATOM     25  C   UNL     1      -4.745   2.796  24.453  0.00  0.00    +0.004 A 
ATOM     26  C   UNL     1      -4.098   2.964  23.968  0.00  0.00    +0.001 A 
ATOM     27  C   UNL     1      -3.513   2.395  23.850  0.00  0.00    +0.017 A 
BRANCH  24  28
ATOM     28  C   UNL     1      -5.450   1.890  25.305  0.00  0.00    +0.419 C 
ATOM     29  F   UNL     1      -6.096   1.722  25.789  0.00  0.00    -0.166 F 
ATOM     30  F   UNL     1      -5.793   1.451  24.696  0.00  0.00    -0.166 F 
ATOM     31  F   UNL     1      -5.108   2.329  25.913  0.00  0.00    -0.166 F 
ENDBRANCH  24  28
ENDBRANCH  21  22
ENDBRANCH  18  19
ENDBRANCH  14  18
TORSDOF 8
ENDMDL
MODEL 3
REMARK VINA RESULT:      -8.8      3.017      7.283
REMARK  Name = 
REMARK  8 active torsions:
REMARK  status: ('A' for Active; 'I' for Inactive)
REMARK    1  A    between atoms: N_2  and  C_4
REMARK    2  A    between atoms: C_7  and  C_8
REMARK    3  A    between atoms: C_8  and  N_9
REMARK    4  A    between atoms: N_9  and  C_10
REMARK    5  A    between atoms: C_14  and  O_18
REMARK    6  A    between atoms: O_18  and  C_19
REMARK    7  A    between atoms: N_21  and  C_22
REMARK    8  A    between atoms: C_24  and  C_28
REMARK                            x       y       z     vdW  Elec       q    Type
REMARK                         _______ _______ _______ _____ _____    ______ ____
ROOT
ATOM     10  C   UNL     1       1.057   0.444  23.233  0.00  0.00    +0.132 C 
ATOM     11  C   UNL     1       0.663   0.035  22.634  0.00  0.00    +0.162 C 
ATOM     12  O   UNL     1      -0.134   0.245  22.664  0.00  0.00    -0.348 OA
ATOM     13  C   UNL     1      -0.233   0.784  23.280  0.00  0.00    +0.186 C 
ATOM     14  C   UNL     1      -0.786   1.247  23.680  0.00  0.00    +0.229 C 
ATOM     15  C   UNL     1      -0.393   1.656  24.278  0.00  0.00    +0.188 C 
ATOM     16  O   UNL     1       0.404   1.446  24.248  0.00  0.00    -0.348 OA
ATOM     17  C   UNL     1       0.503   0.906  23.632  0.00  0.00    +0.164 C 
ENDROOT
BRANCH  10   9
ATOM      9  N   UNL     1       1.863   0.398  23.402  0.00  0.00    -0.210 NA
BRANCH   9   8
ATOM      8  C   UNL     1       2.401   0.211  22.805  0.00  0.00    +0.115 C 
BRANCH   8   7
ATOM      4  C   UNL     1       4.821   0.100  23.306  0.00  0.00    +0.048 A 
ATOM      5  C   UNL     1       4.335  -0.544  23.475  0.00  0.00    +0.014 A 
ATOM      6  C   UNL     1       3.529  -0.507  23.308  0.00  0.00    -0.002 A 
ATOM      7  C   UNL     1       3.207   0.174  22.972  0.00  0.00    -0.005 A 
ATOM     32  C   UNL     1       3.693   0.819  22.802  0.00  0.00    -0.002 A 
ATOM     33  C   UNL     1       4.501   0.782  22.970  0.00  0.00    +0.014 A 
BRANCH   4   2
ATOM      1  C   UNL     1       5.919   0.380  24.177  0.00  0.00    +0.112 C 
ATOM      2  N   UNL     1       5.629   0.064  23.473  0.00  0.00    -0.304 N 
ATOM      3  C   UNL     1       6.146  -0.289  22.936  0.00  0.00    +0.112 C 
ENDBRANCH   4   2
ENDBRANCH   8   7
ENDBRANCH   9   8
ENDBRANCH  10   9
BRANCH  14  18
ATOM     18  O   UNL     1      -1.592   1.293  23.510  0.00  0.00    -0.432 OA
BRANCH  18  19
ATOM     19  C   UNL     1      -2.145   1.013  24.054  0.00  0.00    +0.425 C 
ATOM     20  O   UNL     1      -2.106   1.252  24.843  0.00  0.00    -0.224 OA
ATOM     21  N   UNL     1      -2.737   0.493  23.811  0.00  0.00    -0.142 NA
BRANCH  21  22
ATOM     22  C   UNL     1      -3.290   0.212  24.355  0.00  0.00    +0.077 A 
ATOM     23  C   UNL     1      -3.217  -0.549  24.663  0.00  0.00    +0.021 A 
ATOM     24  C   UNL     1      -3.770  -0.830  25.206  0.00  0.00    +0.073 A 
ATOM     25  C   UNL     1      -4.397  -0.348  25.444  0.00  0.00    +0.004 A 
ATOM     26  C   UNL     1      -4.470   0.414  25.136  0.00  0.00    +0.001 A 
ATOM     27  C   UNL     1      -3.917   0.694  24.592  0.00  0.00    +0.017 A 
BRANCH  24  28
ATOM     28  C   UNL     1      -3.696  -1.592  25.514  0.00  0.00    +0.419 C 
ATOM     29  F   UNL     1      -3.623  -2.354  25.821  0.00  0.00    -0.166 F 
ATOM     30  F   UNL     1      -4.002  -1.904  24.813  0.00  0.00    -0.166 F 
ATOM     31  F   UNL     1      -3.391  -1.281  26.213  0.00  0.00    -0.166 F 
ENDBRANCH  24  28
ENDBRANCH  21  22
ENDBRANCH  18  19
ENDBRANCH  14  18
TORSDOF 8
ENDMDL
MODEL 4
REMARK VINA RESULT:      -8.7      4.244      5.583
REMARK  Name = 
REMARK  8 active torsions:
REMARK  status: ('A' for Active; 'I' for Inactive)
REMARK    1  A    between atoms: N_2  and  C_4
REMARK    2  A    between atoms: C_7  and  C_8
REMARK    3  A    between atoms: C_8  and  N_9
REMARK    4  A    between atoms: N_9  and  C_10
REMARK    5  A    between atoms: C_14  and  O_18
REMARK    6  A    between atoms: O_18  and  C_19
REMARK    7  A    between atoms: N_21  and  C_22
REMARK    8  A    between atoms: C_24  and  C_28
REMARK                            x       y       z     vdW  Elec       q    Type
REMARK                         _______ _______ _______ _____ _____    ______ ____
ROOT
ATOM     10  C   UNL     1      -0.751  -0.249  25.093  0.00  0.00    +0.132 C 
ATOM     11  C   UNL     1      -0.701   0.055  25.858  0.00  0.00    +0.162 C 
ATOM     12  O   UNL     1      -0.428   0.832  25.805  0.00  0.00    -0.348 OA
ATOM     13  C   UNL     1      -0.310   1.008  25.008  0.00  0.00    +0.186 C 
ATOM     14  C   UNL     1      -0.069   1.596  24.482  0.00  0.00    +0.229 C 
ATOM     15  C   UNL     1      -0.119   1.292  23.718  0.00  0.00    +0.188 C 
ATOM     16  O   UNL     1      -0.392   0.515  23.770  0.00  0.00    -0.348 OA
ATOM     17  C   UNL     1      -0.510   0.339  24.568  0.00  0.00    +0.164 C 
ENDROOT
BRANCH  10   9
ATOM      9  N   UNL     1      -0.999  -1.009  24.889  0.00  0.00    -0.210 NA
BRANCH   9   8
ATOM      8  C   UNL     1      -1.547  -1.405  25.361  0.00  0.00    +0.115 C 
BRANCH   8   7
ATOM      4  C   UNL     1      -3.481  -2.548  24.322  0.00  0.00    +0.048 A 
ATOM      5  C   UNL     1      -3.604  -1.923  24.846  0.00  0.00    +0.014 A 
ATOM      6  C   UNL     1      -2.960  -1.542  25.192  0.00  0.00    -0.002 A 
ATOM      7  C   UNL     1      -2.192  -1.786  25.015  0.00  0.00    -0.005 A 
ATOM     32  C   UNL     1      -2.068  -2.411  24.491  0.00  0.00    -0.002 A 
ATOM     33  C   UNL     1      -2.713  -2.792  24.144  0.00  0.00    +0.014 A 
BRANCH   4   2
ATOM      1  C   UNL     1      -4.170  -3.753  23.982  0.00  0.00    +0.112 C 
ATOM      2  N   UNL     1      -4.126  -2.929  23.976  0.00  0.00    -0.304 N 
ATOM      3  C   UNL     1      -4.726  -2.486  23.623  0.00  0.00    +0.112 C 
ENDBRANCH   4   2
ENDBRANCH   8   7
ENDBRANCH   9   8
ENDBRANCH  10   9
BRANCH  14  18
ATOM     18  O   UNL     1       0.179   2.356  24.686  0.00  0.00    -0.432 OA
BRANCH  18  19
ATOM     19  C   UNL     1      -0.354   2.985  24.660  0.00  0.00    +0.425 C 
ATOM     20  O   UNL     1      -0.693   3.208  23.942  0.00  0.00    -0.224 OA
ATOM     21  N   UNL     1      -0.548   3.392  25.350  0.00  0.00    -0.142 NA
BRANCH  21  22
ATOM     22  C   UNL     1      -1.081   4.021  25.324  0.00  0.00    +0.077 A 
ATOM     23  C   UNL     1      -1.857   3.916  25.581  0.00  0.00    +0.021 A 
ATOM     24  C   UNL     1      -2.389   4.545  25.554  0.00  0.00    +0.073 A 
ATOM     25  C   UNL     1      -2.146   5.280  25.270  0.00  0.00    +0.004 A 
ATOM     26  C   UNL     1      -1.369   5.386  25.013  0.00  0.00    +0.001 A 
ATOM     27  C   UNL     1      -0.836   4.756  25.040  0.00  0.00    +0.017 A 
BRANCH  24  28
ATOM     28  C   UNL     1      -3.166   4.439  25.811  0.00  0.00    +0.419 C 
ATOM     29  F   UNL     1      -3.942   4.334  26.069  0.00  0.00    -0.166 F 
ATOM     30  F   UNL     1      -2.934   4.614  26.584  0.00  0.00    -0.166 F 
ATOM     31  F   UNL     1      -3.399   4.265  25.040  0.00  0.00    -0.166 F 
ENDBRANCH  24  28
ENDBRANCH  21  22
ENDBRANCH  18  19
ENDBRANCH  14  18
TORSDOF 8
ENDMDL
MODEL 5
REMARK VINA RESULT:      -8.6      4.314      5.796
REMARK  Name = 
REMARK  8 active torsions:
REMARK  status: ('A' for Active; 'I' for Inactive)
REMARK    1  A    between atoms: N_2  and  C_4
REMARK    2  A    between atoms: C_7  and  C_8
REMARK    3  A    between atoms: C_8  and  N_9
REMARK    4  A    between atoms: N_9  and  C_10
REMARK    5  A    between atoms: C_14  and  O_18
REMARK    6  A    between atoms: O_18  and  C_19
REMARK    7  A    between atoms: N_21  and  C_22
REMARK    8  A    between atoms: C_24  and  C_28
REMARK                            x       y       z     vdW  Elec       q    Type
REMARK                         _______ _______ _______ _____ _____    ______ ____
ROOT
ATOM     10  C   UNL     1      -4.640   2.459  25.114  0.00  0.00    +0.132 C 
ATOM     11  C   UNL     1      -5.187   2.197  25.673  0.00  0.00    +0.162 C 
ATOM     12  O   UNL     1      -5.281   1.384  25.576  0.00  0.00    -0.348 OA
ATOM     13  C   UNL     1      -4.792   1.142  24.957  0.00  0.00    +0.186 C 
ATOM     14  C   UNL     1      -4.547   0.491  24.514  0.00  0.00    +0.229 C 
ATOM     15  C   UNL     1      -4.000   0.753  23.955  0.00  0.00    +0.188 C 
ATOM     16  O   UNL     1      -3.907   1.566  24.053  0.00  0.00    -0.348 OA
ATOM     17  C   UNL     1      -4.396   1.807  24.672  0.00  0.00    +0.164 C 
ENDROOT
BRANCH  10   9
ATOM      9  N   UNL     1      -4.383   3.237  25.015  0.00  0.00    -0.210 NA
BRANCH   9   8
ATOM      8  C   UNL     1      -3.972   3.616  25.622  0.00  0.00    +0.115 C 
BRANCH   8   7
ATOM      4  C   UNL     1      -1.794   4.694  25.159  0.00  0.00    +0.048 A 
ATOM      5  C   UNL     1      -1.905   4.273  25.859  0.00  0.00    +0.014 A 
ATOM      6  C   UNL     1      -2.631   3.914  26.013  0.00  0.00    -0.002 A 
ATOM      7  C   UNL     1      -3.246   3.976  25.468  0.00  0.00    -0.005 A 
ATOM     32  C   UNL     1      -3.136   4.397  24.767  0.00  0.00    -0.002 A 
ATOM     33  C   UNL     1      -2.409   4.757  24.613  0.00  0.00    +0.014 A 
BRANCH   4   2
ATOM      1  C   UNL     1      -0.379   4.600  24.977  0.00  0.00    +0.112 C 
ATOM      2  N   UNL     1      -1.067   5.054  25.004  0.00  0.00    -0.304 N 
ATOM      3  C   UNL     1      -1.029   5.868  24.876  0.00  0.00    +0.112 C 
ENDBRANCH   4   2
ENDBRANCH   8   7
ENDBRANCH   9   8
ENDBRANCH  10   9
BRANCH  14  18
ATOM     18  O   UNL     1      -4.804  -0.287  24.613  0.00  0.00    -0.432 OA
BRANCH  18  19
ATOM     19  C   UNL     1      -4.300  -0.915  24.434  0.00  0.00    +0.425 C 
ATOM     20  O   UNL     1      -4.193  -1.145  23.649  0.00  0.00    -0.224 OA
ATOM     21  N   UNL     1      -3.904  -1.312  25.038  0.00  0.00    -0.142 NA
BRANCH  21  22
ATOM     22  C   UNL     1      -3.400  -1.940  24.858  0.00  0.00    +0.077 A 
ATOM     23  C   UNL     1      -2.584  -1.824  24.848  0.00  0.00    +0.021 A 
ATOM     24  C   UNL     1      -2.080  -2.452  24.669  0.00  0.00    +0.073 A 
ATOM     25  C   UNL     1      -2.393  -3.196  24.498  0.00  0.00    +0.004 A 
ATOM     26  C   UNL     1      -3.210  -3.312  24.508  0.00  0.00    +0.001 A 
ATOM     27  C   UNL     1      -3.713  -2.684  24.688  0.00  0.00    +0.017 A 
BRANCH  24  28
ATOM     28  C   UNL     1      -1.263  -2.336  24.659  0.00  0.00    +0.419 C 
ATOM     29  F   UNL     1      -0.447  -2.220  24.649  0.00  0.00    -0.166 F 
ATOM     30  F   UNL     1      -1.279  -2.289  23.835  0.00  0.00    -0.166 F 
ATOM     31  F   UNL     1      -1.246  -2.382  25.482  0.00  0.00    -0.166 F 
ENDBRANCH  24  28
ENDBRANCH  21  22
ENDBRANCH  18  19
ENDBRANCH  14  18
TORSDOF 8
ENDMDL
MODEL 6
REMARK VINA RESULT:      -7.7     17.240     17.770
REMARK  Name = 
REMARK  8 active torsions:
REMARK  status: ('A' for Active; 'I' for Inactive)
REMARK    1  A    between atoms: N_2  and  C_4
REMARK    2  A    between atoms: C_7  and  C_8
REMARK    3  A    between atoms: C_8  and  N_9
REMARK    4  A    between atoms: N_9  and  C_10
REMARK    5  A    between atoms: C_14  and  O_18
REMARK    6  A    between atoms: O_18  and  C_19
REMARK    7  A    between atoms: N_21  and  C_22
REMARK    8  A    between atoms: C_24  and  C_28
REMARK                            x       y       z     vdW  Elec       q    Type
REMARK                         _______ _______ _______ _____ _____    ______ ____
ROOT
ATOM     10  C   UNL     1      -6.728  -8.653   9.259  0.00  0.00    +0.132 C 
ATOM     11  C   UNL     1      -6.441  -9.082   8.617  0.00  0.00    +0.162 C 
ATOM     12  O   UNL     1      -5.875  -9.613   8.898  0.00  0.00    -0.348 OA
ATOM     13  C   UNL     1      -5.813  -9.512   9.713  0.00  0.00    +0.186 C 
ATOM     14  C   UNL     1      -5.425  -9.776  10.392  0.00  0.00    +0.229 C 
ATOM     15  C   UNL     1      -5.713  -9.346  11.035  0.00  0.00    +0.188 C 
ATOM     16  O   UNL     1      -6.278  -8.816  10.753  0.00  0.00    -0.348 OA
ATOM     17  C   UNL     1      -6.340  -8.918   9.937  0.00  0.00    +0.164 C 
ENDROOT
BRANCH  10   9
ATOM      9  N   UNL     1      -7.302  -8.061   9.229  0.00  0.00    -0.210 NA
BRANCH   9   8
ATOM      8  C   UNL     1      -7.603  -7.814   8.502  0.00  0.00    +0.115 C 
BRANCH   8   7
ATOM      4  C   UNL     1      -9.360  -6.074   8.413  0.00  0.00    +0.048 A 
ATOM      5  C   UNL     1      -8.594  -5.900   8.160  0.00  0.00    +0.014 A 
ATOM      6  C   UNL     1      -8.009  -6.480   8.190  0.00  0.00    -0.002 A 
ATOM      7  C   UNL     1      -8.189  -7.234   8.472  0.00  0.00    -0.005 A 
ATOM     32  C   UNL     1      -8.954  -7.408   8.725  0.00  0.00    -0.002 A 
ATOM     33  C   UNL     1      -9.541  -6.828   8.695  0.00  0.00    +0.014 A 
BRANCH   4   2
ATOM      1  C   UNL     1     -10.720  -5.699   8.182  0.00  0.00    +0.112 C 
ATOM      2  N   UNL     1      -9.946  -5.494   8.384  0.00  0.00    -0.304 N 
ATOM      3  C   UNL     1      -9.759  -4.709   8.556  0.00  0.00    +0.112 C 
ENDBRANCH   4   2
ENDBRANCH   8   7
ENDBRANCH   9   8
ENDBRANCH  10   9
BRANCH  14  18
ATOM     18  O   UNL     1      -4.851 -10.368  10.422  0.00  0.00    -0.432 OA
BRANCH  18  19
ATOM     19  C   UNL     1      -4.192 -10.279  10.911  0.00  0.00    +0.425 C 
ATOM     20  O   UNL     1      -4.292 -10.071  11.703  0.00  0.00    -0.224 OA
ATOM     21  N   UNL     1      -3.434 -10.398  10.608  0.00  0.00    -0.142 NA
BRANCH  21  22
ATOM     22  C   UNL     1      -2.776 -10.310  11.097  0.00  0.00    +0.077 A 
ATOM     23  C   UNL     1      -2.198  -9.751  10.914  0.00  0.00    +0.021 A 
ATOM     24  C   UNL     1      -1.540  -9.663  11.402  0.00  0.00    +0.073 A 
ATOM     25  C   UNL     1      -1.459 -10.133  12.075  0.00  0.00    +0.004 A 
ATOM     26  C   UNL     1      -2.037 -10.693  12.259  0.00  0.00    +0.001 A 
ATOM     27  C   UNL     1      -2.695 -10.780  11.770  0.00  0.00    +0.017 A 
BRANCH  24  28
ATOM     28  C   UNL     1      -0.961  -9.103  11.218  0.00  0.00    +0.419 C 
ATOM     29  F   UNL     1      -0.383  -8.545  11.034  0.00  0.00    -0.166 F 
ATOM     30  F   UNL     1      -1.370  -8.908  10.528  0.00  0.00    -0.166 F 
ATOM     31  F   UNL     1      -0.553  -9.298  11.907  0.00  0.00    -0.166 F 
ENDBRANCH  24  28
ENDBRANCH  21  22
ENDBRANCH  18  19
ENDBRANCH  14  18
TORSDOF 8
ENDMDL
MODEL 7
REMARK VINA RESULT:      -7.5     14.642     15.356
REMARK  Name = 
REMARK  8 active torsions:
REMARK  status: ('A' for Active; 'I' for Inactive)
REMARK    1  A    between atoms: N_2  and  C_4
REMARK    2  A    between atoms: C_7  and  C_8
REMARK    3  A    between atoms: C_8  and  N_9
REMARK    4  A    between atoms: N_9  and  C_10
REMARK    5  A    between atoms: C_14  and  O_18
REMARK    6  A    between atoms: O_18  and  C_19
REMARK    7  A    between atoms: N_21  and  C_22
REMARK    8  A    between atoms: C_24  and  C_28
REMARK                            x       y       z     vdW  Elec       q    Type
REMARK                         _______ _______ _______ _____ _____    ______ ____
ROOT
ATOM     10  C   UNL     1      -6.113 -10.125  15.959  0.00  0.00    +0.132 C 
ATOM     11  C   UNL     1      -5.426  -9.978  16.391  0.00  0.00    +0.162 C 
ATOM     12  O   UNL     1      -4.781 -10.098  15.891  0.00  0.00    -0.348 OA
ATOM     13  C   UNL     1      -5.068 -10.319  15.151  0.00  0.00    +0.186 C 
ATOM     14  C   UNL     1      -4.848 -10.531  14.385  0.00  0.00    +0.229 C 
ATOM     15  C   UNL     1      -5.535 -10.678  13.953  0.00  0.00    +0.188 C 
ATOM     16  O   UNL     1      -6.180 -10.558  14.452  0.00  0.00    -0.348 OA
ATOM     17  C   UNL     1      -5.892 -10.336  15.193  0.00  0.00    +0.164 C 
ENDROOT
BRANCH  10   9
ATOM      9  N   UNL     1      -6.885 -10.071  16.243  0.00  0.00    -0.210 NA
BRANCH   9   8
ATOM      8  C   UNL     1      -7.038  -9.677  16.952  0.00  0.00    +0.115 C 
BRANCH   8   7
ATOM      4  C   UNL     1      -9.368  -9.384  17.731  0.00  0.00    +0.048 A 
ATOM      5  C   UNL     1      -9.028  -8.826  17.228  0.00  0.00    +0.014 A 
ATOM      6  C   UNL     1      -8.252  -8.924  16.968  0.00  0.00    -0.002 A 
ATOM      7  C   UNL     1      -7.814  -9.579  17.212  0.00  0.00    -0.005 A 
ATOM     32  C   UNL     1      -8.154 -10.138  17.715  0.00  0.00    -0.002 A 
ATOM     33  C   UNL     1      -8.931 -10.040  17.975  0.00  0.00    +0.014 A 
BRANCH   4   2
ATOM      1  C   UNL     1     -10.655  -8.779  17.587  0.00  0.00    +0.112 C 
ATOM      2  N   UNL     1     -10.145  -9.287  17.991  0.00  0.00    -0.304 N 
ATOM      3  C   UNL     1     -10.413  -9.697  18.655  0.00  0.00    +0.112 C 
ENDBRANCH   4   2
ENDBRANCH   8   7
ENDBRANCH   9   8
ENDBRANCH  10   9
BRANCH  14  18
ATOM     18  O   UNL     1      -4.075 -10.585  14.100  0.00  0.00    -0.432 OA
BRANCH  18  19
ATOM     19  C   UNL     1      -3.910 -10.394  13.315  0.00  0.00    +0.425 C 
ATOM     20  O   UNL     1      -4.434  -9.922  12.886  0.00  0.00    -0.224 OA
ATOM     21  N   UNL     1      -3.222 -10.673  12.957  0.00  0.00    -0.142 NA
BRANCH  21  22
ATOM     22  C   UNL     1      -3.057 -10.482  12.172  0.00  0.00    +0.077 A 
ATOM     23  C   UNL     1      -2.406 -10.009  11.990  0.00  0.00    +0.021 A 
ATOM     24  C   UNL     1      -2.241  -9.818  11.206  0.00  0.00    +0.073 A 
ATOM     25  C   UNL     1      -2.727 -10.100  10.601  0.00  0.00    +0.004 A 
ATOM     26  C   UNL     1      -3.378 -10.574  10.783  0.00  0.00    +0.001 A 
ATOM     27  C   UNL     1      -3.542 -10.764  11.568  0.00  0.00    +0.017 A 
BRANCH  24  28
ATOM     28  C   UNL     1      -1.590  -9.344  11.024  0.00  0.00    +0.419 C 
ATOM     29  F   UNL     1      -0.940  -8.871  10.843  0.00  0.00    -0.166 F 
ATOM     30  F   UNL     1      -1.093  -9.882  11.403  0.00  0.00    -0.166 F 
ATOM     31  F   UNL     1      -2.087  -8.806  10.645  0.00  0.00    -0.166 F 
ENDBRANCH  24  28
ENDBRANCH  21  22
ENDBRANCH  18  19
ENDBRANCH  14  18
TORSDOF 8
ENDMDL
MODEL 8
REMARK VINA RESULT:      -7.4     15.516     16.437
REMARK  Name = 
REMARK  8 active torsions:
REMARK  status: ('A' for Active; 'I' for Inactive)
REMARK    1  A    between atoms: N_2  and  C_4
REMARK    2  A    between atoms: C_7  and  C_8
REMARK    3  A    between atoms: C_8  and  N_9
REMARK    4  A    between atoms: N_9  and  C_10
REMARK    5  A    between atoms: C_14  and  O_18
REMARK    6  A    between atoms: O_18  and  C_19
REMARK    7  A    between atoms: N_21  and  C_22
REMARK    8  A    between atoms: C_24  and  C_28
REMARK                            x       y       z     vdW  Elec       q    Type
REMARK                         _______ _______ _______ _____ _____    ______ ____
ROOT
ATOM     10  C   UNL     1      -4.479 -10.774  15.151  0.00  0.00    +0.132 C 
ATOM     11  C   UNL     1      -3.655 -10.780  15.183  0.00  0.00    +0.162 C 
ATOM     12  O   UNL     1      -3.370 -10.770  14.409  0.00  0.00    -0.348 OA
ATOM     13  C   UNL     1      -4.017 -10.758  13.898  0.00  0.00    +0.186 C 
ATOM     14  C   UNL     1      -4.243 -10.745  13.105  0.00  0.00    +0.229 C 
ATOM     15  C   UNL     1      -5.067 -10.739  13.073  0.00  0.00    +0.188 C 
ATOM     16  O   UNL     1      -5.351 -10.748  13.847  0.00  0.00    -0.348 OA
ATOM     17  C   UNL     1      -4.703 -10.760  14.357  0.00  0.00    +0.164 C 
ENDROOT
BRANCH  10   9
ATOM      9  N   UNL     1      -4.990 -10.780  15.799  0.00  0.00    -0.210 NA
BRANCH   9   8
ATOM      8  C   UNL     1      -4.753 -10.443  16.514  0.00  0.00    +0.115 C 
BRANCH   8   7
ATOM      4  C   UNL     1      -6.245 -10.545  18.485  0.00  0.00    +0.048 A 
ATOM      5  C   UNL     1      -6.562 -10.592  17.725  0.00  0.00    +0.014 A 
ATOM      6  C   UNL     1      -6.065 -10.558  17.069  0.00  0.00    -0.002 A 
ATOM      7  C   UNL     1      -5.250 -10.477  17.171  0.00  0.00    -0.005 A 
ATOM     32  C   UNL     1      -4.933 -10.430  17.931  0.00  0.00    -0.002 A 
ATOM     33  C   UNL     1      -5.431 -10.464  18.589  0.00  0.00    +0.014 A 
BRANCH   4   2
ATOM      1  C   UNL     1      -7.558 -10.503  19.048  0.00  0.00    +0.112 C 
ATOM      2  N   UNL     1      -6.742 -10.579  19.143  0.00  0.00    -0.304 N 
ATOM      3  C   UNL     1      -6.424 -10.690  19.896  0.00  0.00    +0.112 C 
ENDBRANCH   4   2
ENDBRANCH   8   7
ENDBRANCH   9   8
ENDBRANCH  10   9
BRANCH  14  18
ATOM     18  O   UNL     1      -3.732 -10.738  12.456  0.00  0.00    -0.432 OA
BRANCH  18  19
ATOM     19  C   UNL     1      -3.903 -10.267  11.801  0.00  0.00    +0.425 C 
ATOM     20  O   UNL     1      -4.343  -9.576  11.894  0.00  0.00    -0.224 OA
ATOM     21  N   UNL     1      -3.633 -10.486  11.053  0.00  0.00    -0.142 NA
BRANCH  21  22
ATOM     22  C   UNL     1      -3.804 -10.015  10.398  0.00  0.00    +0.077 A 
ATOM     23  C   UNL     1      -4.381 -10.250   9.859  0.00  0.00    +0.021 A 
ATOM     24  C   UNL     1      -4.552  -9.780   9.205  0.00  0.00    +0.073 A 
ATOM     25  C   UNL     1      -4.145  -9.071   9.088  0.00  0.00    +0.004 A 
ATOM     26  C   UNL     1      -3.566  -8.835   9.627  0.00  0.00    +0.001 A 
ATOM     27  C   UNL     1      -3.396  -9.307  10.282  0.00  0.00    +0.017 A 
BRANCH  24  28
ATOM     28  C   UNL     1      -5.130 -10.016   8.665  0.00  0.00    +0.419 C 
ATOM     29  F   UNL     1      -5.708 -10.252   8.126  0.00  0.00    -0.166 F 
ATOM     30  F   UNL     1      -5.676  -9.517   9.032  0.00  0.00    -0.166 F 
ATOM     31  F   UNL     1      -4.585 -10.514   8.299  0.00  0.00    -0.166 F 
ENDBRANCH  24  28
ENDBRANCH  21  22
ENDBRANCH  18  19
ENDBRANCH  14  18
TORSDOF 8
ENDMDL
MODEL 9
REMARK VINA RESULT:      -7.1     14.452     15.190
REMARK  Name = 
REMARK  8 active torsions:
REMARK  status: ('A' for Active; 'I' for Inactive)
REMARK    1  A    between atoms: N_2  and  C_4
REMARK    2  A    between atoms: C_7  and  C_8
REMARK    3  A    between atoms: C_8  and  N_9
REMARK    4  A    between atoms: N_9  and  C_10
REMARK    5  A    between atoms: C_14  and  O_18
REMARK    6  A    between atoms: O_18  and  C_19
REMARK    7  A    between atoms: N_21  and  C_22
REMARK    8  A    between atoms: C_24  and  C_28
REMARK                            x       y       z     vdW  Elec       q    Type
REMARK                         _______ _______ _______ _____ _____    ______ ____
ROOT
ATOM     10  C   UNL     1      -4.014 -10.780  16.234  0.00  0.00    +0.132 C 
ATOM     11  C   UNL     1      -3.288 -10.781  16.626  0.00  0.00    +0.162 C 
ATOM     12  O   UNL     1      -2.692 -10.779  16.056  0.00  0.00    -0.348 OA
ATOM     13  C   UNL     1      -3.048 -10.778  15.313  0.00  0.00    +0.186 C 
ATOM     14  C   UNL     1      -2.901 -10.776  14.501  0.00  0.00    +0.229 C 
ATOM     15  C   UNL     1      -3.627 -10.775  14.110  0.00  0.00    +0.188 C 
ATOM     16  O   UNL     1      -4.223 -10.777  14.680  0.00  0.00    -0.348 OA
ATOM     17  C   UNL     1      -3.866 -10.778  15.423  0.00  0.00    +0.164 C 
ENDROOT
BRANCH  10   9
ATOM      9  N   UNL     1      -4.758 -10.781  16.592  0.00  0.00    -0.210 NA
BRANCH   9   8
ATOM      8  C   UNL     1      -5.043 -10.097  16.955  0.00  0.00    +0.115 C 
BRANCH   8   7
ATOM      4  C   UNL     1      -7.364 -10.021  17.806  0.00  0.00    +0.048 A 
ATOM      5  C   UNL     1      -7.170  -9.635  17.104  0.00  0.00    +0.014 A 
ATOM      6  C   UNL     1      -6.396  -9.660  16.820  0.00  0.00    -0.002 A 
ATOM      7  C   UNL     1      -5.816 -10.072  17.238  0.00  0.00    -0.005 A 
ATOM     32  C   UNL     1      -6.011 -10.458  17.941  0.00  0.00    -0.002 A 
ATOM     33  C   UNL     1      -6.785 -10.433  18.225  0.00  0.00    +0.014 A 
BRANCH   4   2
ATOM      1  C   UNL     1      -8.384 -10.532  18.667  0.00  0.00    +0.112 C 
ATOM      2  N   UNL     1      -8.139  -9.996  18.090  0.00  0.00    -0.304 N 
ATOM      3  C   UNL     1      -8.668  -9.434  17.798  0.00  0.00    +0.112 C 
ENDBRANCH   4   2
ENDBRANCH   8   7
ENDBRANCH   9   8
ENDBRANCH  10   9
BRANCH  14  18
ATOM     18  O   UNL     1      -2.157 -10.774  14.144  0.00  0.00    -0.432 OA
BRANCH  18  19
ATOM     19  C   UNL     1      -2.015 -10.294  13.488  0.00  0.00    +0.425 C 
ATOM     20  O   UNL     1      -1.902  -9.483  13.589  0.00  0.00    -0.224 OA
ATOM     21  N   UNL     1      -1.986 -10.623  12.733  0.00  0.00    -0.142 NA
BRANCH  21  22
ATOM     22  C   UNL     1      -1.844 -10.143  12.078  0.00  0.00    +0.077 A 
ATOM     23  C   UNL     1      -2.428 -10.042  11.505  0.00  0.00    +0.021 A 
ATOM     24  C   UNL     1      -2.286  -9.562  10.850  0.00  0.00    +0.073 A 
ATOM     25  C   UNL     1      -1.558  -9.181  10.768  0.00  0.00    +0.004 A 
ATOM     26  C   UNL     1      -0.973  -9.282  11.341  0.00  0.00    +0.001 A 
ATOM     27  C   UNL     1      -1.116  -9.762  11.996  0.00  0.00    +0.017 A 
BRANCH  24  28
ATOM     28  C   UNL     1      -2.871  -9.462  10.277  0.00  0.00    +0.419 C 
ATOM     29  F   UNL     1      -3.455  -9.362   9.704  0.00  0.00    -0.166 F 
ATOM     30  F   UNL     1      -2.640  -8.676  10.179  0.00  0.00    -0.166 F 
ATOM     31  F   UNL     1      -3.102 -10.248  10.374  0.00  0.00    -0.166 F 
ENDBRANCH  24  28
ENDBRANCH  21  22
ENDBRANCH  18  19
ENDBRANCH  14  18
TORSDOF 8
ENDMDL
MODEL 10
REMARK VINA RESULT:      -7.0     15.366     16.157
REMARK  Name = 
REMARK  8 active torsions:
REMARK  status: ('A' for Active; 'I' for Inactive)
REMARK    1  A    between atoms: N_2  and  C_4
REMARK    2  A    between atoms: C_7  and  C_8
REMARK    3  A    between atoms: C_8  and  N_9
REMARK    4  A    between atoms: N_9  and  C_10
REMARK    5  A    between atoms: C_14  and  O_18
REMARK    6  A    between atoms: O_18  and  C_19
REMARK    7  A    between atoms: N_21  and  C_22
REMARK    8  A    between atoms: C_24  and  C_28
REMARK                            x       y       z     vdW  Elec       q    Type
REMARK                         _______ _______ _______ _____ _____    ______ ____
ROOT
ATOM     10  C   UNL     1      -6.345 -10.140  15.286  0.00  0.00    +0.132 C 
ATOM     11  C   UNL     1      -5.592 -10.027  15.602  0.00  0.00    +0.162 C 
ATOM     12  O   UNL     1      -5.046 -10.098  14.989  0.00  0.00    -0.348 OA
ATOM     13  C   UNL     1      -5.460 -10.255  14.294  0.00  0.00    +0.186 C 
ATOM     14  C   UNL     1      -5.380 -10.396  13.485  0.00  0.00    +0.229 C 
ATOM     15  C   UNL     1      -6.133 -10.508  13.169  0.00  0.00    +0.188 C 
ATOM     16  O   UNL     1      -6.680 -10.437  13.782  0.00  0.00    -0.348 OA
ATOM     17  C   UNL     1      -6.264 -10.280  14.478  0.00  0.00    +0.164 C 
ENDROOT
BRANCH  10   9
ATOM      9  N   UNL     1      -7.056 -10.116  15.705  0.00  0.00    -0.210 NA
BRANCH   9   8
ATOM      8  C   UNL     1      -7.100  -9.704  16.419  0.00  0.00    +0.115 C 
BRANCH   8   7
ATOM      4  C   UNL     1      -9.271  -9.473  17.583  0.00  0.00    +0.048 A 
ATOM      5  C   UNL     1      -8.874 -10.196  17.592  0.00  0.00    +0.014 A 
ATOM      6  C   UNL     1      -8.150 -10.273  17.204  0.00  0.00    -0.002 A 
ATOM      7  C   UNL     1      -7.824  -9.628  16.807  0.00  0.00    -0.005 A 
ATOM     32  C   UNL     1      -8.221  -8.905  16.799  0.00  0.00    -0.002 A 
ATOM     33  C   UNL     1      -8.945  -8.828  17.187  0.00  0.00    +0.014 A 
BRANCH   4   2
ATOM      1  C   UNL     1     -10.578  -8.901  17.663  0.00  0.00    +0.112 C 
ATOM      2  N   UNL     1      -9.996  -9.396  17.972  0.00  0.00    -0.304 N 
ATOM      3  C   UNL     1     -10.137  -9.814  18.669  0.00  0.00    +0.112 C 
ENDBRANCH   4   2
ENDBRANCH   8   7
ENDBRANCH   9   8
ENDBRANCH  10   9
BRANCH  14  18
ATOM     18  O   UNL     1      -4.670 -10.420  13.065  0.00  0.00    -0.432 OA
BRANCH  18  19
ATOM     19  C   UNL     1      -4.665 -10.280  12.252  0.00  0.00    +0.425 C 
ATOM     20  O   UNL     1      -5.101 -10.767  11.748  0.00  0.00    -0.224 OA
ATOM     21  N   UNL     1      -4.226  -9.655  11.943  0.00  0.00    -0.142 NA
BRANCH  21  22
ATOM     22  C   UNL     1      -4.222  -9.515  11.130  0.00  0.00    +0.077 A 
ATOM     23  C   UNL     1      -4.740  -8.964  10.803  0.00  0.00    +0.021 A 
ATOM     24  C   UNL     1      -4.736  -8.824   9.991  0.00  0.00    +0.073 A 
ATOM     25  C   UNL     1      -4.212  -9.237   9.503  0.00  0.00    +0.004 A 
ATOM     26  C   UNL     1      -3.693  -9.789   9.831  0.00  0.00    +0.001 A 
ATOM     27  C   UNL     1      -3.698  -9.928  10.644  0.00  0.00    +0.017 A 
BRANCH  24  28
ATOM     28  C   UNL     1      -5.255  -8.272   9.663  0.00  0.00    +0.419 C 
ATOM     29  F   UNL     1      -5.773  -7.720   9.337  0.00  0.00    -0.166 F 
ATOM     30  F   UNL     1      -4.880  -7.670  10.086  0.00  0.00    -0.166 F 
ATOM     31  F   UNL     1      -5.629  -8.873   9.241  0.00  0.00    -0.166 F 
ENDBRANCH  24  28
ENDBRANCH  21  22
ENDBRANCH  18  19
ENDBRANCH  14  18
TORSDOF 8
ENDMDL
