MODEL 1
REMARK VINA RESULT:     -12.5      0.000      0.000
REMARK  Name = 
REMARK  6 active torsions:
REMARK  status: ('A' for Active; 'I' for Inactive)
REMARK    1  A    between atoms: O_2  and  C_3
REMARK    2  A    between atoms: C_3  and  C_4
REMARK    3  A    between atoms: C_4  and  C_5
REMARK    4  A    between atoms: N_7  and  C_8
REMARK    5  A    between atoms: N_20  and  C_21
REMARK    6  A    between atoms: C_24  and  O_25
REMARK                            x       y       z     vdW  Elec       q    Type
REMARK                         _______ _______ _______ _____ _____    ______ ____
ROOT
ATOM      8  C   UNL     1      -3.393   3.118  25.203  0.00  0.00    +0.129 A 
ATOM      9  C   UNL     1      -4.028   3.627  25.337  0.00  0.00    +0.023 A 
ATOM     10  C   UNL     1      -4.799   3.335  25.338  0.00  0.00    +0.014 A 
ATOM     11  C   UNL     1      -4.935   2.532  25.205  0.00  0.00    +0.041 A 
ATOM     12  C   UNL     1      -5.623   1.925  25.145  0.00  0.00    +0.058 C 
ATOM     13  C   UNL     1      -6.322   1.880  25.185  0.00  0.00    +0.011 C 
ATOM     14  C   UNL     1      -5.693   1.380  25.053  0.00  0.00    +0.043 C 
ATOM     15  C   UNL     1      -5.076   0.628  24.878  0.00  0.00    +0.097 C 
ATOM     16  N   UNL     1      -4.348   1.037  24.900  0.00  0.00    -0.262 N 
ATOM     17  C   UNL     1      -5.040   1.189  24.975  0.00  0.00    +0.101 C 
ATOM     18  C   UNL     1      -3.532   1.159  24.866  0.00  0.00    +0.327 C 
ATOM     19  O   UNL     1      -3.223   1.916  24.979  0.00  0.00    -0.250 OA
ATOM     20  N   UNL     1      -3.027   0.524  24.719  0.00  0.00    -0.162 NA
ATOM     29  C   UNL     1      -4.968   2.006  25.114  0.00  0.00    +0.110 C 
ATOM     30  N   UNL     1      -4.300   2.022  25.071  0.00  0.00    -0.298 N 
ATOM     31  C   UNL     1      -3.529   2.315  25.070  0.00  0.00    +0.276 A 
ATOM     32  O   UNL     1      -2.764   2.026  24.967  0.00  0.00    -0.266 OA
ENDROOT
BRANCH  20  21
ATOM     21  C   UNL     1      -3.335  -0.232  24.606  0.00  0.00    +0.075 A 
ATOM     22  C   UNL     1      -3.419  -0.744  25.248  0.00  0.00    +0.020 A 
ATOM     23  C   UNL     1      -3.727  -1.500  25.136  0.00  0.00    +0.038 A 
ATOM     24  C   UNL     1      -3.953  -1.746  24.381  0.00  0.00    +0.139 A 
ATOM     27  C   UNL     1      -3.869  -1.235  23.739  0.00  0.00    +0.038 A 
ATOM     28  C   UNL     1      -3.561  -0.478  23.851  0.00  0.00    +0.020 A 
BRANCH  24  25
ATOM     25  O   UNL     1      -4.262  -2.503  24.268  0.00  0.00    -0.471 OA
ATOM     26  C   UNL     1      -3.760  -3.129  24.077  0.00  0.00    +0.252 C 
ENDBRANCH  24  25
ENDBRANCH  20  21
BRANCH   8   7
ATOM      5  C   UNL     1      -2.455   4.131  25.570  0.00  0.00    +0.248 C 
ATOM      6  O   UNL     1      -3.058   4.556  25.938  0.00  0.00    -0.273 OA
ATOM      7  N   UNL     1      -2.622   3.411  25.202  0.00  0.00    -0.174 NA
BRANCH   5   4
ATOM      4  C   UNL     1      -1.684   4.425  25.569  0.00  0.00    +0.119 C 
BRANCH   4   3
ATOM      3  C   UNL     1      -1.494   5.083  25.109  0.00  0.00    +0.152 C 
BRANCH   3   2
ATOM      1  C   UNL     1      -0.356   5.380  24.298  0.00  0.00    +0.174 C 
ATOM      2  O   UNL     1      -0.709   5.326  25.041  0.00  0.00    -0.351 OA
ENDBRANCH   3   2
ENDBRANCH   4   3
ENDBRANCH   5   4
ENDBRANCH   8   7
TORSDOF 6
ENDMDL
MODEL 2
REMARK VINA RESULT:     -11.7      2.568      4.327
REMARK  Name = 
REMARK  6 active torsions:
REMARK  status: ('A' for Active; 'I' for Inactive)
REMARK    1  A    between atoms: O_2  and  C_3
REMARK    2  A    between atoms: C_3  and  C_4
REMARK    3  A    between atoms: C_4  and  C_5
REMARK    4  A    between atoms: N_7  and  C_8
REMARK    5  A    between atoms: N_20  and  C_21
REMARK    6  A    between atoms: C_24  and  O_25
REMARK                            x       y       z     vdW  Elec       q    Type
REMARK                         _______ _______ _______ _____ _____    ______ ____
ROOT
ATOM      8  C   UNL     1      -0.930  -0.088  24.277  0.00  0.00    +0.129 A 
ATOM      9  C   UNL     1      -0.873  -0.881  24.497  0.00  0.00    +0.023 A 
ATOM     10  C   UNL     1      -1.513  -1.257  24.856  0.00  0.00    +0.014 A 
ATOM     11  C   UNL     1      -2.211  -0.840  24.996  0.00  0.00    +0.041 A 
ATOM     12  C   UNL     1      -3.051  -0.953  25.352  0.00  0.00    +0.058 C 
ATOM     13  C   UNL     1      -3.460  -1.435  25.656  0.00  0.00    +0.011 C 
ATOM     14  C   UNL     1      -3.513  -0.652  25.438  0.00  0.00    +0.043 C 
ATOM     15  C   UNL     1      -3.768   0.284  25.251  0.00  0.00    +0.097 C 
ATOM     16  N   UNL     1      -3.061   0.554  24.898  0.00  0.00    -0.262 N 
ATOM     17  C   UNL     1      -3.312  -0.051  25.178  0.00  0.00    +0.101 C 
ATOM     18  C   UNL     1      -2.530   1.073  24.536  0.00  0.00    +0.327 C 
ATOM     19  O   UNL     1      -1.775   0.811  24.327  0.00  0.00    -0.250 OA
ATOM     20  N   UNL     1      -2.753   1.852  24.385  0.00  0.00    -0.162 NA
ATOM     29  C   UNL     1      -2.638  -0.525  25.064  0.00  0.00    +0.110 C 
ATOM     30  N   UNL     1      -2.268  -0.046  24.777  0.00  0.00    -0.298 N 
ATOM     31  C   UNL     1      -1.628   0.330  24.417  0.00  0.00    +0.276 A 
ATOM     32  O   UNL     1      -1.444   1.076  24.120  0.00  0.00    -0.266 OA
ENDROOT
BRANCH  20  21
ATOM     21  C   UNL     1      -3.507   2.113  24.594  0.00  0.00    +0.075 A 
ATOM     22  C   UNL     1      -3.632   2.467  25.328  0.00  0.00    +0.020 A 
ATOM     23  C   UNL     1      -4.385   2.728  25.538  0.00  0.00    +0.038 A 
ATOM     24  C   UNL     1      -5.015   2.636  25.013  0.00  0.00    +0.139 A 
ATOM     27  C   UNL     1      -4.890   2.282  24.278  0.00  0.00    +0.038 A 
ATOM     28  C   UNL     1      -4.137   2.021  24.068  0.00  0.00    +0.020 A 
BRANCH  24  25
ATOM     25  O   UNL     1      -5.769   2.898  25.222  0.00  0.00    -0.471 OA
ATOM     26  C   UNL     1      -5.857   3.579  25.678  0.00  0.00    +0.252 C 
ENDBRANCH  24  25
ENDBRANCH  20  21
BRANCH   8   7
ATOM      5  C   UNL     1       0.327  -0.161  23.604  0.00  0.00    +0.248 C 
ATOM      6  O   UNL     1       0.304  -0.984  23.650  0.00  0.00    -0.273 OA
ATOM      7  N   UNL     1      -0.290   0.287  23.918  0.00  0.00    -0.174 NA
BRANCH   5   4
ATOM      4  C   UNL     1       0.968   0.213  23.244  0.00  0.00    +0.119 C 
BRANCH   4   3
ATOM      3  C   UNL     1       1.551  -0.235  22.869  0.00  0.00    +0.152 C 
BRANCH   3   2
ATOM      1  C   UNL     1       2.865   0.158  22.471  0.00  0.00    +0.174 C 
ATOM      2  O   UNL     1       2.055   0.120  22.321  0.00  0.00    -0.351 OA
ENDBRANCH   3   2
ENDBRANCH   4   3
ENDBRANCH   5   4
ENDBRANCH   8   7
TORSDOF 6
ENDMDL
MODEL 3
REMARK VINA RESULT:     -11.4      0.998      4.819
REMARK  Name = 
REMARK  6 active torsions:
REMARK  status: ('A' for Active; 'I' for Inactive)
REMARK    1  A    between atoms: O_2  and  C_3
REMARK    2  A    between atoms: C_3  and  C_4
REMARK    3  A    between atoms: C_4  and  C_5
REMARK    4  A    between atoms: N_7  and  C_8
REMARK    5  A    between atoms: N_20  and  C_21
REMARK    6  A    between atoms: C_24  and  O_25
REMARK                            x       y       z     vdW  Elec       q    Type
REMARK                         _______ _______ _______ _____ _____    ______ ____
ROOT
ATOM      8  C   UNL     1      -3.955   0.347  24.955  0.00  0.00    +0.129 A 
ATOM      9  C   UNL     1      -4.776   0.428  24.930  0.00  0.00    +0.023 A 
ATOM     10  C   UNL     1      -5.116   1.179  24.903  0.00  0.00    +0.014 A 
ATOM     11  C   UNL     1      -4.635   1.849  24.902  0.00  0.00    +0.041 A 
ATOM     12  C   UNL     1      -4.689   2.766  24.880  0.00  0.00    +0.058 C 
ATOM     13  C   UNL     1      -5.156   3.290  24.855  0.00  0.00    +0.011 C 
ATOM     14  C   UNL     1      -4.346   3.206  24.880  0.00  0.00    +0.043 C 
ATOM     15  C   UNL     1      -3.364   3.311  24.907  0.00  0.00    +0.097 C 
ATOM     16  N   UNL     1      -3.138   2.507  24.931  0.00  0.00    -0.262 N 
ATOM     17  C   UNL     1      -3.742   2.884  24.905  0.00  0.00    +0.101 C 
ATOM     18  C   UNL     1      -2.643   1.847  24.960  0.00  0.00    +0.327 C 
ATOM     19  O   UNL     1      -2.968   1.088  24.968  0.00  0.00    -0.250 OA
ATOM     20  N   UNL     1      -1.825   1.946  24.982  0.00  0.00    -0.162 NA
ATOM     29  C   UNL     1      -4.280   2.249  24.904  0.00  0.00    +0.110 C 
ATOM     30  N   UNL     1      -3.814   1.768  24.928  0.00  0.00    -0.298 N 
ATOM     31  C   UNL     1      -3.474   1.017  24.955  0.00  0.00    +0.276 A 
ATOM     32  O   UNL     1      -2.719   0.687  24.984  0.00  0.00    -0.266 OA
ENDROOT
BRANCH  20  21
ATOM     21  C   UNL     1      -1.501   2.704  24.975  0.00  0.00    +0.075 A 
ATOM     22  C   UNL     1      -1.281   3.052  24.260  0.00  0.00    +0.020 A 
ATOM     23  C   UNL     1      -0.957   3.810  24.252  0.00  0.00    +0.038 A 
ATOM     24  C   UNL     1      -0.851   4.221  24.960  0.00  0.00    +0.139 A 
ATOM     27  C   UNL     1      -1.071   3.873  25.675  0.00  0.00    +0.038 A 
ATOM     28  C   UNL     1      -1.395   3.116  25.683  0.00  0.00    +0.020 A 
BRANCH  24  25
ATOM     25  O   UNL     1      -0.526   4.980  24.952  0.00  0.00    -0.471 OA
ATOM     26  C   UNL     1      -1.019   5.638  24.887  0.00  0.00    +0.252 C 
ENDBRANCH  24  25
ENDBRANCH  20  21
BRANCH   8   7
ATOM      5  C   UNL     1      -4.006  -1.045  24.637  0.00  0.00    +0.248 C 
ATOM      6  O   UNL     1      -4.734  -0.933  24.266  0.00  0.00    -0.273 OA
ATOM      7  N   UNL     1      -3.616  -0.404  24.982  0.00  0.00    -0.174 NA
BRANCH   5   4
ATOM      4  C   UNL     1      -3.667  -1.796  24.663  0.00  0.00    +0.119 C 
BRANCH   4   3
ATOM      3  C   UNL     1      -3.926  -2.384  24.145  0.00  0.00    +0.152 C 
BRANCH   3   2
ATOM      1  C   UNL     1      -2.880  -3.347  24.280  0.00  0.00    +0.174 C 
ATOM      2  O   UNL     1      -3.683  -3.165  24.251  0.00  0.00    -0.351 OA
ENDBRANCH   3   2
ENDBRANCH   4   3
ENDBRANCH   5   4
ENDBRANCH   8   7
TORSDOF 6
ENDMDL
MODEL 4
REMARK VINA RESULT:     -10.7      1.951      3.127
REMARK  Name = 
REMARK  6 active torsions:
REMARK  status: ('A' for Active; 'I' for Inactive)
REMARK    1  A    between atoms: O_2  and  C_3
REMARK    2  A    between atoms: C_3  and  C_4
REMARK    3  A    between atoms: C_4  and  C_5
REMARK    4  A    between atoms: N_7  and  C_8
REMARK    5  A    between atoms: N_20  and  C_21
REMARK    6  A    between atoms: C_24  and  O_25
REMARK                            x       y       z     vdW  Elec       q    Type
REMARK                         _______ _______ _______ _____ _____    ______ ____
ROOT
ATOM      8  C   UNL     1      -0.946   2.055  24.967  0.00  0.00    +0.129 A 
ATOM      9  C   UNL     1      -0.149   2.061  24.752  0.00  0.00    +0.023 A 
ATOM     10  C   UNL     1       0.207   1.372  24.469  0.00  0.00    +0.014 A 
ATOM     11  C   UNL     1      -0.234   0.679  24.401  0.00  0.00    +0.041 A 
ATOM     12  C   UNL     1      -0.148  -0.198  24.140  0.00  0.00    +0.058 C 
ATOM     13  C   UNL     1       0.322  -0.655  23.889  0.00  0.00    +0.011 C 
ATOM     14  C   UNL     1      -0.464  -0.656  24.101  0.00  0.00    +0.043 C 
ATOM     15  C   UNL     1      -1.410  -0.857  24.304  0.00  0.00    +0.097 C 
ATOM     16  N   UNL     1      -1.658  -0.106  24.574  0.00  0.00    -0.262 N 
ATOM     17  C   UNL     1      -1.060  -0.408  24.330  0.00  0.00    +0.101 C 
ATOM     18  C   UNL     1      -2.160   0.479  24.869  0.00  0.00    +0.327 C 
ATOM     19  O   UNL     1      -1.874   1.242  24.998  0.00  0.00    -0.250 OA
ATOM     20  N   UNL     1      -2.948   0.300  25.034  0.00  0.00    -0.162 NA
ATOM     29  C   UNL     1      -0.563   0.258  24.376  0.00  0.00    +0.110 C 
ATOM     30  N   UNL     1      -1.030   0.673  24.615  0.00  0.00    -0.298 N 
ATOM     31  C   UNL     1      -1.386   1.362  24.898  0.00  0.00    +0.276 A 
ATOM     32  O   UNL     1      -2.129   1.603  25.165  0.00  0.00    -0.266 OA
ENDROOT
BRANCH  20  21
ATOM     21  C   UNL     1      -3.234  -0.462  24.905  0.00  0.00    +0.075 A 
ATOM     22  C   UNL     1      -3.181  -1.030  25.502  0.00  0.00    +0.020 A 
ATOM     23  C   UNL     1      -3.467  -1.792  25.374  0.00  0.00    +0.038 A 
ATOM     24  C   UNL     1      -3.808  -1.988  24.648  0.00  0.00    +0.139 A 
ATOM     27  C   UNL     1      -3.861  -1.421  24.051  0.00  0.00    +0.038 A 
ATOM     28  C   UNL     1      -3.575  -0.659  24.179  0.00  0.00    +0.020 A 
BRANCH  24  25
ATOM     25  O   UNL     1      -4.094  -2.752  24.519  0.00  0.00    -0.471 OA
ATOM     26  C   UNL     1      -3.567  -3.379  24.427  0.00  0.00    +0.252 C 
ENDBRANCH  24  25
ENDBRANCH  20  21
BRANCH   8   7
ATOM      5  C   UNL     1      -0.960   3.478  25.090  0.00  0.00    +0.248 C 
ATOM      6  O   UNL     1      -0.264   3.523  24.649  0.00  0.00    -0.273 OA
ATOM      7  N   UNL     1      -1.301   2.744  25.249  0.00  0.00    -0.174 NA
BRANCH   5   4
ATOM      4  C   UNL     1      -1.314   4.168  25.373  0.00  0.00    +0.119 C 
BRANCH   4   3
ATOM      3  C   UNL     1      -1.197   4.883  24.980  0.00  0.00    +0.152 C 
BRANCH   3   2
ATOM      1  C   UNL     1      -2.042   6.034  24.968  0.00  0.00    +0.174 C 
ATOM      2  O   UNL     1      -1.447   5.590  25.324  0.00  0.00    -0.351 OA
ENDBRANCH   3   2
ENDBRANCH   4   3
ENDBRANCH   5   4
ENDBRANCH   8   7
TORSDOF 6
ENDMDL
MODEL 5
REMARK VINA RESULT:     -10.7      2.568      3.977
REMARK  Name = 
REMARK  6 active torsions:
REMARK  status: ('A' for Active; 'I' for Inactive)
REMARK    1  A    between atoms: O_2  and  C_3
REMARK    2  A    between atoms: C_3  and  C_4
REMARK    3  A    between atoms: C_4  and  C_5
REMARK    4  A    between atoms: N_7  and  C_8
REMARK    5  A    between atoms: N_20  and  C_21
REMARK    6  A    between atoms: C_24  and  O_25
REMARK                            x       y       z     vdW  Elec       q    Type
REMARK                         _______ _______ _______ _____ _____    ______ ____
ROOT
ATOM      8  C   UNL     1      -0.613   1.968  24.273  0.00  0.00    +0.129 A 
ATOM      9  C   UNL     1      -0.124   2.587  24.514  0.00  0.00    +0.023 A 
ATOM     10  C   UNL     1      -0.445   3.239  24.903  0.00  0.00    +0.014 A 
ATOM     11  C   UNL     1      -1.256   3.273  25.050  0.00  0.00    +0.041 A 
ATOM     12  C   UNL     1      -1.890   3.818  25.433  0.00  0.00    +0.058 C 
ATOM     13  C   UNL     1      -1.960   4.433  25.762  0.00  0.00    +0.011 C 
ATOM     14  C   UNL     1      -2.440   3.821  25.522  0.00  0.00    +0.043 C 
ATOM     15  C   UNL     1      -3.173   3.191  25.314  0.00  0.00    +0.097 C 
ATOM     16  N   UNL     1      -2.737   2.589  24.933  0.00  0.00    -0.262 N 
ATOM     17  C   UNL     1      -2.609   3.220  25.239  0.00  0.00    +0.101 C 
ATOM     18  C   UNL     1      -2.585   1.879  24.542  0.00  0.00    +0.327 C 
ATOM     19  O   UNL     1      -1.814   1.686  24.319  0.00  0.00    -0.250 OA
ATOM     20  N   UNL     1      -3.205   1.361  24.373  0.00  0.00    -0.162 NA
ATOM     29  C   UNL     1      -1.785   3.245  25.120  0.00  0.00    +0.110 C 
ATOM     30  N   UNL     1      -1.745   2.654  24.808  0.00  0.00    -0.298 N 
ATOM     31  C   UNL     1      -1.424   2.002  24.420  0.00  0.00    +0.276 A 
ATOM     32  O   UNL     1      -1.687   1.291  24.094  0.00  0.00    -0.266 OA
ENDROOT
BRANCH  20  21
ATOM     21  C   UNL     1      -3.975   1.553  24.595  0.00  0.00    +0.075 A 
ATOM     22  C   UNL     1      -4.440   2.027  24.106  0.00  0.00    +0.020 A 
ATOM     23  C   UNL     1      -5.210   2.219  24.327  0.00  0.00    +0.038 A 
ATOM     24  C   UNL     1      -5.517   1.937  25.040  0.00  0.00    +0.139 A 
ATOM     27  C   UNL     1      -5.053   1.462  25.529  0.00  0.00    +0.038 A 
ATOM     28  C   UNL     1      -4.282   1.270  25.307  0.00  0.00    +0.020 A 
BRANCH  24  25
ATOM     25  O   UNL     1      -6.289   2.129  25.262  0.00  0.00    -0.471 OA
ATOM     26  C   UNL     1      -6.551   1.963  26.026  0.00  0.00    +0.252 C 
ENDBRANCH  24  25
ENDBRANCH  20  21
BRANCH   8   7
ATOM      5  C   UNL     1       0.528   1.211  23.864  0.00  0.00    +0.248 C 
ATOM      6  O   UNL     1       1.023   1.759  24.232  0.00  0.00    -0.273 OA
ATOM      7  N   UNL     1      -0.291   1.316  23.884  0.00  0.00    -0.174 NA
BRANCH   5   4
ATOM      4  C   UNL     1       0.851   0.559  23.475  0.00  0.00    +0.119 C 
BRANCH   4   3
ATOM      3  C   UNL     1       1.618   0.597  23.172  0.00  0.00    +0.152 C 
BRANCH   3   2
ATOM      1  C   UNL     1       2.660   0.034  22.375  0.00  0.00    +0.174 C 
ATOM      2  O   UNL     1       1.915  -0.026  22.721  0.00  0.00    -0.351 OA
ENDBRANCH   3   2
ENDBRANCH   4   3
ENDBRANCH   5   4
ENDBRANCH   8   7
TORSDOF 6
ENDMDL
MODEL 6
REMARK VINA RESULT:     -10.2      2.181      5.692
REMARK  Name = 
REMARK  6 active torsions:
REMARK  status: ('A' for Active; 'I' for Inactive)
REMARK    1  A    between atoms: O_2  and  C_3
REMARK    2  A    between atoms: C_3  and  C_4
REMARK    3  A    between atoms: C_4  and  C_5
REMARK    4  A    between atoms: N_7  and  C_8
REMARK    5  A    between atoms: N_20  and  C_21
REMARK    6  A    between atoms: C_24  and  O_25
REMARK                            x       y       z     vdW  Elec       q    Type
REMARK                         _______ _______ _______ _____ _____    ______ ____
ROOT
ATOM      8  C   UNL     1      -1.471  -0.429  24.662  0.00  0.00    +0.129 A 
ATOM      9  C   UNL     1      -0.780  -0.776  24.375  0.00  0.00    +0.023 A 
ATOM     10  C   UNL     1      -0.131  -0.305  24.182  0.00  0.00    +0.014 A 
ATOM     11  C   UNL     1      -0.173   0.513  24.275  0.00  0.00    +0.041 A 
ATOM     12  C   UNL     1       0.333   1.272  24.161  0.00  0.00    +0.058 C 
ATOM     13  C   UNL     1       0.968   1.483  23.949  0.00  0.00    +0.011 C 
ATOM     14  C   UNL     1       0.284   1.823  24.232  0.00  0.00    +0.043 C 
ATOM     15  C   UNL     1      -0.442   2.411  24.554  0.00  0.00    +0.097 C 
ATOM     16  N   UNL     1      -1.027   1.837  24.714  0.00  0.00    -0.262 N 
ATOM     17  C   UNL     1      -0.358   1.854  24.470  0.00  0.00    +0.101 C 
ATOM     18  C   UNL     1      -1.753   1.523  24.951  0.00  0.00    +0.327 C 
ATOM     19  O   UNL     1      -1.879   0.707  24.920  0.00  0.00    -0.250 OA
ATOM     20  N   UNL     1      -2.351   2.023  25.218  0.00  0.00    -0.162 NA
ATOM     29  C   UNL     1      -0.253   1.036  24.354  0.00  0.00    +0.110 C 
ATOM     30  N   UNL     1      -0.864   0.861  24.562  0.00  0.00    -0.298 N 
ATOM     31  C   UNL     1      -1.513   0.390  24.755  0.00  0.00    +0.276 A 
ATOM     32  O   UNL     1      -2.279   0.490  25.046  0.00  0.00    -0.266 OA
ENDROOT
BRANCH  20  21
ATOM     21  C   UNL     1      -2.225   2.837  25.249  0.00  0.00    +0.075 A 
ATOM     22  C   UNL     1      -1.889   3.178  25.921  0.00  0.00    +0.020 A 
ATOM     23  C   UNL     1      -1.763   3.992  25.952  0.00  0.00    +0.038 A 
ATOM     24  C   UNL     1      -1.973   4.467  25.311  0.00  0.00    +0.139 A 
ATOM     27  C   UNL     1      -2.309   4.127  24.639  0.00  0.00    +0.038 A 
ATOM     28  C   UNL     1      -2.436   3.313  24.607  0.00  0.00    +0.020 A 
BRANCH  24  25
ATOM     25  O   UNL     1      -1.847   5.282  25.343  0.00  0.00    -0.471 OA
ATOM     26  C   UNL     1      -1.197   5.614  24.958  0.00  0.00    +0.252 C 
ENDBRANCH  24  25
ENDBRANCH  20  21
BRANCH   8   7
ATOM      5  C   UNL     1      -2.104  -1.709  24.691  0.00  0.00    +0.248 C 
ATOM      6  O   UNL     1      -1.441  -2.045  24.333  0.00  0.00    -0.273 OA
ATOM      7  N   UNL     1      -2.119  -0.900  24.855  0.00  0.00    -0.174 NA
BRANCH   5   4
ATOM      4  C   UNL     1      -2.752  -2.181  24.883  0.00  0.00    +0.119 C 
BRANCH   4   3
ATOM      3  C   UNL     1      -3.136  -2.616  24.296  0.00  0.00    +0.152 C 
BRANCH   3   2
ATOM      1  C   UNL     1      -4.445  -2.893  23.797  0.00  0.00    +0.174 C 
ATOM      2  O   UNL     1      -3.905  -2.887  24.419  0.00  0.00    -0.351 OA
ENDBRANCH   3   2
ENDBRANCH   4   3
ENDBRANCH   5   4
ENDBRANCH   8   7
TORSDOF 6
ENDMDL
MODEL 7
REMARK VINA RESULT:     -10.1      2.026      3.404
REMARK  Name = 
REMARK  6 active torsions:
REMARK  status: ('A' for Active; 'I' for Inactive)
REMARK    1  A    between atoms: O_2  and  C_3
REMARK    2  A    between atoms: C_3  and  C_4
REMARK    3  A    between atoms: C_4  and  C_5
REMARK    4  A    between atoms: N_7  and  C_8
REMARK    5  A    between atoms: N_20  and  C_21
REMARK    6  A    between atoms: C_24  and  O_25
REMARK                            x       y       z     vdW  Elec       q    Type
REMARK                         _______ _______ _______ _____ _____    ______ ____
ROOT
ATOM      8  C   UNL     1      -4.458   1.455  25.131  0.00  0.00    +0.129 A 
ATOM      9  C   UNL     1      -5.128   0.976  25.085  0.00  0.00    +0.023 A 
ATOM     10  C   UNL     1      -5.063   0.200  24.811  0.00  0.00    +0.014 A 
ATOM     11  C   UNL     1      -4.328  -0.096  24.583  0.00  0.00    +0.041 A 
ATOM     12  C   UNL     1      -3.937  -0.860  24.255  0.00  0.00    +0.058 C 
ATOM     13  C   UNL     1      -4.090  -1.517  24.060  0.00  0.00    +0.011 C 
ATOM     14  C   UNL     1      -3.431  -1.041  24.106  0.00  0.00    +0.043 C 
ATOM     15  C   UNL     1      -2.533  -0.629  24.090  0.00  0.00    +0.097 C 
ATOM     16  N   UNL     1      -2.721   0.131  24.380  0.00  0.00    -0.262 N 
ATOM     17  C   UNL     1      -3.063  -0.477  24.233  0.00  0.00    +0.101 C 
ATOM     18  C   UNL     1      -2.609   0.911  24.625  0.00  0.00    +0.327 C 
ATOM     19  O   UNL     1      -3.252   1.358  24.888  0.00  0.00    -0.250 OA
ATOM     20  N   UNL     1      -1.855   1.244  24.607  0.00  0.00    -0.162 NA
ATOM     29  C   UNL     1      -3.831  -0.237  24.448  0.00  0.00    +0.110 C 
ATOM     30  N   UNL     1      -3.658   0.384  24.629  0.00  0.00    -0.298 N 
ATOM     31  C   UNL     1      -3.723   1.159  24.903  0.00  0.00    +0.276 A 
ATOM     32  O   UNL     1      -3.229   1.805  25.036  0.00  0.00    -0.266 OA
ENDROOT
BRANCH  20  21
ATOM     21  C   UNL     1      -1.213   0.799  24.344  0.00  0.00    +0.075 A 
ATOM     22  C   UNL     1      -0.795   0.325  24.874  0.00  0.00    +0.020 A 
ATOM     23  C   UNL     1      -0.153  -0.120  24.613  0.00  0.00    +0.038 A 
ATOM     24  C   UNL     1       0.072  -0.093  23.819  0.00  0.00    +0.139 A 
ATOM     27  C   UNL     1      -0.346   0.380  23.288  0.00  0.00    +0.038 A 
ATOM     28  C   UNL     1      -0.988   0.826  23.550  0.00  0.00    +0.020 A 
BRANCH  24  25
ATOM     25  O   UNL     1       0.715  -0.540  23.556  0.00  0.00    -0.471 OA
ATOM     26  C   UNL     1       1.167  -0.275  22.919  0.00  0.00    +0.252 C 
ENDBRANCH  24  25
ENDBRANCH  20  21
BRANCH   8   7
ATOM      5  C   UNL     1      -5.269   2.555  25.546  0.00  0.00    +0.248 C 
ATOM      6  O   UNL     1      -5.948   2.105  25.412  0.00  0.00    -0.273 OA
ATOM      7  N   UNL     1      -4.524   2.230  25.405  0.00  0.00    -0.174 NA
BRANCH   5   4
ATOM      4  C   UNL     1      -5.336   3.330  25.820  0.00  0.00    +0.119 C 
BRANCH   4   3
ATOM      3  C   UNL     1      -5.849   3.858  25.446  0.00  0.00    +0.152 C 
BRANCH   3   2
ATOM      1  C   UNL     1      -6.164   5.251  25.426  0.00  0.00    +0.174 C 
ATOM      2  O   UNL     1      -6.097   4.540  25.838  0.00  0.00    -0.351 OA
ENDBRANCH   3   2
ENDBRANCH   4   3
ENDBRANCH   5   4
ENDBRANCH   8   7
TORSDOF 6
ENDMDL
MODEL 8
REMARK VINA RESULT:      -9.7      2.221      4.019
REMARK  Name = 
REMARK  6 active torsions:
REMARK  status: ('A' for Active; 'I' for Inactive)
REMARK    1  A    between atoms: O_2  and  C_3
REMARK    2  A    between atoms: C_3  and  C_4
REMARK    3  A    between atoms: C_4  and  C_5
REMARK    4  A    between atoms: N_7  and  C_8
REMARK    5  A    between atoms: N_20  and  C_21
REMARK    6  A    between atoms: C_24  and  O_25
REMARK                            x       y       z     vdW  Elec       q    Type
REMARK                         _______ _______ _______ _____ _____    ______ ____
ROOT
ATOM      8  C   UNL     1      -3.326   3.116  25.078  0.00  0.00    +0.129 A 
ATOM      9  C   UNL     1      -3.186   3.888  25.334  0.00  0.00    +0.023 A 
ATOM     10  C   UNL     1      -2.415   4.180  25.362  0.00  0.00    +0.014 A 
ATOM     11  C   UNL     1      -1.784   3.700  25.134  0.00  0.00    +0.041 A 
ATOM     12  C   UNL     1      -0.868   3.717  25.052  0.00  0.00    +0.058 C 
ATOM     13  C   UNL     1      -0.315   4.137  25.145  0.00  0.00    +0.011 C 
ATOM     14  C   UNL     1      -0.456   3.376  24.893  0.00  0.00    +0.043 C 
ATOM     15  C   UNL     1      -0.424   2.445  24.564  0.00  0.00    +0.097 C 
ATOM     16  N   UNL     1      -1.239   2.262  24.578  0.00  0.00    -0.262 N 
ATOM     17  C   UNL     1      -0.820   2.818  24.732  0.00  0.00    +0.101 C 
ATOM     18  C   UNL     1      -1.930   1.820  24.490  0.00  0.00    +0.327 C 
ATOM     19  O   UNL     1      -2.661   2.156  24.678  0.00  0.00    -0.250 OA
ATOM     20  N   UNL     1      -1.891   1.044  24.215  0.00  0.00    -0.162 NA
ATOM     29  C   UNL     1      -1.413   3.350  24.976  0.00  0.00    +0.110 C 
ATOM     30  N   UNL     1      -1.924   2.929  24.877  0.00  0.00    -0.298 N 
ATOM     31  C   UNL     1      -2.695   2.637  24.849  0.00  0.00    +0.276 A 
ATOM     32  O   UNL     1      -3.077   1.936  24.641  0.00  0.00    -0.266 OA
ENDROOT
BRANCH  20  21
ATOM     21  C   UNL     1      -1.161   0.709  24.028  0.00  0.00    +0.075 A 
ATOM     22  C   UNL     1      -0.842   0.810  23.274  0.00  0.00    +0.020 A 
ATOM     23  C   UNL     1      -0.113   0.475  23.085  0.00  0.00    +0.038 A 
ATOM     24  C   UNL     1       0.299   0.038  23.652  0.00  0.00    +0.139 A 
ATOM     27  C   UNL     1      -0.020  -0.063  24.406  0.00  0.00    +0.038 A 
ATOM     28  C   UNL     1      -0.750   0.272  24.594  0.00  0.00    +0.020 A 
BRANCH  24  25
ATOM     25  O   UNL     1       1.029  -0.298  23.464  0.00  0.00    -0.471 OA
ATOM     26  C   UNL     1       1.403  -0.101  22.755  0.00  0.00    +0.252 C 
ENDBRANCH  24  25
ENDBRANCH  20  21
BRANCH   8   7
ATOM      5  C   UNL     1      -4.701   3.220  25.449  0.00  0.00    +0.248 C 
ATOM      6  O   UNL     1      -4.534   3.906  25.876  0.00  0.00    -0.273 OA
ATOM      7  N   UNL     1      -4.096   2.825  25.050  0.00  0.00    -0.174 NA
BRANCH   5   4
ATOM      4  C   UNL     1      -5.472   2.930  25.422  0.00  0.00    +0.119 C 
BRANCH   4   3
ATOM      3  C   UNL     1      -5.814   2.602  26.098  0.00  0.00    +0.152 C 
BRANCH   3   2
ATOM      1  C   UNL     1      -6.638   1.600  26.695  0.00  0.00    +0.174 C 
ATOM      2  O   UNL     1      -6.381   2.007  26.027  0.00  0.00    -0.351 OA
ENDBRANCH   3   2
ENDBRANCH   4   3
ENDBRANCH   5   4
ENDBRANCH   8   7
TORSDOF 6
ENDMDL
