MODEL 1
REMARK VINA RESULT:      -9.3      0.000      0.000
REMARK  Name = 
REMARK  9 active torsions:
REMARK  status: ('A' for Active; 'I' for Inactive)
REMARK    1  A    between atoms: C_2  and  C_4
REMARK    2  A    between atoms: C_6  and  C_7
REMARK    3  A    between atoms: C_7  and  C_8
REMARK    4  A    between atoms: C_11  and  C_13
REMARK    5  A    between atoms: C_20  and  C_21
REMARK    6  A    between atoms: C_21  and  N_22
REMARK    7  A    between atoms: N_22  and  C_23
REMARK    8  A    between atoms: C_23  and  C_24
REMARK    9  A    between atoms: C_27  and  C_30
REMARK                            x       y       z     vdW  Elec       q    Type
REMARK                         _______ _______ _______ _____ _____    ______ ____
ROOT
ATOM      4  C   UNL     1      -0.704   0.484  24.187  0.00  0.00    +0.006 C 
ATOM      5  C   UNL     1      -1.241   0.158  24.722  0.00  0.00    +0.005 C 
ATOM      6  C   UNL     1      -1.110  -0.595  25.031  0.00  0.00    +0.027 C 
ATOM     17  C   UNL     1      -0.441  -1.022  24.807  0.00  0.00    -0.048 C 
ATOM     18  C   UNL     1      -0.309  -1.776  25.117  0.00  0.00    +0.026 C 
ATOM     19  C   UNL     1       0.097  -0.696  24.272  0.00  0.00    -0.033 C 
ATOM     20  C   UNL     1      -0.035   0.056  23.962  0.00  0.00    +0.039 C 
ENDROOT
BRANCH   4   2
ATOM      1  C   UNL     1      -1.283   1.327  23.190  0.00  0.00    +0.000 C 
ATOM      2  C   UNL     1      -0.836   1.237  23.877  0.00  0.00    +0.000 C 
ATOM      3  C   UNL     1      -0.521   1.899  24.255  0.00  0.00    +0.000 C 
ENDBRANCH   4   2
BRANCH   6   7
ATOM      7  C   UNL     1      -1.647  -0.921  25.566  0.00  0.00    +0.091 C 
BRANCH   7   8
ATOM      8  C   UNL     1      -2.432  -1.042  25.341  0.00  0.00    +0.226 A 
ATOM      9  N   UNL     1      -3.088  -0.637  25.633  0.00  0.00    -0.112 NA
ATOM     10  N   UNL     1      -3.760  -0.934  25.257  0.00  0.00    -0.112 NA
ATOM     11  C   UNL     1      -3.518  -1.523  24.732  0.00  0.00    +0.225 A 
ATOM     12  O   UNL     1      -2.697  -1.590  24.784  0.00  0.00    -0.423 OA
BRANCH  11  13
ATOM     13  C   UNL     1      -4.011  -1.967  24.241  0.00  0.00    +0.070 C 
ATOM     14  C   UNL     1      -4.502  -2.411  23.751  0.00  0.00    +0.009 C 
ATOM     15  C   UNL     1      -3.687  -2.662  24.546  0.00  0.00    +0.009 C 
ATOM     16  C   UNL     1      -4.333  -1.272  23.936  0.00  0.00    +0.009 C 
ENDBRANCH  11  13
ENDBRANCH   7   8
ENDBRANCH   6   7
BRANCH  20  21
ATOM     21  C   UNL     1       0.502   0.382  23.428  0.00  0.00    +0.093 C 
BRANCH  21  22
ATOM     22  N   UNL     1       1.254   0.054  23.345  0.00  0.00    -0.213 NA
BRANCH  22  23
ATOM     23  C   UNL     1       1.754   0.315  22.744  0.00  0.00    +0.115 C 
BRANCH  23  24
ATOM     24  C   UNL     1       2.573   0.285  22.846  0.00  0.00    -0.005 A 
ATOM     25  C   UNL     1       3.023   0.972  22.767  0.00  0.00    -0.002 A 
ATOM     26  C   UNL     1       3.842   0.943  22.869  0.00  0.00    +0.010 A 
ATOM     27  C   UNL     1       4.209   0.226  23.051  0.00  0.00    +0.068 A 
ATOM     28  C   UNL     1       3.758  -0.460  23.130  0.00  0.00    +0.010 A 
ATOM     29  C   UNL     1       2.940  -0.430  23.028  0.00  0.00    -0.002 A 
BRANCH  27  30
ATOM     30  C   UNL     1       5.027   0.197  23.153  0.00  0.00    +0.100 C 
ATOM     31  N   UNL     1       5.846   0.167  23.255  0.00  0.00    -0.191 NA
ENDBRANCH  27  30
ENDBRANCH  23  24
ENDBRANCH  22  23
ENDBRANCH  21  22
ENDBRANCH  20  21
TORSDOF 9
ENDMDL
MODEL 2
REMARK VINA RESULT:      -9.3      4.136      6.434
REMARK  Name = 
REMARK  9 active torsions:
REMARK  status: ('A' for Active; 'I' for Inactive)
REMARK    1  A    between atoms: C_2  and  C_4
REMARK    2  A    between atoms: C_6  and  C_7
REMARK    3  A    between atoms: C_7  and  C_8
REMARK    4  A    between atoms: C_11  and  C_13
REMARK    5  A    between atoms: C_20  and  C_21
REMARK    6  A    between atoms: C_21  and  N_22
REMARK    7  A    between atoms: N_22  and  C_23
REMARK    8  A    between atoms: C_23  and  C_24
REMARK    9  A    between atoms: C_27  and  C_30
REMARK                            x       y       z     vdW  Elec       q    Type
REMARK                         _______ _______ _______ _____ _____    ______ ____
ROOT
ATOM      4  C   UNL     1      -3.526   2.170  23.969  0.00  0.00    +0.006 C 
ATOM      5  C   UNL     1      -3.417   2.935  24.256  0.00  0.00    +0.005 C 
ATOM      6  C   UNL     1      -3.905   3.226  24.852  0.00  0.00    +0.027 C 
ATOM     17  C   UNL     1      -4.504   2.752  25.164  0.00  0.00    -0.048 C 
ATOM     18  C   UNL     1      -4.993   3.043  25.761  0.00  0.00    +0.026 C 
ATOM     19  C   UNL     1      -4.614   1.985  24.877  0.00  0.00    -0.033 C 
ATOM     20  C   UNL     1      -4.125   1.694  24.280  0.00  0.00    +0.039 C 
ENDROOT
BRANCH   4   2
ATOM      1  C   UNL     1      -3.251   1.974  22.581  0.00  0.00    +0.000 C 
ATOM      2  C   UNL     1      -3.036   1.879  23.372  0.00  0.00    +0.000 C 
ATOM      3  C   UNL     1      -2.334   1.493  23.566  0.00  0.00    +0.000 C 
ENDBRANCH   4   2
BRANCH   6   7
ATOM      7  C   UNL     1      -3.796   3.993  25.139  0.00  0.00    +0.091 C 
BRANCH   7   8
ATOM      8  C   UNL     1      -3.041   4.250  25.352  0.00  0.00    +0.226 A 
ATOM      9  N   UNL     1      -2.710   4.208  26.106  0.00  0.00    -0.112 NA
ATOM     10  N   UNL     1      -1.949   4.526  26.068  0.00  0.00    -0.112 NA
ATOM     11  C   UNL     1      -1.811   4.765  25.290  0.00  0.00    +0.225 A 
ATOM     12  O   UNL     1      -2.486   4.594  24.847  0.00  0.00    -0.423 OA
BRANCH  11  13
ATOM     13  C   UNL     1      -1.120   5.113  25.005  0.00  0.00    +0.070 C 
ATOM     14  C   UNL     1      -0.429   5.460  24.720  0.00  0.00    +0.009 C 
ATOM     15  C   UNL     1      -0.730   4.388  25.067  0.00  0.00    +0.009 C 
ATOM     16  C   UNL     1      -1.510   5.837  24.943  0.00  0.00    +0.009 C 
ENDBRANCH  11  13
ENDBRANCH   7   8
ENDBRANCH   6   7
BRANCH  20  21
ATOM     21  C   UNL     1      -4.234   0.929  23.994  0.00  0.00    +0.093 C 
BRANCH  21  22
ATOM     22  N   UNL     1      -4.341   0.302  24.520  0.00  0.00    -0.213 NA
BRANCH  22  23
ATOM     23  C   UNL     1      -4.703  -0.393  24.264  0.00  0.00    +0.115 C 
BRANCH  23  24
ATOM     24  C   UNL     1      -4.321  -1.119  24.365  0.00  0.00    -0.005 A 
ATOM     25  C   UNL     1      -3.922  -1.280  25.069  0.00  0.00    -0.002 A 
ATOM     26  C   UNL     1      -3.541  -2.005  25.170  0.00  0.00    +0.010 A 
ATOM     27  C   UNL     1      -3.559  -2.568  24.567  0.00  0.00    +0.068 A 
ATOM     28  C   UNL     1      -3.958  -2.406  23.864  0.00  0.00    +0.010 A 
ATOM     29  C   UNL     1      -4.339  -1.681  23.763  0.00  0.00    -0.002 A 
BRANCH  27  30
ATOM     30  C   UNL     1      -3.179  -3.292  24.668  0.00  0.00    +0.100 C 
ATOM     31  N   UNL     1      -2.797  -4.018  24.769  0.00  0.00    -0.191 NA
ENDBRANCH  27  30
ENDBRANCH  23  24
ENDBRANCH  22  23
ENDBRANCH  21  22
ENDBRANCH  20  21
TORSDOF 9
ENDMDL
MODEL 3
REMARK VINA RESULT:      -9.2      4.179      6.303
REMARK  Name = 
REMARK  9 active torsions:
REMARK  status: ('A' for Active; 'I' for Inactive)
REMARK    1  A    between atoms: C_2  and  C_4
REMARK    2  A    between atoms: C_6  and  C_7
REMARK    3  A    between atoms: C_7  and  C_8
REMARK    4  A    between atoms: C_11  and  C_13
REMARK    5  A    between atoms: C_20  and  C_21
REMARK    6  A    between atoms: C_21  and  N_22
REMARK    7  A    between atoms: N_22  and  C_23
REMARK    8  A    between atoms: C_23  and  C_24
REMARK    9  A    between atoms: C_27  and  C_30
REMARK                            x       y       z     vdW  Elec       q    Type
REMARK                         _______ _______ _______ _____ _____    ______ ____
ROOT
ATOM      4  C   UNL     1      -4.946   2.117  24.963  0.00  0.00    +0.006 C 
ATOM      5  C   UNL     1      -4.640   2.866  24.801  0.00  0.00    +0.005 C 
ATOM      6  C   UNL     1      -4.062   2.959  24.221  0.00  0.00    +0.027 C 
ATOM     17  C   UNL     1      -3.789   2.303  23.802  0.00  0.00    -0.048 C 
ATOM     18  C   UNL     1      -3.210   2.397  23.221  0.00  0.00    +0.026 C 
ATOM     19  C   UNL     1      -4.095   1.554  23.963  0.00  0.00    -0.033 C 
ATOM     20  C   UNL     1      -4.672   1.461  24.543  0.00  0.00    +0.039 C 
ENDROOT
BRANCH   4   2
ATOM      1  C   UNL     1      -5.305   1.933  26.333  0.00  0.00    +0.000 C 
ATOM      2  C   UNL     1      -5.525   2.024  25.543  0.00  0.00    +0.000 C 
ATOM      3  C   UNL     1      -6.322   2.022  25.334  0.00  0.00    +0.000 C 
ENDBRANCH   4   2
BRANCH   6   7
ATOM      7  C   UNL     1      -3.757   3.709  24.059  0.00  0.00    +0.091 C 
BRANCH   7   8
ATOM      8  C   UNL     1      -3.193   4.042  24.561  0.00  0.00    +0.226 A 
ATOM      9  N   UNL     1      -3.349   4.483  25.240  0.00  0.00    -0.112 NA
ATOM     10  N   UNL     1      -2.627   4.706  25.572  0.00  0.00    -0.112 NA
ATOM     11  C   UNL     1      -2.024   4.402  25.097  0.00  0.00    +0.225 A 
ATOM     12  O   UNL     1      -2.374   3.992  24.472  0.00  0.00    -0.423 OA
BRANCH  11  13
ATOM     13  C   UNL     1      -1.214   4.493  25.224  0.00  0.00    +0.070 C 
ATOM     14  C   UNL     1      -0.405   4.583  25.351  0.00  0.00    +0.009 C 
ATOM     15  C   UNL     1      -1.185   3.744  25.570  0.00  0.00    +0.009 C 
ATOM     16  C   UNL     1      -1.244   5.241  24.878  0.00  0.00    +0.009 C 
ENDBRANCH  11  13
ENDBRANCH   7   8
ENDBRANCH   6   7
BRANCH  20  21
ATOM     21  C   UNL     1      -4.978   0.712  24.705  0.00  0.00    +0.093 C 
BRANCH  21  22
ATOM     22  N   UNL     1      -4.640   0.044  24.359  0.00  0.00    -0.213 NA
BRANCH  22  23
ATOM     23  C   UNL     1      -4.704  -0.690  24.730  0.00  0.00    +0.115 C 
BRANCH  23  24
ATOM     24  C   UNL     1      -4.097  -1.245  24.654  0.00  0.00    -0.005 A 
ATOM     25  C   UNL     1      -3.519  -1.307  25.239  0.00  0.00    -0.002 A 
ATOM     26  C   UNL     1      -2.913  -1.862  25.163  0.00  0.00    +0.010 A 
ATOM     27  C   UNL     1      -2.885  -2.355  24.502  0.00  0.00    +0.068 A 
ATOM     28  C   UNL     1      -3.464  -2.292  23.917  0.00  0.00    +0.010 A 
ATOM     29  C   UNL     1      -4.070  -1.737  23.993  0.00  0.00    -0.002 A 
BRANCH  27  30
ATOM     30  C   UNL     1      -2.280  -2.909  24.426  0.00  0.00    +0.100 C 
ATOM     31  N   UNL     1      -1.674  -3.464  24.349  0.00  0.00    -0.191 NA
ENDBRANCH  27  30
ENDBRANCH  23  24
ENDBRANCH  22  23
ENDBRANCH  21  22
ENDBRANCH  20  21
TORSDOF 9
ENDMDL
MODEL 4
REMARK VINA RESULT:      -8.9      2.249      4.033
REMARK  Name = 
REMARK  9 active torsions:
REMARK  status: ('A' for Active; 'I' for Inactive)
REMARK    1  A    between atoms: C_2  and  C_4
REMARK    2  A    between atoms: C_6  and  C_7
REMARK    3  A    between atoms: C_7  and  C_8
REMARK    4  A    between atoms: C_11  and  C_13
REMARK    5  A    between atoms: C_20  and  C_21
REMARK    6  A    between atoms: C_21  and  N_22
REMARK    7  A    between atoms: N_22  and  C_23
REMARK    8  A    between atoms: C_23  and  C_24
REMARK    9  A    between atoms: C_27  and  C_30
REMARK                            x       y       z     vdW  Elec       q    Type
REMARK                         _______ _______ _______ _____ _____    ______ ____
ROOT
ATOM      4  C   UNL     1      -0.437  -0.025  24.403  0.00  0.00    +0.006 C 
ATOM      5  C   UNL     1      -0.696  -0.802  24.491  0.00  0.00    +0.005 C 
ATOM      6  C   UNL     1      -1.029  -1.048  25.204  0.00  0.00    +0.027 C 
ATOM     17  C   UNL     1      -1.103  -0.516  25.830  0.00  0.00    -0.048 C 
ATOM     18  C   UNL     1      -1.436  -0.762  26.544  0.00  0.00    +0.026 C 
ATOM     19  C   UNL     1      -0.843   0.263  25.742  0.00  0.00    -0.033 C 
ATOM     20  C   UNL     1      -0.510   0.508  25.029  0.00  0.00    +0.039 C 
ENDROOT
BRANCH   4   2
ATOM      1  C   UNL     1      -0.574   0.590  23.120  0.00  0.00    +0.000 C 
ATOM      2  C   UNL     1      -0.104   0.221  23.689  0.00  0.00    +0.000 C 
ATOM      3  C   UNL     1       0.699   0.099  23.545  0.00  0.00    +0.000 C 
ENDBRANCH   4   2
BRANCH   6   7
ATOM      7  C   UNL     1      -1.288  -1.827  25.292  0.00  0.00    +0.091 C 
BRANCH   7   8
ATOM      8  C   UNL     1      -1.876  -2.124  24.795  0.00  0.00    +0.226 A 
ATOM      9  N   UNL     1      -1.772  -2.690  24.204  0.00  0.00    -0.112 NA
ATOM     10  N   UNL     1      -2.504  -2.824  23.846  0.00  0.00    -0.112 NA
ATOM     11  C   UNL     1      -3.060  -2.340  24.217  0.00  0.00    +0.225 A 
ATOM     12  O   UNL     1      -2.673  -1.908  24.803  0.00  0.00    -0.423 OA
BRANCH  11  13
ATOM     13  C   UNL     1      -3.863  -2.297  24.033  0.00  0.00    +0.070 C 
ATOM     14  C   UNL     1      -4.666  -2.254  23.850  0.00  0.00    +0.009 C 
ATOM     15  C   UNL     1      -3.958  -3.084  24.265  0.00  0.00    +0.009 C 
ATOM     16  C   UNL     1      -3.768  -1.511  23.802  0.00  0.00    +0.009 C 
ENDBRANCH  11  13
ENDBRANCH   7   8
ENDBRANCH   6   7
BRANCH  20  21
ATOM     21  C   UNL     1      -0.251   1.286  24.941  0.00  0.00    +0.093 C 
BRANCH  21  22
ATOM     22  N   UNL     1      -0.633   1.897  25.342  0.00  0.00    -0.213 NA
BRANCH  22  23
ATOM     23  C   UNL     1      -0.235   2.603  25.494  0.00  0.00    +0.115 C 
BRANCH  23  24
ATOM     24  C   UNL     1      -0.626   3.325  25.404  0.00  0.00    -0.005 A 
ATOM     25  C   UNL     1      -1.350   3.451  25.779  0.00  0.00    -0.002 A 
ATOM     26  C   UNL     1      -1.741   4.172  25.689  0.00  0.00    +0.010 A 
ATOM     27  C   UNL     1      -1.407   4.767  25.224  0.00  0.00    +0.068 A 
ATOM     28  C   UNL     1      -0.684   4.640  24.849  0.00  0.00    +0.010 A 
ATOM     29  C   UNL     1      -0.293   3.919  24.938  0.00  0.00    -0.002 A 
BRANCH  27  30
ATOM     30  C   UNL     1      -1.798   5.487  25.134  0.00  0.00    +0.100 C 
ATOM     31  N   UNL     1      -2.189   6.209  25.044  0.00  0.00    -0.191 NA
ENDBRANCH  27  30
ENDBRANCH  23  24
ENDBRANCH  22  23
ENDBRANCH  21  22
ENDBRANCH  20  21
TORSDOF 9
ENDMDL
MODEL 5
REMARK VINA RESULT:      -8.7      2.338      3.120
REMARK  Name = 
REMARK  9 active torsions:
REMARK  status: ('A' for Active; 'I' for Inactive)
REMARK    1  A    between atoms: C_2  and  C_4
REMARK    2  A    between atoms: C_6  and  C_7
REMARK    3  A    between atoms: C_7  and  C_8
REMARK    4  A    between atoms: C_11  and  C_13
REMARK    5  A    between atoms: C_20  and  C_21
REMARK    6  A    between atoms: C_21  and  N_22
REMARK    7  A    between atoms: N_22  and  C_23
REMARK    8  A    between atoms: C_23  and  C_24
REMARK    9  A    between atoms: C_27  and  C_30
REMARK                            x       y       z     vdW  Elec       q    Type
REMARK                         _______ _______ _______ _____ _____    ______ ____
ROOT
ATOM      4  C   UNL     1      -1.763   0.808  24.727  0.00  0.00    +0.006 C 
ATOM      5  C   UNL     1      -2.274   1.400  24.990  0.00  0.00    +0.005 C 
ATOM      6  C   UNL     1      -2.124   2.188  24.804  0.00  0.00    +0.027 C 
ATOM     17  C   UNL     1      -1.462   2.387  24.354  0.00  0.00    -0.048 C 
ATOM     18  C   UNL     1      -1.311   3.177  24.167  0.00  0.00    +0.026 C 
ATOM     19  C   UNL     1      -0.949   1.796  24.090  0.00  0.00    -0.033 C 
ATOM     20  C   UNL     1      -1.100   1.007  24.277  0.00  0.00    +0.039 C 
ENDROOT
BRANCH   4   2
ATOM      1  C   UNL     1      -1.603  -0.307  25.605  0.00  0.00    +0.000 C 
ATOM      2  C   UNL     1      -1.913   0.019  24.914  0.00  0.00    +0.000 C 
ATOM      3  C   UNL     1      -2.374  -0.443  24.410  0.00  0.00    +0.000 C 
ENDBRANCH   4   2
BRANCH   6   7
ATOM      7  C   UNL     1      -2.636   2.780  25.067  0.00  0.00    +0.091 C 
BRANCH   7   8
ATOM      8  C   UNL     1      -3.441   2.736  24.893  0.00  0.00    +0.226 A 
ATOM      9  N   UNL     1      -3.793   2.932  24.173  0.00  0.00    -0.112 NA
ATOM     10  N   UNL     1      -4.606   2.806  24.243  0.00  0.00    -0.112 NA
ATOM     11  C   UNL     1      -4.756   2.532  25.007  0.00  0.00    +0.225 A 
ATOM     12  O   UNL     1      -4.036   2.489  25.409  0.00  0.00    -0.423 OA
BRANCH  11  13
ATOM     13  C   UNL     1      -5.495   2.336  25.315  0.00  0.00    +0.070 C 
ATOM     14  C   UNL     1      -6.234   2.139  25.622  0.00  0.00    +0.009 C 
ATOM     15  C   UNL     1      -5.506   1.652  24.853  0.00  0.00    +0.009 C 
ATOM     16  C   UNL     1      -5.485   3.019  25.776  0.00  0.00    +0.009 C 
ENDBRANCH  11  13
ENDBRANCH   7   8
ENDBRANCH   6   7
BRANCH  20  21
ATOM     21  C   UNL     1      -0.588   0.416  24.014  0.00  0.00    +0.093 C 
BRANCH  21  22
ATOM     22  N   UNL     1       0.129   0.617  23.660  0.00  0.00    -0.213 NA
BRANCH  22  23
ATOM     23  C   UNL     1       0.553   0.051  23.237  0.00  0.00    +0.115 C 
BRANCH  23  24
ATOM     24  C   UNL     1       1.348   0.182  23.054  0.00  0.00    -0.005 A 
ATOM     25  C   UNL     1       1.705  -0.242  22.443  0.00  0.00    -0.002 A 
ATOM     26  C   UNL     1       2.499  -0.111  22.260  0.00  0.00    +0.010 A 
ATOM     27  C   UNL     1       2.936   0.443  22.689  0.00  0.00    +0.068 A 
ATOM     28  C   UNL     1       2.577   0.866  23.300  0.00  0.00    +0.010 A 
ATOM     29  C   UNL     1       1.783   0.735  23.483  0.00  0.00    -0.002 A 
BRANCH  27  30
ATOM     30  C   UNL     1       3.729   0.574  22.507  0.00  0.00    +0.100 C 
ATOM     31  N   UNL     1       4.524   0.704  22.325  0.00  0.00    -0.191 NA
ENDBRANCH  27  30
ENDBRANCH  23  24
ENDBRANCH  22  23
ENDBRANCH  21  22
ENDBRANCH  20  21
TORSDOF 9
ENDMDL
MODEL 6
REMARK VINA RESULT:      -8.6      2.505      4.948
REMARK  Name = 
REMARK  9 active torsions:
REMARK  status: ('A' for Active; 'I' for Inactive)
REMARK    1  A    between atoms: C_2  and  C_4
REMARK    2  A    between atoms: C_6  and  C_7
REMARK    3  A    between atoms: C_7  and  C_8
REMARK    4  A    between atoms: C_11  and  C_13
REMARK    5  A    between atoms: C_20  and  C_21
REMARK    6  A    between atoms: C_21  and  N_22
REMARK    7  A    between atoms: N_22  and  C_23
REMARK    8  A    between atoms: C_23  and  C_24
REMARK    9  A    between atoms: C_27  and  C_30
REMARK                            x       y       z     vdW  Elec       q    Type
REMARK                         _______ _______ _______ _____ _____    ______ ____
ROOT
ATOM      4  C   UNL     1      -0.696   0.611  24.428  0.00  0.00    +0.006 C 
ATOM      5  C   UNL     1      -0.690  -0.209  24.520  0.00  0.00    +0.005 C 
ATOM      6  C   UNL     1      -0.961  -0.547  25.221  0.00  0.00    +0.027 C 
ATOM     17  C   UNL     1      -1.238  -0.067  25.831  0.00  0.00    -0.048 C 
ATOM     18  C   UNL     1      -1.509  -0.406  26.533  0.00  0.00    +0.026 C 
ATOM     19  C   UNL     1      -1.244   0.754  25.740  0.00  0.00    -0.033 C 
ATOM     20  C   UNL     1      -0.974   1.092  25.039  0.00  0.00    +0.039 C 
ENDROOT
BRANCH   4   2
ATOM      1  C   UNL     1       0.351   1.227  23.676  0.00  0.00    +0.000 C 
ATOM      2  C   UNL     1      -0.425   0.950  23.726  0.00  0.00    +0.000 C 
ATOM      3  C   UNL     1      -0.929   1.012  23.077  0.00  0.00    +0.000 C 
ENDBRANCH   4   2
BRANCH   6   7
ATOM      7  C   UNL     1      -0.954  -1.368  25.312  0.00  0.00    +0.091 C 
BRANCH   7   8
ATOM      8  C   UNL     1      -1.480  -1.835  24.880  0.00  0.00    +0.226 A 
ATOM      9  N   UNL     1      -1.276  -2.387  24.302  0.00  0.00    -0.112 NA
ATOM     10  N   UNL     1      -1.972  -2.726  24.016  0.00  0.00    -0.112 NA
ATOM     11  C   UNL     1      -2.606  -2.383  24.417  0.00  0.00    +0.225 A 
ATOM     12  O   UNL     1      -2.302  -1.832  24.951  0.00  0.00    -0.423 OA
BRANCH  11  13
ATOM     13  C   UNL     1      -3.403  -2.559  24.303  0.00  0.00    +0.070 C 
ATOM     14  C   UNL     1      -4.201  -2.735  24.190  0.00  0.00    +0.009 C 
ATOM     15  C   UNL     1      -3.469  -1.924  23.780  0.00  0.00    +0.009 C 
ATOM     16  C   UNL     1      -3.338  -3.193  24.826  0.00  0.00    +0.009 C 
ENDBRANCH  11  13
ENDBRANCH   7   8
ENDBRANCH   6   7
BRANCH  20  21
ATOM     21  C   UNL     1      -0.980   1.912  24.947  0.00  0.00    +0.093 C 
BRANCH  21  22
ATOM     22  N   UNL     1      -1.506   2.373  25.384  0.00  0.00    -0.213 NA
BRANCH  22  23
ATOM     23  C   UNL     1      -1.772   3.092  25.082  0.00  0.00    +0.115 C 
BRANCH  23  24
ATOM     24  C   UNL     1      -2.556   3.325  25.200  0.00  0.00    -0.005 A 
ATOM     25  C   UNL     1      -3.105   3.249  24.588  0.00  0.00    -0.002 A 
ATOM     26  C   UNL     1      -3.888   3.481  24.706  0.00  0.00    +0.010 A 
ATOM     27  C   UNL     1      -4.122   3.789  25.435  0.00  0.00    +0.068 A 
ATOM     28  C   UNL     1      -3.573   3.865  26.046  0.00  0.00    +0.010 A 
ATOM     29  C   UNL     1      -2.790   3.632  25.928  0.00  0.00    -0.002 A 
BRANCH  27  30
ATOM     30  C   UNL     1      -4.904   4.021  25.552  0.00  0.00    +0.100 C 
ATOM     31  N   UNL     1      -5.688   4.254  25.670  0.00  0.00    -0.191 NA
ENDBRANCH  27  30
ENDBRANCH  23  24
ENDBRANCH  22  23
ENDBRANCH  21  22
ENDBRANCH  20  21
TORSDOF 9
ENDMDL
MODEL 7
REMARK VINA RESULT:      -8.5      3.029      4.560
REMARK  Name = 
REMARK  9 active torsions:
REMARK  status: ('A' for Active; 'I' for Inactive)
REMARK    1  A    between atoms: C_2  and  C_4
REMARK    2  A    between atoms: C_6  and  C_7
REMARK    3  A    between atoms: C_7  and  C_8
REMARK    4  A    between atoms: C_11  and  C_13
REMARK    5  A    between atoms: C_20  and  C_21
REMARK    6  A    between atoms: C_21  and  N_22
REMARK    7  A    between atoms: N_22  and  C_23
REMARK    8  A    between atoms: C_23  and  C_24
REMARK    9  A    between atoms: C_27  and  C_30
REMARK                            x       y       z     vdW  Elec       q    Type
REMARK                         _______ _______ _______ _____ _____    ______ ____
ROOT
ATOM      4  C   UNL     1      -1.997   3.266  24.760  0.00  0.00    +0.006 C 
ATOM      5  C   UNL     1      -2.762   3.548  24.637  0.00  0.00    +0.005 C 
ATOM      6  C   UNL     1      -3.236   3.215  24.051  0.00  0.00    +0.027 C 
ATOM     17  C   UNL     1      -2.945   2.599  23.586  0.00  0.00    -0.048 C 
ATOM     18  C   UNL     1      -3.419   2.265  22.999  0.00  0.00    +0.026 C 
ATOM     19  C   UNL     1      -2.179   2.316  23.708  0.00  0.00    -0.033 C 
ATOM     20  C   UNL     1      -1.705   2.649  24.294  0.00  0.00    +0.039 C 
ENDROOT
BRANCH   4   2
ATOM      1  C   UNL     1      -1.602   3.353  26.130  0.00  0.00    +0.000 C 
ATOM      2  C   UNL     1      -1.522   3.599  25.347  0.00  0.00    +0.000 C 
ATOM      3  C   UNL     1      -0.969   4.178  25.150  0.00  0.00    +0.000 C 
ENDBRANCH   4   2
BRANCH   6   7
ATOM      7  C   UNL     1      -4.002   3.498  23.929  0.00  0.00    +0.091 C 
BRANCH   7   8
ATOM      8  C   UNL     1      -4.578   3.391  24.509  0.00  0.00    +0.226 A 
ATOM      9  N   UNL     1      -4.905   3.982  24.982  0.00  0.00    -0.112 NA
ATOM     10  N   UNL     1      -5.459   3.631  25.484  0.00  0.00    -0.112 NA
ATOM     11  C   UNL     1      -5.474   2.822  25.320  0.00  0.00    +0.225 A 
ATOM     12  O   UNL     1      -4.929   2.674  24.718  0.00  0.00    -0.423 OA
BRANCH  11  13
ATOM     13  C   UNL     1      -5.949   2.261  25.693  0.00  0.00    +0.070 C 
ATOM     14  C   UNL     1      -6.423   1.700  26.067  0.00  0.00    +0.009 C 
ATOM     15  C   UNL     1      -5.670   2.514  26.428  0.00  0.00    +0.009 C 
ATOM     16  C   UNL     1      -6.227   2.009  24.959  0.00  0.00    +0.009 C 
ENDBRANCH  11  13
ENDBRANCH   7   8
ENDBRANCH   6   7
BRANCH  20  21
ATOM     21  C   UNL     1      -0.940   2.367  24.417  0.00  0.00    +0.093 C 
BRANCH  21  22
ATOM     22  N   UNL     1      -0.727   1.618  24.142  0.00  0.00    -0.213 NA
BRANCH  22  23
ATOM     23  C   UNL     1      -0.241   1.134  24.600  0.00  0.00    +0.115 C 
BRANCH  23  24
ATOM     24  C   UNL     1      -0.408   0.328  24.668  0.00  0.00    -0.005 A 
ATOM     25  C   UNL     1      -0.214  -0.186  24.053  0.00  0.00    -0.002 A 
ATOM     26  C   UNL     1      -0.380  -0.991  24.121  0.00  0.00    +0.010 A 
ATOM     27  C   UNL     1      -0.742  -1.282  24.804  0.00  0.00    +0.068 A 
ATOM     28  C   UNL     1      -0.936  -0.767  25.418  0.00  0.00    +0.010 A 
ATOM     29  C   UNL     1      -0.769   0.039  25.350  0.00  0.00    -0.002 A 
BRANCH  27  30
ATOM     30  C   UNL     1      -0.908  -2.086  24.872  0.00  0.00    +0.100 C 
ATOM     31  N   UNL     1      -1.075  -2.892  24.941  0.00  0.00    -0.191 NA
ENDBRANCH  27  30
ENDBRANCH  23  24
ENDBRANCH  22  23
ENDBRANCH  21  22
ENDBRANCH  20  21
TORSDOF 9
ENDMDL
MODEL 8
REMARK VINA RESULT:      -8.2      4.091      5.071
REMARK  Name = 
REMARK  9 active torsions:
REMARK  status: ('A' for Active; 'I' for Inactive)
REMARK    1  A    between atoms: C_2  and  C_4
REMARK    2  A    between atoms: C_6  and  C_7
REMARK    3  A    between atoms: C_7  and  C_8
REMARK    4  A    between atoms: C_11  and  C_13
REMARK    5  A    between atoms: C_20  and  C_21
REMARK    6  A    between atoms: C_21  and  N_22
REMARK    7  A    between atoms: N_22  and  C_23
REMARK    8  A    between atoms: C_23  and  C_24
REMARK    9  A    between atoms: C_27  and  C_30
REMARK                            x       y       z     vdW  Elec       q    Type
REMARK                         _______ _______ _______ _____ _____    ______ ____
ROOT
ATOM      4  C   UNL     1      -4.725   1.084  24.799  0.00  0.00    +0.006 C 
ATOM      5  C   UNL     1      -4.674   0.379  24.375  0.00  0.00    +0.005 C 
ATOM      6  C   UNL     1      -4.064   0.267  23.832  0.00  0.00    +0.027 C 
ATOM     17  C   UNL     1      -3.505   0.861  23.711  0.00  0.00    -0.048 C 
ATOM     18  C   UNL     1      -2.894   0.750  23.167  0.00  0.00    +0.026 C 
ATOM     19  C   UNL     1      -3.556   1.568  24.135  0.00  0.00    -0.033 C 
ATOM     20  C   UNL     1      -4.165   1.679  24.678  0.00  0.00    +0.039 C 
ENDROOT
BRANCH   4   2
ATOM      1  C   UNL     1      -5.253   0.921  26.116  0.00  0.00    +0.000 C 
ATOM      2  C   UNL     1      -5.335   1.196  25.343  0.00  0.00    +0.000 C 
ATOM      3  C   UNL     1      -6.026   1.582  25.113  0.00  0.00    +0.000 C 
ENDBRANCH   4   2
BRANCH   6   7
ATOM      7  C   UNL     1      -4.013  -0.439  23.408  0.00  0.00    +0.091 C 
BRANCH   7   8
ATOM      8  C   UNL     1      -3.896  -1.152  23.806  0.00  0.00    +0.226 A 
ATOM      9  N   UNL     1      -4.447  -1.761  23.882  0.00  0.00    -0.112 NA
ATOM     10  N   UNL     1      -4.100  -2.367  24.322  0.00  0.00    -0.112 NA
ATOM     11  C   UNL     1      -3.333  -2.132  24.517  0.00  0.00    +0.225 A 
ATOM     12  O   UNL     1      -3.207  -1.381  24.199  0.00  0.00    -0.423 OA
BRANCH  11  13
ATOM     13  C   UNL     1      -2.788  -2.571  24.954  0.00  0.00    +0.070 C 
ATOM     14  C   UNL     1      -2.244  -3.009  25.391  0.00  0.00    +0.009 C 
ATOM     15  C   UNL     1      -2.291  -2.607  24.297  0.00  0.00    +0.009 C 
ATOM     16  C   UNL     1      -3.286  -2.534  25.611  0.00  0.00    +0.009 C 
ENDBRANCH  11  13
ENDBRANCH   7   8
ENDBRANCH   6   7
BRANCH  20  21
ATOM     21  C   UNL     1      -4.217   2.385  25.102  0.00  0.00    +0.093 C 
BRANCH  21  22
ATOM     22  N   UNL     1      -3.724   3.018  24.912  0.00  0.00    -0.213 NA
BRANCH  22  23
ATOM     23  C   UNL     1      -3.422   3.500  25.509  0.00  0.00    +0.115 C 
BRANCH  23  24
ATOM     24  C   UNL     1      -2.755   3.965  25.367  0.00  0.00    -0.005 A 
ATOM     25  C   UNL     1      -2.006   3.685  25.571  0.00  0.00    -0.002 A 
ATOM     26  C   UNL     1      -1.339   4.149  25.429  0.00  0.00    +0.010 A 
ATOM     27  C   UNL     1      -1.421   4.894  25.083  0.00  0.00    +0.068 A 
ATOM     28  C   UNL     1      -2.169   5.173  24.879  0.00  0.00    +0.010 A 
ATOM     29  C   UNL     1      -2.836   4.709  25.021  0.00  0.00    -0.002 A 
BRANCH  27  30
ATOM     30  C   UNL     1      -0.755   5.358  24.941  0.00  0.00    +0.100 C 
ATOM     31  N   UNL     1      -0.087   5.823  24.799  0.00  0.00    -0.191 NA
ENDBRANCH  27  30
ENDBRANCH  23  24
ENDBRANCH  22  23
ENDBRANCH  21  22
ENDBRANCH  20  21
TORSDOF 9
ENDMDL
