MODEL 1
REMARK VINA RESULT:      -9.9      0.000      0.000
REMARK  Name = 
REMARK  7 active torsions:
REMARK  status: ('A' for Active; 'I' for Inactive)
REMARK    1  A    between atoms: O_2  and  C_3
REMARK    2  A    between atoms: C_6  and  C_11
REMARK    3  A    between atoms: C_8  and  O_9
REMARK    4  A    between atoms: C_15  and  C_17
REMARK    5  A    between atoms: C_24  and  C_25
REMARK    6  A    between atoms: C_25  and  N_26
REMARK    7  A    between atoms: C_27  and  C_29
REMARK                            x       y       z     vdW  Elec       q    Type
REMARK                         _______ _______ _______ _____ _____    ______ ____
ROOT
ATOM     17  C   UNL     1      -0.412   0.894  23.954  0.00  0.00    +0.056 C 
ATOM     18  C   UNL     1       0.030   1.395  23.555  0.00  0.00    +0.078 C 
ATOM     19  N   UNL     1       0.124   0.576  23.580  0.00  0.00    -0.272 NA
ATOM     20  C   UNL     1      -0.629   0.197  24.204  0.00  0.00    +0.072 C 
ATOM     21  C   UNL     1      -0.927  -0.308  24.492  0.00  0.00    +0.018 C 
ATOM     22  C   UNL     1      -0.313   0.091  23.974  0.00  0.00    +0.010 C 
ATOM     23  C   UNL     1       0.271  -0.440  23.589  0.00  0.00    +0.018 C 
ATOM     24  C   UNL     1       0.728   0.018  23.184  0.00  0.00    +0.079 C 
ENDROOT
BRANCH  17  15
ATOM     11  C   UNL     1      -2.258   1.585  24.776  0.00  0.00    +0.102 A 
ATOM     12  N   UNL     1      -1.728   1.800  25.371  0.00  0.00    -0.170 NA
ATOM     13  N   UNL     1      -0.973   1.567  25.135  0.00  0.00    -0.253 N 
ATOM     14  C   UNL     1      -0.276   1.674  25.565  0.00  0.00    +0.153 C 
ATOM     15  C   UNL     1      -1.035   1.209  24.395  0.00  0.00    +0.058 A 
ATOM     16  C   UNL     1      -1.830   1.219  24.172  0.00  0.00    +0.035 A 
BRANCH  11   6
ATOM      3  C   UNL     1      -4.703   1.970  24.796  0.00  0.00    +0.172 A 
ATOM      4  C   UNL     1      -4.403   1.215  24.939  0.00  0.00    +0.040 A 
ATOM      5  C   UNL     1      -3.588   1.087  24.932  0.00  0.00    +0.005 A 
ATOM      6  C   UNL     1      -3.073   1.713  24.783  0.00  0.00    +0.023 A 
ATOM      7  C   UNL     1      -3.373   2.468  24.640  0.00  0.00    +0.042 A 
ATOM      8  C   UNL     1      -4.188   2.596  24.647  0.00  0.00    +0.172 A 
BRANCH   3   2
ATOM      1  C   UNL     1      -6.019   1.544  25.153  0.00  0.00    +0.253 C 
ATOM      2  O   UNL     1      -5.518   2.098  24.803  0.00  0.00    -0.468 OA
ENDBRANCH   3   2
BRANCH   8   9
ATOM      9  O   UNL     1      -4.488   3.352  24.504  0.00  0.00    -0.468 OA
ATOM     10  C   UNL     1      -3.977   3.967  24.303  0.00  0.00    +0.253 C 
ENDBRANCH   8   9
ENDBRANCH  11   6
ENDBRANCH  17  15
BRANCH  24  25
ATOM     25  C   UNL     1       1.382   0.011  22.682  0.00  0.00    +0.131 C 
BRANCH  25  26
ATOM     26  N   UNL     1       2.142   0.097  22.993  0.00  0.00    -0.200 NA
ATOM     27  C   UNL     1       2.794   0.106  22.489  0.00  0.00    +0.271 C 
ATOM     28  O   UNL     1       2.689   0.029  21.675  0.00  0.00    -0.268 OA
BRANCH  27  29
ATOM     29  C   UNL     1       3.554   0.191  22.800  0.00  0.00    +0.084 A 
ATOM     30  C   UNL     1       3.971  -0.379  23.225  0.00  0.00    +0.012 A 
ATOM     31  C   UNL     1       4.704  -0.060  23.428  0.00  0.00    +0.008 A 
ATOM     32  C   UNL     1       4.741   0.707  23.128  0.00  0.00    +0.036 A 
ATOM     33  S   UNL     1       4.029   0.863  22.740  0.00  0.00    -0.082 S 
ENDBRANCH  27  29
ENDBRANCH  25  26
ENDBRANCH  24  25
TORSDOF 7
ENDMDL
