MODEL 1
REMARK VINA RESULT:     -11.1      0.000      0.000
REMARK  Name = 
REMARK  5 active torsions:
REMARK  status: ('A' for Active; 'I' for Inactive)
REMARK    1  A    between atoms: C_2  and  C_3
REMARK    2  A    between atoms: C_2  and  C_27
REMARK    3  A    between atoms: C_10  and  N_11
REMARK    4  A    between atoms: C_12  and  C_14
REMARK    5  A    between atoms: C_17  and  C_20
REMARK                            x       y       z     vdW  Elec       q    Type
REMARK                         _______ _______ _______ _____ _____    ______ ____
ROOT
ATOM      3  C   UNL     1      -3.445   1.190  24.327  0.00  0.00    +0.039 C 
ATOM      4  C   UNL     1      -3.598   0.505  24.762  0.00  0.00    +0.003 C 
ATOM      5  C   UNL     1      -2.987  -0.024  24.925  0.00  0.00    +0.000 C 
ATOM      6  C   UNL     1      -2.224   0.130  24.655  0.00  0.00    +0.002 C 
ATOM      7  C   UNL     1      -2.377  -0.553  25.089  0.00  0.00    +0.000 C 
ATOM      8  C   UNL     1      -1.613  -0.399  24.818  0.00  0.00    +0.002 C 
ATOM      9  C   UNL     1      -0.850  -0.245  24.547  0.00  0.00    +0.022 C 
ATOM     10  C   UNL     1      -0.697   0.441  24.112  0.00  0.00    +0.096 C 
ATOM     22  C   UNL     1      -1.307   0.970  23.949  0.00  0.00    +0.022 C 
ATOM     23  C   UNL     1      -1.155   1.654  23.514  0.00  0.00    +0.002 C 
ATOM     24  C   UNL     1      -2.071   0.816  24.220  0.00  0.00    +0.032 C 
ATOM     25  C   UNL     1      -2.682   1.345  24.056  0.00  0.00    +0.152 C 
ATOM     26  O   UNL     1      -2.529   2.029  23.622  0.00  0.00    -0.223 OA
ENDROOT
BRANCH  10  11
ATOM     11  N   UNL     1       0.067   0.595  23.842  0.00  0.00    -0.203 NA
ATOM     12  C   UNL     1       0.507  -0.003  23.483  0.00  0.00    +0.265 C 
ATOM     13  O   UNL     1       0.183  -0.758  23.395  0.00  0.00    -0.268 OA
BRANCH  12  14
ATOM     14  C   UNL     1       1.271   0.151  23.212  0.00  0.00    +0.055 A 
ATOM     15  C   UNL     1       1.728   0.734  23.574  0.00  0.00    +0.005 A 
ATOM     16  C   UNL     1       2.492   0.889  23.303  0.00  0.00    +0.010 A 
ATOM     17  C   UNL     1       2.799   0.458  22.670  0.00  0.00    +0.068 A 
ATOM     18  C   UNL     1       2.342  -0.126  22.307  0.00  0.00    +0.010 A 
ATOM     19  C   UNL     1       1.578  -0.279  22.579  0.00  0.00    +0.005 A 
BRANCH  17  20
ATOM     20  C   UNL     1       3.563   0.612  22.398  0.00  0.00    +0.100 C 
ATOM     21  N   UNL     1       4.327   0.765  22.128  0.00  0.00    -0.191 NA
ENDBRANCH  17  20
ENDBRANCH  12  14
ENDBRANCH  10  11
BRANCH   3   2
ATOM      1  C   UNL     1      -3.979   2.265  23.549  0.00  0.00    +0.010 C 
ATOM      2  C   UNL     1      -4.057   1.720  24.164  0.00  0.00    +0.079 C 
BRANCH   2  27
ATOM     27  C   UNL     1      -4.747   1.704  24.616  0.00  0.00    +0.225 C 
ATOM     28  O   UNL     1      -5.189   1.008  24.671  0.00  0.00    -0.275 OA
ATOM     29  N   UNL     1      -4.996   2.383  25.013  0.00  0.00    -0.280 N 
ATOM     30  C   UNL     1      -5.685   2.368  25.464  0.00  0.00    +0.093 C 
ATOM     31  C   UNL     1      -5.935   3.046  25.861  0.00  0.00    +0.022 C 
ATOM     32  C   UNL     1      -5.493   3.741  25.806  0.00  0.00    +0.004 C 
ATOM     33  C   UNL     1      -4.804   3.756  25.355  0.00  0.00    +0.022 C 
ATOM     34  C   UNL     1      -4.554   3.078  24.958  0.00  0.00    +0.093 C 
ENDBRANCH   2  27
ENDBRANCH   3   2
TORSDOF 5
ENDMDL
MODEL 2
REMARK VINA RESULT:     -10.4      3.198      4.965
REMARK  Name = 
REMARK  5 active torsions:
REMARK  status: ('A' for Active; 'I' for Inactive)
REMARK    1  A    between atoms: C_2  and  C_3
REMARK    2  A    between atoms: C_2  and  C_27
REMARK    3  A    between atoms: C_10  and  N_11
REMARK    4  A    between atoms: C_12  and  C_14
REMARK    5  A    between atoms: C_17  and  C_20
REMARK                            x       y       z     vdW  Elec       q    Type
REMARK                         _______ _______ _______ _____ _____    ______ ____
ROOT
ATOM      3  C   UNL     1      -3.009   3.429  25.650  0.00  0.00    +0.039 C 
ATOM      4  C   UNL     1      -3.773   3.742  25.638  0.00  0.00    +0.003 C 
ATOM      5  C   UNL     1      -4.405   3.278  25.385  0.00  0.00    +0.000 C 
ATOM      6  C   UNL     1      -4.274   2.501  25.143  0.00  0.00    +0.002 C 
ATOM      7  C   UNL     1      -5.037   2.813  25.131  0.00  0.00    +0.000 C 
ATOM      8  C   UNL     1      -4.907   2.035  24.889  0.00  0.00    +0.002 C 
ATOM      9  C   UNL     1      -4.776   1.258  24.647  0.00  0.00    +0.022 C 
ATOM     10  C   UNL     1      -4.012   0.944  24.659  0.00  0.00    +0.096 C 
ATOM     22  C   UNL     1      -3.380   1.409  24.913  0.00  0.00    +0.022 C 
ATOM     23  C   UNL     1      -2.617   1.096  24.925  0.00  0.00    +0.002 C 
ATOM     24  C   UNL     1      -3.510   2.187  25.155  0.00  0.00    +0.032 C 
ATOM     25  C   UNL     1      -2.878   2.652  25.408  0.00  0.00    +0.152 C 
ATOM     26  O   UNL     1      -2.115   2.339  25.420  0.00  0.00    -0.223 OA
ENDROOT
BRANCH  10  11
ATOM     11  N   UNL     1      -3.882   0.166  24.417  0.00  0.00    -0.203 NA
ATOM     12  C   UNL     1      -4.169  -0.460  24.869  0.00  0.00    +0.265 C 
ATOM     13  O   UNL     1      -4.586  -0.309  25.566  0.00  0.00    -0.268 OA
BRANCH  12  14
ATOM     14  C   UNL     1      -4.039  -1.238  24.627  0.00  0.00    +0.055 A 
ATOM     15  C   UNL     1      -4.361  -1.510  23.919  0.00  0.00    +0.005 A 
ATOM     16  C   UNL     1      -4.231  -2.288  23.676  0.00  0.00    +0.010 A 
ATOM     17  C   UNL     1      -3.778  -2.794  24.144  0.00  0.00    +0.068 A 
ATOM     18  C   UNL     1      -3.455  -2.523  24.854  0.00  0.00    +0.010 A 
ATOM     19  C   UNL     1      -3.586  -1.745  25.095  0.00  0.00    +0.005 A 
BRANCH  17  20
ATOM     20  C   UNL     1      -3.647  -3.572  23.903  0.00  0.00    +0.100 C 
ATOM     21  N   UNL     1      -3.517  -4.351  23.661  0.00  0.00    -0.191 NA
ENDBRANCH  17  20
ENDBRANCH  12  14
ENDBRANCH  10  11
BRANCH   3   2
ATOM      1  C   UNL     1      -1.817   3.584  26.425  0.00  0.00    +0.010 C 
ATOM      2  C   UNL     1      -2.376   3.894  25.904  0.00  0.00    +0.079 C 
BRANCH   2  27
ATOM     27  C   UNL     1      -2.304   4.672  25.637  0.00  0.00    +0.225 C 
ATOM     28  O   UNL     1      -2.910   5.214  25.775  0.00  0.00    -0.275 OA
ATOM     29  N   UNL     1      -1.624   4.907  25.231  0.00  0.00    -0.280 N 
ATOM     30  C   UNL     1      -1.551   5.683  24.965  0.00  0.00    +0.093 C 
ATOM     31  C   UNL     1      -0.872   5.918  24.559  0.00  0.00    +0.022 C 
ATOM     32  C   UNL     1      -0.267   5.376  24.421  0.00  0.00    +0.004 C 
ATOM     33  C   UNL     1      -0.339   4.600  24.688  0.00  0.00    +0.022 C 
ATOM     34  C   UNL     1      -1.018   4.364  25.094  0.00  0.00    +0.093 C 
ENDBRANCH   2  27
ENDBRANCH   3   2
TORSDOF 5
ENDMDL
MODEL 3
REMARK VINA RESULT:     -10.2      1.587      2.257
REMARK  Name = 
REMARK  5 active torsions:
REMARK  status: ('A' for Active; 'I' for Inactive)
REMARK    1  A    between atoms: C_2  and  C_3
REMARK    2  A    between atoms: C_2  and  C_27
REMARK    3  A    between atoms: C_10  and  N_11
REMARK    4  A    between atoms: C_12  and  C_14
REMARK    5  A    between atoms: C_17  and  C_20
REMARK                            x       y       z     vdW  Elec       q    Type
REMARK                         _______ _______ _______ _____ _____    ______ ____
ROOT
ATOM      3  C   UNL     1      -3.427   3.440  24.950  0.00  0.00    +0.039 C 
ATOM      4  C   UNL     1      -3.173   3.813  25.642  0.00  0.00    +0.003 C 
ATOM      5  C   UNL     1      -2.378   3.780  25.860  0.00  0.00    +0.000 C 
ATOM      6  C   UNL     1      -1.838   3.374  25.388  0.00  0.00    +0.002 C 
ATOM      7  C   UNL     1      -1.584   3.746  26.078  0.00  0.00    +0.000 C 
ATOM      8  C   UNL     1      -1.043   3.340  25.606  0.00  0.00    +0.002 C 
ATOM      9  C   UNL     1      -0.502   2.934  25.135  0.00  0.00    +0.022 C 
ATOM     10  C   UNL     1      -0.756   2.561  24.443  0.00  0.00    +0.096 C 
ATOM     22  C   UNL     1      -1.550   2.595  24.225  0.00  0.00    +0.022 C 
ATOM     23  C   UNL     1      -1.804   2.222  23.534  0.00  0.00    +0.002 C 
ATOM     24  C   UNL     1      -2.092   3.001  24.697  0.00  0.00    +0.032 C 
ATOM     25  C   UNL     1      -2.886   3.034  24.478  0.00  0.00    +0.152 C 
ATOM     26  O   UNL     1      -3.140   2.662  23.787  0.00  0.00    -0.223 OA
ENDROOT
BRANCH  10  11
ATOM     11  N   UNL     1      -0.214   2.155  23.971  0.00  0.00    -0.203 NA
ATOM     12  C   UNL     1       0.210   1.521  24.282  0.00  0.00    +0.265 C 
ATOM     13  O   UNL     1       0.094   1.291  25.067  0.00  0.00    -0.268 OA
BRANCH  12  14
ATOM     14  C   UNL     1       0.752   1.115  23.810  0.00  0.00    +0.055 A 
ATOM     15  C   UNL     1       0.549   0.386  23.482  0.00  0.00    +0.005 A 
ATOM     16  C   UNL     1       1.091  -0.020  23.010  0.00  0.00    +0.010 A 
ATOM     17  C   UNL     1       1.836   0.304  22.867  0.00  0.00    +0.068 A 
ATOM     18  C   UNL     1       2.040   1.033  23.196  0.00  0.00    +0.010 A 
ATOM     19  C   UNL     1       1.497   1.438  23.667  0.00  0.00    +0.005 A 
BRANCH  17  20
ATOM     20  C   UNL     1       2.378  -0.101  22.395  0.00  0.00    +0.100 C 
ATOM     21  N   UNL     1       2.921  -0.507  21.924  0.00  0.00    -0.191 NA
ENDBRANCH  17  20
ENDBRANCH  12  14
ENDBRANCH  10  11
BRANCH   3   2
ATOM      1  C   UNL     1      -4.430   3.537  23.936  0.00  0.00    +0.010 C 
ATOM      2  C   UNL     1      -4.222   3.474  24.732  0.00  0.00    +0.079 C 
BRANCH   2  27
ATOM     27  C   UNL     1      -4.809   3.444  25.310  0.00  0.00    +0.225 C 
ATOM     28  O   UNL     1      -4.886   4.061  25.854  0.00  0.00    -0.275 OA
ATOM     29  N   UNL     1      -5.321   2.797  25.346  0.00  0.00    -0.280 N 
ATOM     30  C   UNL     1      -5.908   2.767  25.924  0.00  0.00    +0.093 C 
ATOM     31  C   UNL     1      -6.419   2.121  25.961  0.00  0.00    +0.022 C 
ATOM     32  C   UNL     1      -6.343   1.505  25.418  0.00  0.00    +0.004 C 
ATOM     33  C   UNL     1      -5.756   1.535  24.840  0.00  0.00    +0.022 C 
ATOM     34  C   UNL     1      -5.245   2.181  24.803  0.00  0.00    +0.093 C 
ENDBRANCH   2  27
ENDBRANCH   3   2
TORSDOF 5
ENDMDL
MODEL 4
REMARK VINA RESULT:      -9.9      1.041      6.335
REMARK  Name = 
REMARK  5 active torsions:
REMARK  status: ('A' for Active; 'I' for Inactive)
REMARK    1  A    between atoms: C_2  and  C_3
REMARK    2  A    between atoms: C_2  and  C_27
REMARK    3  A    between atoms: C_10  and  N_11
REMARK    4  A    between atoms: C_12  and  C_14
REMARK    5  A    between atoms: C_17  and  C_20
REMARK                            x       y       z     vdW  Elec       q    Type
REMARK                         _______ _______ _______ _____ _____    ______ ____
ROOT
ATOM      3  C   UNL     1       0.334   0.343  23.800  0.00  0.00    +0.039 C 
ATOM      4  C   UNL     1       0.163  -0.459  23.900  0.00  0.00    +0.003 C 
ATOM      5  C   UNL     1      -0.568  -0.690  24.204  0.00  0.00    +0.000 C 
ATOM      6  C   UNL     1      -1.128  -0.120  24.409  0.00  0.00    +0.002 C 
ATOM      7  C   UNL     1      -1.298  -0.920  24.508  0.00  0.00    +0.000 C 
ATOM      8  C   UNL     1      -1.859  -0.351  24.713  0.00  0.00    +0.002 C 
ATOM      9  C   UNL     1      -2.419   0.218  24.918  0.00  0.00    +0.022 C 
ATOM     10  C   UNL     1      -2.248   1.020  24.819  0.00  0.00    +0.096 C 
ATOM     22  C   UNL     1      -1.517   1.251  24.515  0.00  0.00    +0.022 C 
ATOM     23  C   UNL     1      -1.347   2.052  24.415  0.00  0.00    +0.002 C 
ATOM     24  C   UNL     1      -0.957   0.682  24.309  0.00  0.00    +0.032 C 
ATOM     25  C   UNL     1      -0.226   0.912  24.005  0.00  0.00    +0.152 C 
ATOM     26  O   UNL     1      -0.055   1.713  23.906  0.00  0.00    -0.223 OA
ENDROOT
BRANCH  10  11
ATOM     11  N   UNL     1      -2.809   1.590  25.024  0.00  0.00    -0.203 NA
ATOM     12  C   UNL     1      -3.581   1.529  24.743  0.00  0.00    +0.265 C 
ATOM     13  O   UNL     1      -3.794   0.897  24.255  0.00  0.00    -0.268 OA
BRANCH  12  14
ATOM     14  C   UNL     1      -4.142   2.098  24.948  0.00  0.00    +0.055 A 
ATOM     15  C   UNL     1      -4.813   1.882  25.376  0.00  0.00    +0.005 A 
ATOM     16  C   UNL     1      -5.373   2.451  25.582  0.00  0.00    +0.010 A 
ATOM     17  C   UNL     1      -5.263   3.238  25.358  0.00  0.00    +0.068 A 
ATOM     18  C   UNL     1      -4.592   3.455  24.929  0.00  0.00    +0.010 A 
ATOM     19  C   UNL     1      -4.032   2.884  24.724  0.00  0.00    +0.005 A 
BRANCH  17  20
ATOM     20  C   UNL     1      -5.823   3.808  25.562  0.00  0.00    +0.100 C 
ATOM     21  N   UNL     1      -6.382   4.379  25.767  0.00  0.00    -0.191 NA
ENDBRANCH  17  20
ENDBRANCH  12  14
ENDBRANCH  10  11
BRANCH   3   2
ATOM      1  C   UNL     1       1.497   1.173  23.865  0.00  0.00    +0.010 C 
ATOM      2  C   UNL     1       1.066   0.574  23.496  0.00  0.00    +0.079 C 
BRANCH   2  27
ATOM     27  C   UNL     1       1.366   0.205  22.822  0.00  0.00    +0.225 C 
ATOM     28  O   UNL     1       0.868  -0.246  22.341  0.00  0.00    -0.275 OA
ATOM     29  N   UNL     1       2.164   0.287  22.627  0.00  0.00    -0.280 N 
ATOM     30  C   UNL     1       2.464  -0.081  21.954  0.00  0.00    +0.093 C 
ATOM     31  C   UNL     1       3.261   0.000  21.759  0.00  0.00    +0.022 C 
ATOM     32  C   UNL     1       3.758   0.451  22.239  0.00  0.00    +0.004 C 
ATOM     33  C   UNL     1       3.458   0.819  22.913  0.00  0.00    +0.022 C 
ATOM     34  C   UNL     1       2.661   0.737  23.107  0.00  0.00    +0.093 C 
ENDBRANCH   2  27
ENDBRANCH   3   2
TORSDOF 5
ENDMDL
MODEL 5
REMARK VINA RESULT:      -9.0      2.634      4.704
REMARK  Name = 
REMARK  5 active torsions:
REMARK  status: ('A' for Active; 'I' for Inactive)
REMARK    1  A    between atoms: C_2  and  C_3
REMARK    2  A    between atoms: C_2  and  C_27
REMARK    3  A    between atoms: C_10  and  N_11
REMARK    4  A    between atoms: C_12  and  C_14
REMARK    5  A    between atoms: C_17  and  C_20
REMARK                            x       y       z     vdW  Elec       q    Type
REMARK                         _______ _______ _______ _____ _____    ______ ____
ROOT
ATOM      3  C   UNL     1      -1.988  -1.178  25.117  0.00  0.00    +0.039 C 
ATOM      4  C   UNL     1      -1.226  -1.444  24.943  0.00  0.00    +0.003 C 
ATOM      5  C   UNL     1      -0.636  -0.903  24.747  0.00  0.00    +0.000 C 
ATOM      6  C   UNL     1      -0.806  -0.097  24.725  0.00  0.00    +0.002 C 
ATOM      7  C   UNL     1      -0.045  -0.362  24.551  0.00  0.00    +0.000 C 
ATOM      8  C   UNL     1      -0.215   0.445  24.529  0.00  0.00    +0.002 C 
ATOM      9  C   UNL     1      -0.386   1.251  24.506  0.00  0.00    +0.022 C 
ATOM     10  C   UNL     1      -1.148   1.517  24.680  0.00  0.00    +0.096 C 
ATOM     22  C   UNL     1      -1.738   0.976  24.876  0.00  0.00    +0.022 C 
ATOM     23  C   UNL     1      -2.500   1.242  25.049  0.00  0.00    +0.002 C 
ATOM     24  C   UNL     1      -1.568   0.169  24.899  0.00  0.00    +0.032 C 
ATOM     25  C   UNL     1      -2.159  -0.372  25.095  0.00  0.00    +0.152 C 
ATOM     26  O   UNL     1      -2.920  -0.106  25.268  0.00  0.00    -0.223 OA
ENDROOT
BRANCH  10  11
ATOM     11  N   UNL     1      -1.318   2.325  24.657  0.00  0.00    -0.203 NA
ATOM     12  C   UNL     1      -0.870   2.854  25.103  0.00  0.00    +0.265 C 
ATOM     13  O   UNL     1      -0.250   2.576  25.573  0.00  0.00    -0.268 OA
BRANCH  12  14
ATOM     14  C   UNL     1      -1.040   3.661  25.080  0.00  0.00    +0.055 A 
ATOM     15  C   UNL     1      -0.531   4.179  24.690  0.00  0.00    +0.005 A 
ATOM     16  C   UNL     1      -0.701   4.986  24.667  0.00  0.00    +0.010 A 
ATOM     17  C   UNL     1      -1.381   5.275  25.035  0.00  0.00    +0.068 A 
ATOM     18  C   UNL     1      -1.891   4.756  25.426  0.00  0.00    +0.010 A 
ATOM     19  C   UNL     1      -1.720   3.949  25.448  0.00  0.00    +0.005 A 
BRANCH  17  20
ATOM     20  C   UNL     1      -1.552   6.081  25.013  0.00  0.00    +0.100 C 
ATOM     21  N   UNL     1      -1.722   6.888  24.990  0.00  0.00    -0.191 NA
ENDBRANCH  17  20
ENDBRANCH  12  14
ENDBRANCH  10  11
BRANCH   3   2
ATOM      1  C   UNL     1      -3.096  -1.561  25.936  0.00  0.00    +0.010 C 
ATOM      2  C   UNL     1      -2.579  -1.720  25.313  0.00  0.00    +0.079 C 
BRANCH   2  27
ATOM     27  C   UNL     1      -2.652  -2.422  24.886  0.00  0.00    +0.225 C 
ATOM     28  O   UNL     1      -2.055  -2.991  24.921  0.00  0.00    -0.275 OA
ATOM     29  N   UNL     1      -3.323  -2.555  24.423  0.00  0.00    -0.280 N 
ATOM     30  C   UNL     1      -3.396  -3.256  23.997  0.00  0.00    +0.093 C 
ATOM     31  C   UNL     1      -4.066  -3.390  23.534  0.00  0.00    +0.022 C 
ATOM     32  C   UNL     1      -4.662  -2.821  23.499  0.00  0.00    +0.004 C 
ATOM     33  C   UNL     1      -4.589  -2.120  23.926  0.00  0.00    +0.022 C 
ATOM     34  C   UNL     1      -3.919  -1.986  24.389  0.00  0.00    +0.093 C 
ENDBRANCH   2  27
ENDBRANCH   3   2
TORSDOF 5
ENDMDL
MODEL 6
REMARK VINA RESULT:      -8.7      3.209      4.815
REMARK  Name = 
REMARK  5 active torsions:
REMARK  status: ('A' for Active; 'I' for Inactive)
REMARK    1  A    between atoms: C_2  and  C_3
REMARK    2  A    between atoms: C_2  and  C_27
REMARK    3  A    between atoms: C_10  and  N_11
REMARK    4  A    between atoms: C_12  and  C_14
REMARK    5  A    between atoms: C_17  and  C_20
REMARK                            x       y       z     vdW  Elec       q    Type
REMARK                         _______ _______ _______ _____ _____    ______ ____
ROOT
ATOM      3  C   UNL     1      -4.451  -0.000  24.696  0.00  0.00    +0.039 C 
ATOM      4  C   UNL     1      -5.171   0.230  25.028  0.00  0.00    +0.003 C 
ATOM      5  C   UNL     1      -5.300   1.021  25.222  0.00  0.00    +0.000 C 
ATOM      6  C   UNL     1      -4.712   1.581  25.084  0.00  0.00    +0.002 C 
ATOM      7  C   UNL     1      -5.430   1.811  25.416  0.00  0.00    +0.000 C 
ATOM      8  C   UNL     1      -4.841   2.373  25.279  0.00  0.00    +0.002 C 
ATOM      9  C   UNL     1      -4.253   2.933  25.141  0.00  0.00    +0.022 C 
ATOM     10  C   UNL     1      -3.533   2.703  24.808  0.00  0.00    +0.096 C 
ATOM     22  C   UNL     1      -3.403   1.912  24.614  0.00  0.00    +0.022 C 
ATOM     23  C   UNL     1      -2.684   1.682  24.282  0.00  0.00    +0.002 C 
ATOM     24  C   UNL     1      -3.992   1.351  24.752  0.00  0.00    +0.032 C 
ATOM     25  C   UNL     1      -3.862   0.560  24.558  0.00  0.00    +0.152 C 
ATOM     26  O   UNL     1      -3.143   0.330  24.226  0.00  0.00    -0.223 OA
ENDROOT
BRANCH  10  11
ATOM     11  N   UNL     1      -2.944   3.264  24.671  0.00  0.00    -0.203 NA
ATOM     12  C   UNL     1      -2.619   3.685  25.301  0.00  0.00    +0.265 C 
ATOM     13  O   UNL     1      -2.882   3.544  26.071  0.00  0.00    -0.268 OA
BRANCH  12  14
ATOM     14  C   UNL     1      -2.030   4.246  25.163  0.00  0.00    +0.055 A 
ATOM     15  C   UNL     1      -2.216   5.049  25.164  0.00  0.00    +0.005 A 
ATOM     16  C   UNL     1      -1.628   5.610  25.026  0.00  0.00    +0.010 A 
ATOM     17  C   UNL     1      -0.851   5.368  24.887  0.00  0.00    +0.068 A 
ATOM     18  C   UNL     1      -0.664   4.564  24.887  0.00  0.00    +0.010 A 
ATOM     19  C   UNL     1      -1.254   4.003  25.024  0.00  0.00    +0.005 A 
BRANCH  17  20
ATOM     20  C   UNL     1      -0.262   5.928  24.750  0.00  0.00    +0.100 C 
ATOM     21  N   UNL     1       0.329   6.487  24.612  0.00  0.00    -0.191 NA
ENDBRANCH  17  20
ENDBRANCH  12  14
ENDBRANCH  10  11
BRANCH   3   2
ATOM      1  C   UNL     1      -4.520  -1.072  23.751  0.00  0.00    +0.010 C 
ATOM      2  C   UNL     1      -4.321  -0.792  24.501  0.00  0.00    +0.079 C 
BRANCH   2  27
ATOM     27  C   UNL     1      -3.993  -1.304  25.059  0.00  0.00    +0.225 C 
ATOM     28  O   UNL     1      -3.916  -1.065  25.845  0.00  0.00    -0.275 OA
ATOM     29  N   UNL     1      -3.742  -2.057  24.830  0.00  0.00    -0.280 N 
ATOM     30  C   UNL     1      -3.414  -2.569  25.386  0.00  0.00    +0.093 C 
ATOM     31  C   UNL     1      -3.162  -3.320  25.158  0.00  0.00    +0.022 C 
ATOM     32  C   UNL     1      -3.240  -3.559  24.373  0.00  0.00    +0.004 C 
ATOM     33  C   UNL     1      -3.567  -3.047  23.816  0.00  0.00    +0.022 C 
ATOM     34  C   UNL     1      -3.819  -2.296  24.044  0.00  0.00    +0.093 C 
ENDBRANCH   2  27
ENDBRANCH   3   2
TORSDOF 5
ENDMDL
MODEL 7
REMARK VINA RESULT:      -8.3      1.946      3.032
REMARK  Name = 
REMARK  5 active torsions:
REMARK  status: ('A' for Active; 'I' for Inactive)
REMARK    1  A    between atoms: C_2  and  C_3
REMARK    2  A    between atoms: C_2  and  C_27
REMARK    3  A    between atoms: C_10  and  N_11
REMARK    4  A    between atoms: C_12  and  C_14
REMARK    5  A    between atoms: C_17  and  C_20
REMARK                            x       y       z     vdW  Elec       q    Type
REMARK                         _______ _______ _______ _____ _____    ______ ____
ROOT
ATOM      3  C   UNL     1      -2.434   0.087  24.553  0.00  0.00    +0.039 C 
ATOM      4  C   UNL     1      -2.746   0.769  24.208  0.00  0.00    +0.003 C 
ATOM      5  C   UNL     1      -2.244   1.316  23.849  0.00  0.00    +0.000 C 
ATOM      6  C   UNL     1      -1.431   1.182  23.835  0.00  0.00    +0.002 C 
ATOM      7  C   UNL     1      -1.742   1.863  23.490  0.00  0.00    +0.000 C 
ATOM      8  C   UNL     1      -0.928   1.729  23.476  0.00  0.00    +0.002 C 
ATOM      9  C   UNL     1      -0.115   1.595  23.461  0.00  0.00    +0.022 C 
ATOM     10  C   UNL     1       0.197   0.913  23.807  0.00  0.00    +0.096 C 
ATOM     22  C   UNL     1      -0.305   0.366  24.165  0.00  0.00    +0.022 C 
ATOM     23  C   UNL     1       0.007  -0.315  24.510  0.00  0.00    +0.002 C 
ATOM     24  C   UNL     1      -1.119   0.500  24.180  0.00  0.00    +0.032 C 
ATOM     25  C   UNL     1      -1.621  -0.047  24.539  0.00  0.00    +0.152 C 
ATOM     26  O   UNL     1      -1.309  -0.729  24.884  0.00  0.00    -0.223 OA
ENDROOT
BRANCH  10  11
ATOM     11  N   UNL     1       1.011   0.779  23.792  0.00  0.00    -0.203 NA
ATOM     12  C   UNL     1       1.393   0.634  23.076  0.00  0.00    +0.265 C 
ATOM     13  O   UNL     1       0.961   0.623  22.372  0.00  0.00    -0.268 OA
BRANCH  12  14
ATOM     14  C   UNL     1       2.207   0.500  23.062  0.00  0.00    +0.055 A 
ATOM     15  C   UNL     1       2.500  -0.270  23.075  0.00  0.00    +0.005 A 
ATOM     16  C   UNL     1       3.314  -0.404  23.061  0.00  0.00    +0.010 A 
ATOM     17  C   UNL     1       3.836   0.235  23.032  0.00  0.00    +0.068 A 
ATOM     18  C   UNL     1       3.543   1.007  23.019  0.00  0.00    +0.010 A 
ATOM     19  C   UNL     1       2.729   1.139  23.033  0.00  0.00    +0.005 A 
BRANCH  17  20
ATOM     20  C   UNL     1       4.650   0.102  23.018  0.00  0.00    +0.100 C 
ATOM     21  N   UNL     1       5.464  -0.030  23.005  0.00  0.00    -0.191 NA
ENDBRANCH  17  20
ENDBRANCH  12  14
ENDBRANCH  10  11
BRANCH   3   2
ATOM      1  C   UNL     1      -2.762  -0.751  25.664  0.00  0.00    +0.010 C 
ATOM      2  C   UNL     1      -2.937  -0.460  24.912  0.00  0.00    +0.079 C 
BRANCH   2  27
ATOM     27  C   UNL     1      -3.615  -0.716  24.518  0.00  0.00    +0.225 C 
ATOM     28  O   UNL     1      -4.173  -0.167  24.257  0.00  0.00    -0.275 OA
ATOM     29  N   UNL     1      -3.736  -1.522  24.386  0.00  0.00    -0.280 N 
ATOM     30  C   UNL     1      -4.413  -1.778  23.993  0.00  0.00    +0.093 C 
ATOM     31  C   UNL     1      -4.534  -2.583  23.860  0.00  0.00    +0.022 C 
ATOM     32  C   UNL     1      -3.977  -3.132  24.121  0.00  0.00    +0.004 C 
ATOM     33  C   UNL     1      -3.299  -2.876  24.514  0.00  0.00    +0.022 C 
ATOM     34  C   UNL     1      -3.178  -2.071  24.647  0.00  0.00    +0.093 C 
ENDBRANCH   2  27
ENDBRANCH   3   2
TORSDOF 5
ENDMDL
