MODEL 1
REMARK VINA RESULT:     -14.9      0.000      0.000
REMARK  Name = 
REMARK  6 active torsions:
REMARK  status: ('A' for Active; 'I' for Inactive)
REMARK    1  A    between atoms: C_2  and  C_4
REMARK    2  A    between atoms: C_10  and  C_12
REMARK    3  A    between atoms: C_19  and  C_20
REMARK    4  A    between atoms: C_20  and  N_21
REMARK    5  A    between atoms: C_23  and  C_26
REMARK    6  A    between atoms: C_29  and  C_32
REMARK                            x       y       z     vdW  Elec       q    Type
REMARK                         _______ _______ _______ _____ _____    ______ ____
ROOT
ATOM     12  C   UNL     1      -2.745   3.857  25.122  0.00  0.00    +0.093 C 
ATOM     13  C   UNL     1      -2.998   3.468  24.498  0.00  0.00    +0.081 C 
ATOM     14  N   UNL     1      -3.447   3.674  25.159  0.00  0.00    -0.272 NA
ATOM     15  C   UNL     1      -2.813   4.190  25.816  0.00  0.00    +0.072 C 
ATOM     16  C   UNL     1      -2.714   4.504  26.380  0.00  0.00    +0.018 C 
ATOM     17  C   UNL     1      -3.192   4.056  25.767  0.00  0.00    +0.013 C 
ATOM     18  C   UNL     1      -4.036   3.914  25.964  0.00  0.00    +0.019 C 
ATOM     19  C   UNL     1      -4.323   3.530  25.370  0.00  0.00    +0.082 C 
ENDROOT
BRANCH  12  10
ATOM      4  C   UNL     1      -0.193   2.490  24.436  0.00  0.00    +0.083 C 
ATOM      5  C   UNL     1       0.013   3.253  24.673  0.00  0.00    +0.031 C 
ATOM      6  C   UNL     1      -0.574   3.786  24.904  0.00  0.00    +0.094 C 
ATOM      7  N   UNL     1      -1.366   3.555  24.898  0.00  0.00    -0.279 N 
ATOM      8  C   UNL     1      -1.572   2.792  24.661  0.00  0.00    +0.094 C 
ATOM      9  C   UNL     1      -0.985   2.260  24.431  0.00  0.00    +0.031 C 
ATOM     10  C   UNL     1      -1.951   4.088  25.128  0.00  0.00    +0.227 C 
ATOM     11  O   UNL     1      -1.746   4.851  25.365  0.00  0.00    -0.275 OA
BRANCH   4   2
ATOM      1  N   UNL     1       0.192   1.182  24.007  0.00  0.00    -0.088 NA
ATOM      2  C   UNL     1       0.393   1.957  24.206  0.00  0.00    +0.260 C 
ATOM      3  O   UNL     1       1.181   2.200  24.174  0.00  0.00    -0.272 OA
ENDBRANCH   4   2
ENDBRANCH  12  10
BRANCH  19  20
ATOM     20  C   UNL     1      -5.017   3.187  25.087  0.00  0.00    +0.145 C 
BRANCH  20  21
ATOM     21  N   UNL     1      -5.128   2.372  25.143  0.00  0.00    -0.229 N 
ATOM     22  C   UNL     1      -4.580   1.793  24.928  0.00  0.00    +0.118 A 
ATOM     23  C   UNL     1      -4.919   1.055  25.075  0.00  0.00    +0.123 A 
ATOM     24  N   UNL     1      -5.676   1.179  25.380  0.00  0.00    -0.129 NA
ATOM     25  N   UNL     1      -5.805   1.992  25.421  0.00  0.00    -0.064 NA
BRANCH  23  26
ATOM     26  C   UNL     1      -4.564   0.323  24.941  0.00  0.00    +0.021 A 
ATOM     27  C   UNL     1      -4.516   0.021  24.174  0.00  0.00    +0.002 A 
ATOM     28  C   UNL     1      -4.160  -0.711  24.040  0.00  0.00    +0.000 A 
ATOM     29  C   UNL     1      -3.852  -1.141  24.672  0.00  0.00    +0.000 A 
ATOM     30  C   UNL     1      -3.900  -0.840  25.439  0.00  0.00    +0.000 A 
ATOM     31  C   UNL     1      -4.255  -0.108  25.573  0.00  0.00    +0.002 A 
BRANCH  29  32
ATOM     32  C   UNL     1      -3.497  -1.873  24.538  0.00  0.00    +0.000 A 
ATOM     33  C   UNL     1      -2.676  -1.949  24.585  0.00  0.00    +0.000 A 
ATOM     34  C   UNL     1      -2.321  -2.682  24.451  0.00  0.00    +0.000 A 
ATOM     35  C   UNL     1      -2.785  -3.338  24.269  0.00  0.00    +0.000 A 
ATOM     36  C   UNL     1      -3.606  -3.263  24.222  0.00  0.00    +0.000 A 
ATOM     37  C   UNL     1      -3.961  -2.531  24.357  0.00  0.00    +0.000 A 
ENDBRANCH  29  32
ENDBRANCH  23  26
ENDBRANCH  20  21
ENDBRANCH  19  20
TORSDOF 6
ENDMDL
MODEL 2
REMARK VINA RESULT:     -14.7      1.342      3.556
REMARK  Name = 
REMARK  6 active torsions:
REMARK  status: ('A' for Active; 'I' for Inactive)
REMARK    1  A    between atoms: C_2  and  C_4
REMARK    2  A    between atoms: C_10  and  C_12
REMARK    3  A    between atoms: C_19  and  C_20
REMARK    4  A    between atoms: C_20  and  N_21
REMARK    5  A    between atoms: C_23  and  C_26
REMARK    6  A    between atoms: C_29  and  C_32
REMARK                            x       y       z     vdW  Elec       q    Type
REMARK                         _______ _______ _______ _____ _____    ______ ____
ROOT
ATOM     12  C   UNL     1      -1.600   3.860  25.551  0.00  0.00    +0.093 C 
ATOM     13  C   UNL     1      -1.711   3.196  25.942  0.00  0.00    +0.081 C 
ATOM     14  N   UNL     1      -1.039   3.399  25.508  0.00  0.00    -0.272 NA
ATOM     15  C   UNL     1      -1.206   4.354  25.107  0.00  0.00    +0.072 C 
ATOM     16  C   UNL     1      -1.006   4.863  24.750  0.00  0.00    +0.018 C 
ATOM     17  C   UNL     1      -0.937   4.052  25.127  0.00  0.00    +0.013 C 
ATOM     18  C   UNL     1      -0.189   3.619  24.977  0.00  0.00    +0.019 C 
ATOM     19  C   UNL     1      -0.258   2.955  25.348  0.00  0.00    +0.082 C 
ENDROOT
BRANCH  12  10
ATOM      4  C   UNL     1      -4.568   3.669  25.521  0.00  0.00    +0.083 C 
ATOM      5  C   UNL     1      -4.391   4.474  25.557  0.00  0.00    +0.031 C 
ATOM      6  C   UNL     1      -3.605   4.723  25.573  0.00  0.00    +0.094 C 
ATOM      7  N   UNL     1      -2.995   4.167  25.554  0.00  0.00    -0.279 N 
ATOM      8  C   UNL     1      -3.173   3.362  25.519  0.00  0.00    +0.094 C 
ATOM      9  C   UNL     1      -3.959   3.113  25.502  0.00  0.00    +0.031 C 
ATOM     10  C   UNL     1      -2.210   4.416  25.571  0.00  0.00    +0.227 C 
ATOM     11  O   UNL     1      -2.033   5.222  25.606  0.00  0.00    -0.275 OA
BRANCH   4   2
ATOM      1  N   UNL     1      -5.547   2.681  25.194  0.00  0.00    -0.088 NA
ATOM      2  C   UNL     1      -5.355   3.420  25.505  0.00  0.00    +0.260 C 
ATOM      3  O   UNL     1      -5.949   3.911  25.800  0.00  0.00    -0.272 OA
ENDBRANCH   4   2
ENDBRANCH  12  10
BRANCH  19  20
ATOM     20  C   UNL     1       0.139   2.251  25.508  0.00  0.00    +0.145 C 
BRANCH  20  21
ATOM     21  N   UNL     1      -0.055   1.563  25.096  0.00  0.00    -0.229 N 
ATOM     22  C   UNL     1      -0.726   1.099  25.219  0.00  0.00    +0.118 A 
ATOM     23  C   UNL     1      -0.698   0.467  24.687  0.00  0.00    +0.123 A 
ATOM     24  N   UNL     1      -0.011   0.544  24.237  0.00  0.00    -0.129 NA
ATOM     25  N   UNL     1       0.386   1.221  24.489  0.00  0.00    -0.064 NA
BRANCH  23  26
ATOM     26  C   UNL     1      -1.259  -0.133  24.618  0.00  0.00    +0.021 A 
ATOM     27  C   UNL     1      -2.034   0.049  24.399  0.00  0.00    +0.002 A 
ATOM     28  C   UNL     1      -2.595  -0.552  24.331  0.00  0.00    +0.000 A 
ATOM     29  C   UNL     1      -2.382  -1.334  24.481  0.00  0.00    +0.000 A 
ATOM     30  C   UNL     1      -1.608  -1.516  24.700  0.00  0.00    +0.000 A 
ATOM     31  C   UNL     1      -1.047  -0.916  24.769  0.00  0.00    +0.002 A 
BRANCH  29  32
ATOM     32  C   UNL     1      -2.943  -1.935  24.413  0.00  0.00    +0.000 A 
ATOM     33  C   UNL     1      -2.792  -2.680  24.735  0.00  0.00    +0.000 A 
ATOM     34  C   UNL     1      -3.354  -3.281  24.666  0.00  0.00    +0.000 A 
ATOM     35  C   UNL     1      -4.066  -3.138  24.276  0.00  0.00    +0.000 A 
ATOM     36  C   UNL     1      -4.217  -2.393  23.953  0.00  0.00    +0.000 A 
ATOM     37  C   UNL     1      -3.655  -1.792  24.022  0.00  0.00    +0.000 A 
ENDBRANCH  29  32
ENDBRANCH  23  26
ENDBRANCH  20  21
ENDBRANCH  19  20
TORSDOF 6
ENDMDL
MODEL 3
REMARK VINA RESULT:     -13.8      1.906      5.297
REMARK  Name = 
REMARK  6 active torsions:
REMARK  status: ('A' for Active; 'I' for Inactive)
REMARK    1  A    between atoms: C_2  and  C_4
REMARK    2  A    between atoms: C_10  and  C_12
REMARK    3  A    between atoms: C_19  and  C_20
REMARK    4  A    between atoms: C_20  and  N_21
REMARK    5  A    between atoms: C_23  and  C_26
REMARK    6  A    between atoms: C_29  and  C_32
REMARK                            x       y       z     vdW  Elec       q    Type
REMARK                         _______ _______ _______ _____ _____    ______ ____
ROOT
ATOM     12  C   UNL     1      -3.827  -1.325  24.797  0.00  0.00    +0.093 C 
ATOM     13  C   UNL     1      -3.714  -0.975  25.482  0.00  0.00    +0.081 C 
ATOM     14  N   UNL     1      -4.278  -0.768  24.916  0.00  0.00    -0.272 NA
ATOM     15  C   UNL     1      -4.169  -1.433  24.113  0.00  0.00    +0.072 C 
ATOM     16  C   UNL     1      -4.351  -1.645  23.522  0.00  0.00    +0.018 C 
ATOM     17  C   UNL     1      -4.383  -1.116  24.246  0.00  0.00    +0.013 C 
ATOM     18  C   UNL     1      -4.991  -0.483  24.236  0.00  0.00    +0.019 C 
ATOM     19  C   UNL     1      -4.913  -0.112  24.898  0.00  0.00    +0.082 C 
ENDROOT
BRANCH  12  10
ATOM      4  C   UNL     1      -0.889  -1.776  24.916  0.00  0.00    +0.083 C 
ATOM      5  C   UNL     1      -1.217  -2.479  24.633  0.00  0.00    +0.031 C 
ATOM      6  C   UNL     1      -2.033  -2.541  24.532  0.00  0.00    +0.094 C 
ATOM      7  N   UNL     1      -2.522  -1.902  24.715  0.00  0.00    -0.279 N 
ATOM      8  C   UNL     1      -2.194  -1.200  24.998  0.00  0.00    +0.094 C 
ATOM      9  C   UNL     1      -1.377  -1.137  25.098  0.00  0.00    +0.031 C 
ATOM     10  C   UNL     1      -3.337  -1.965  24.614  0.00  0.00    +0.227 C 
ATOM     11  O   UNL     1      -3.666  -2.667  24.331  0.00  0.00    -0.275 OA
BRANCH   4   2
ATOM      1  N   UNL     1       0.363  -1.192  24.549  0.00  0.00    -0.088 NA
ATOM      2  C   UNL     1      -0.072  -1.713  25.017  0.00  0.00    +0.260 C 
ATOM      3  O   UNL     1       0.309  -2.173  25.587  0.00  0.00    -0.272 OA
ENDBRANCH   4   2
ENDBRANCH  12  10
BRANCH  19  20
ATOM     20  C   UNL     1      -5.221   0.513  25.338  0.00  0.00    +0.145 C 
BRANCH  20  21
ATOM     21  N   UNL     1      -5.013   1.290  25.154  0.00  0.00    -0.229 N 
ATOM     22  C   UNL     1      -4.263   1.623  25.238  0.00  0.00    +0.118 A 
ATOM     23  C   UNL     1      -4.306   2.410  24.989  0.00  0.00    +0.123 A 
ATOM     24  N   UNL     1      -5.082   2.560  24.751  0.00  0.00    -0.129 NA
ATOM     25  N   UNL     1      -5.518   1.868  24.853  0.00  0.00    -0.064 NA
BRANCH  23  26
ATOM     26  C   UNL     1      -3.682   2.949  24.979  0.00  0.00    +0.021 A 
ATOM     27  C   UNL     1      -3.491   3.372  25.662  0.00  0.00    +0.002 A 
ATOM     28  C   UNL     1      -2.867   3.911  25.652  0.00  0.00    +0.000 A 
ATOM     29  C   UNL     1      -2.434   4.028  24.959  0.00  0.00    +0.000 A 
ATOM     30  C   UNL     1      -2.625   3.606  24.277  0.00  0.00    +0.000 A 
ATOM     31  C   UNL     1      -3.249   3.067  24.287  0.00  0.00    +0.002 A 
BRANCH  29  32
ATOM     32  C   UNL     1      -1.811   4.568  24.950  0.00  0.00    +0.000 A 
ATOM     33  C   UNL     1      -1.966   5.378  24.963  0.00  0.00    +0.000 A 
ATOM     34  C   UNL     1      -1.341   5.918  24.953  0.00  0.00    +0.000 A 
ATOM     35  C   UNL     1      -0.562   5.648  24.930  0.00  0.00    +0.000 A 
ATOM     36  C   UNL     1      -0.407   4.837  24.917  0.00  0.00    +0.000 A 
ATOM     37  C   UNL     1      -1.031   4.298  24.926  0.00  0.00    +0.000 A 
ENDBRANCH  29  32
ENDBRANCH  23  26
ENDBRANCH  20  21
ENDBRANCH  19  20
TORSDOF 6
ENDMDL
MODEL 4
REMARK VINA RESULT:     -12.7      2.142      5.438
REMARK  Name = 
REMARK  6 active torsions:
REMARK  status: ('A' for Active; 'I' for Inactive)
REMARK    1  A    between atoms: C_2  and  C_4
REMARK    2  A    between atoms: C_10  and  C_12
REMARK    3  A    between atoms: C_19  and  C_20
REMARK    4  A    between atoms: C_20  and  N_21
REMARK    5  A    between atoms: C_23  and  C_26
REMARK    6  A    between atoms: C_29  and  C_32
REMARK                            x       y       z     vdW  Elec       q    Type
REMARK                         _______ _______ _______ _____ _____    ______ ____
ROOT
ATOM     12  C   UNL     1      -0.235  -0.176  24.398  0.00  0.00    +0.093 C 
ATOM     13  C   UNL     1      -0.512   0.107  25.068  0.00  0.00    +0.081 C 
ATOM     14  N   UNL     1      -0.067   0.522  24.511  0.00  0.00    -0.272 NA
ATOM     15  C   UNL     1       0.146  -0.141  23.728  0.00  0.00    +0.072 C 
ATOM     16  C   UNL     1       0.423  -0.268  23.150  0.00  0.00    +0.018 C 
ATOM     17  C   UNL     1       0.201   0.238  23.856  0.00  0.00    +0.013 C 
ATOM     18  C   UNL     1       0.484   1.069  23.840  0.00  0.00    +0.019 C 
ATOM     19  C   UNL     1       0.231   1.385  24.487  0.00  0.00    +0.082 C 
ENDROOT
BRANCH  12  10
ATOM      4  C   UNL     1      -2.619  -1.916  24.771  0.00  0.00    +0.083 C 
ATOM      5  C   UNL     1      -2.044  -2.389  24.416  0.00  0.00    +0.031 C 
ATOM      6  C   UNL     1      -1.304  -2.071  24.234  0.00  0.00    +0.094 C 
ATOM      7  N   UNL     1      -1.140  -1.282  24.407  0.00  0.00    -0.279 N 
ATOM      8  C   UNL     1      -1.715  -0.809  24.763  0.00  0.00    +0.094 C 
ATOM      9  C   UNL     1      -2.454  -1.126  24.945  0.00  0.00    +0.031 C 
ATOM     10  C   UNL     1      -0.400  -0.966  24.225  0.00  0.00    +0.227 C 
ATOM     11  O   UNL     1       0.175  -1.439  23.869  0.00  0.00    -0.275 OA
BRANCH   4   2
ATOM      1  N   UNL     1      -3.915  -2.352  24.357  0.00  0.00    -0.088 NA
ATOM      2  C   UNL     1      -3.359  -2.232  24.954  0.00  0.00    +0.260 C 
ATOM      3  O   UNL     1      -3.543  -2.428  25.734  0.00  0.00    -0.272 OA
ENDBRANCH   4   2
ENDBRANCH  12  10
BRANCH  19  20
ATOM     20  C   UNL     1       0.228   2.090  24.913  0.00  0.00    +0.145 C 
BRANCH  20  21
ATOM     21  N   UNL     1      -0.397   2.622  24.829  0.00  0.00    -0.229 N 
ATOM     22  C   UNL     1      -1.176   2.494  25.068  0.00  0.00    +0.118 A 
ATOM     23  C   UNL     1      -1.614   3.168  24.878  0.00  0.00    +0.123 A 
ATOM     24  N   UNL     1      -1.104   3.710  24.522  0.00  0.00    -0.129 NA
ATOM     25  N   UNL     1      -0.353   3.373  24.492  0.00  0.00    -0.064 NA
BRANCH  23  26
ATOM     26  C   UNL     1      -2.419   3.279  25.019  0.00  0.00    +0.021 A 
ATOM     27  C   UNL     1      -2.977   2.966  24.497  0.00  0.00    +0.002 A 
ATOM     28  C   UNL     1      -3.782   3.077  24.638  0.00  0.00    +0.000 A 
ATOM     29  C   UNL     1      -4.029   3.500  25.302  0.00  0.00    +0.000 A 
ATOM     30  C   UNL     1      -3.472   3.812  25.823  0.00  0.00    +0.000 A 
ATOM     31  C   UNL     1      -2.667   3.702  25.682  0.00  0.00    +0.002 A 
BRANCH  29  32
ATOM     32  C   UNL     1      -4.834   3.611  25.443  0.00  0.00    +0.000 A 
ATOM     33  C   UNL     1      -5.311   2.967  25.643  0.00  0.00    +0.000 A 
ATOM     34  C   UNL     1      -6.117   3.079  25.784  0.00  0.00    +0.000 A 
ATOM     35  C   UNL     1      -6.446   3.832  25.726  0.00  0.00    +0.000 A 
ATOM     36  C   UNL     1      -5.969   4.476  25.526  0.00  0.00    +0.000 A 
ATOM     37  C   UNL     1      -5.164   4.365  25.385  0.00  0.00    +0.000 A 
ENDBRANCH  29  32
ENDBRANCH  23  26
ENDBRANCH  20  21
ENDBRANCH  19  20
TORSDOF 6
ENDMDL
MODEL 5
REMARK VINA RESULT:     -11.9      1.920      6.001
REMARK  Name = 
REMARK  6 active torsions:
REMARK  status: ('A' for Active; 'I' for Inactive)
REMARK    1  A    between atoms: C_2  and  C_4
REMARK    2  A    between atoms: C_10  and  C_12
REMARK    3  A    between atoms: C_19  and  C_20
REMARK    4  A    between atoms: C_20  and  N_21
REMARK    5  A    between atoms: C_23  and  C_26
REMARK    6  A    between atoms: C_29  and  C_32
REMARK                            x       y       z     vdW  Elec       q    Type
REMARK                         _______ _______ _______ _____ _____    ______ ____
ROOT
ATOM     12  C   UNL     1      -2.971  -1.203  24.913  0.00  0.00    +0.093 C 
ATOM     13  C   UNL     1      -2.620  -0.619  25.289  0.00  0.00    +0.081 C 
ATOM     14  N   UNL     1      -2.246  -1.246  24.903  0.00  0.00    -0.272 NA
ATOM     15  C   UNL     1      -2.998  -1.855  24.502  0.00  0.00    +0.072 C 
ATOM     16  C   UNL     1      -3.181  -2.384  24.164  0.00  0.00    +0.018 C 
ATOM     17  C   UNL     1      -2.597  -1.814  24.537  0.00  0.00    +0.013 C 
ATOM     18  C   UNL     1      -1.748  -2.009  24.433  0.00  0.00    +0.019 C 
ATOM     19  C   UNL     1      -1.365  -1.455  24.791  0.00  0.00    +0.082 C 
ENDROOT
BRANCH  12  10
ATOM      4  C   UNL     1      -5.025   0.949  24.931  0.00  0.00    +0.083 C 
ATOM      5  C   UNL     1      -5.441   0.236  24.904  0.00  0.00    +0.031 C 
ATOM      6  C   UNL     1      -5.031  -0.480  24.892  0.00  0.00    +0.094 C 
ATOM      7  N   UNL     1      -4.206  -0.483  24.909  0.00  0.00    -0.279 N 
ATOM      8  C   UNL     1      -3.791   0.229  24.936  0.00  0.00    +0.094 C 
ATOM      9  C   UNL     1      -4.201   0.945  24.948  0.00  0.00    +0.031 C 
ATOM     10  C   UNL     1      -3.797  -1.199  24.897  0.00  0.00    +0.227 C 
ATOM     11  O   UNL     1      -4.212  -1.912  24.869  0.00  0.00    -0.275 OA
BRANCH   4   2
ATOM      1  N   UNL     1      -5.197   2.285  24.454  0.00  0.00    -0.088 NA
ATOM      2  C   UNL     1      -5.435   1.665  24.943  0.00  0.00    +0.260 C 
ATOM      3  O   UNL     1      -6.083   1.761  25.444  0.00  0.00    -0.272 OA
ENDBRANCH   4   2
ENDBRANCH  12  10
BRANCH  19  20
ATOM     20  C   UNL     1      -0.602  -1.197  24.971  0.00  0.00    +0.145 C 
BRANCH  20  21
ATOM     21  N   UNL     1      -0.352  -0.448  24.732  0.00  0.00    -0.229 N 
ATOM     22  C   UNL     1      -0.694   0.270  24.952  0.00  0.00    +0.118 A 
ATOM     23  C   UNL     1      -0.269   0.876  24.586  0.00  0.00    +0.123 A 
ATOM     24  N   UNL     1       0.334   0.531  24.141  0.00  0.00    -0.129 NA
ATOM     25  N   UNL     1       0.283  -0.286  24.231  0.00  0.00    -0.064 NA
BRANCH  23  26
ATOM     26  C   UNL     1      -0.421   1.684  24.654  0.00  0.00    +0.021 A 
ATOM     27  C   UNL     1      -0.782   2.090  24.033  0.00  0.00    +0.002 A 
ATOM     28  C   UNL     1      -0.934   2.898  24.101  0.00  0.00    +0.000 A 
ATOM     29  C   UNL     1      -0.725   3.299  24.791  0.00  0.00    +0.000 A 
ATOM     30  C   UNL     1      -0.364   2.894  25.411  0.00  0.00    +0.000 A 
ATOM     31  C   UNL     1      -0.212   2.086  25.343  0.00  0.00    +0.002 A 
BRANCH  29  32
ATOM     32  C   UNL     1      -0.877   4.107  24.859  0.00  0.00    +0.000 A 
ATOM     33  C   UNL     1      -0.334   4.656  24.566  0.00  0.00    +0.000 A 
ATOM     34  C   UNL     1      -0.487   5.464  24.635  0.00  0.00    +0.000 A 
ATOM     35  C   UNL     1      -1.182   5.724  24.995  0.00  0.00    +0.000 A 
ATOM     36  C   UNL     1      -1.725   5.176  25.288  0.00  0.00    +0.000 A 
ATOM     37  C   UNL     1      -1.573   4.368  25.219  0.00  0.00    +0.000 A 
ENDBRANCH  29  32
ENDBRANCH  23  26
ENDBRANCH  20  21
ENDBRANCH  19  20
TORSDOF 6
ENDMDL
MODEL 6
REMARK VINA RESULT:     -11.1      2.971      5.422
REMARK  Name = 
REMARK  6 active torsions:
REMARK  status: ('A' for Active; 'I' for Inactive)
REMARK    1  A    between atoms: C_2  and  C_4
REMARK    2  A    between atoms: C_10  and  C_12
REMARK    3  A    between atoms: C_19  and  C_20
REMARK    4  A    between atoms: C_20  and  N_21
REMARK    5  A    between atoms: C_23  and  C_26
REMARK    6  A    between atoms: C_29  and  C_32
REMARK                            x       y       z     vdW  Elec       q    Type
REMARK                         _______ _______ _______ _____ _____    ______ ____
ROOT
ATOM     12  C   UNL     1       1.731  -0.063  22.871  0.00  0.00    +0.093 C 
ATOM     13  C   UNL     1       1.873   0.046  23.628  0.00  0.00    +0.081 C 
ATOM     14  N   UNL     1       1.157  -0.197  23.296  0.00  0.00    -0.272 NA
ATOM     15  C   UNL     1       1.298  -0.247  22.259  0.00  0.00    +0.072 C 
ATOM     16  C   UNL     1       1.069  -0.369  21.659  0.00  0.00    +0.018 C 
ATOM     17  C   UNL     1       1.026  -0.302  22.553  0.00  0.00    +0.013 C 
ATOM     18  C   UNL     1       0.253  -0.500  22.918  0.00  0.00    +0.019 C 
ATOM     19  C   UNL     1       0.350  -0.405  23.669  0.00  0.00    +0.082 C 
ENDROOT
BRANCH  12  10
ATOM      4  C   UNL     1       4.667   0.286  23.199  0.00  0.00    +0.083 C 
ATOM      5  C   UNL     1       4.518   0.355  22.390  0.00  0.00    +0.031 C 
ATOM      6  C   UNL     1       3.746   0.285  22.107  0.00  0.00    +0.094 C 
ATOM      7  N   UNL     1       3.124   0.146  22.631  0.00  0.00    -0.279 N 
ATOM      8  C   UNL     1       3.274   0.077  23.439  0.00  0.00    +0.094 C 
ATOM      9  C   UNL     1       4.046   0.147  23.723  0.00  0.00    +0.031 C 
ATOM     10  C   UNL     1       2.354   0.076  22.346  0.00  0.00    +0.227 C 
ATOM     11  O   UNL     1       2.204   0.145  21.538  0.00  0.00    -0.275 OA
BRANCH   4   2
ATOM      1  N   UNL     1       6.050  -0.069  23.130  0.00  0.00    -0.088 NA
ATOM      2  C   UNL     1       5.439   0.357  23.484  0.00  0.00    +0.260 C 
ATOM      3  O   UNL     1       5.598   0.853  24.123  0.00  0.00    -0.272 OA
ENDBRANCH   4   2
ENDBRANCH  12  10
BRANCH  19  20
ATOM     20  C   UNL     1      -0.043  -0.458  24.392  0.00  0.00    +0.145 C 
BRANCH  20  21
ATOM     21  N   UNL     1      -0.867  -0.483  24.413  0.00  0.00    -0.229 N 
ATOM     22  C   UNL     1      -1.367   0.153  24.576  0.00  0.00    +0.118 A 
ATOM     23  C   UNL     1      -2.145  -0.120  24.538  0.00  0.00    +0.123 A 
ATOM     24  N   UNL     1      -2.125  -0.923  24.352  0.00  0.00    -0.129 NA
ATOM     25  N   UNL     1      -1.336  -1.147  24.275  0.00  0.00    -0.064 NA
BRANCH  23  26
ATOM     26  C   UNL     1      -2.824   0.332  24.664  0.00  0.00    +0.021 A 
ATOM     27  C   UNL     1      -3.421   0.051  25.160  0.00  0.00    +0.002 A 
ATOM     28  C   UNL     1      -4.099   0.503  25.287  0.00  0.00    +0.000 A 
ATOM     29  C   UNL     1      -4.180   1.236  24.917  0.00  0.00    +0.000 A 
ATOM     30  C   UNL     1      -3.584   1.517  24.421  0.00  0.00    +0.000 A 
ATOM     31  C   UNL     1      -2.906   1.065  24.295  0.00  0.00    +0.002 A 
BRANCH  29  32
ATOM     32  C   UNL     1      -4.859   1.688  25.043  0.00  0.00    +0.000 A 
ATOM     33  C   UNL     1      -4.794   2.459  25.331  0.00  0.00    +0.000 A 
ATOM     34  C   UNL     1      -5.473   2.911  25.457  0.00  0.00    +0.000 A 
ATOM     35  C   UNL     1      -6.216   2.593  25.296  0.00  0.00    +0.000 A 
ATOM     36  C   UNL     1      -6.282   1.822  25.008  0.00  0.00    +0.000 A 
ATOM     37  C   UNL     1      -5.603   1.370  24.882  0.00  0.00    +0.000 A 
ENDBRANCH  29  32
ENDBRANCH  23  26
ENDBRANCH  20  21
ENDBRANCH  19  20
TORSDOF 6
ENDMDL
