MODEL 1
REMARK VINA RESULT:     -14.2      0.000      0.000
REMARK  Name = 
REMARK  4 active torsions:
REMARK  status: ('A' for Active; 'I' for Inactive)
REMARK    1  A    between atoms: C_2  and  C_3
REMARK    2  A    between atoms: C_2  and  C_25
REMARK    3  A    between atoms: C_10  and  N_11
REMARK    4  A    between atoms: C_12  and  C_14
REMARK                            x       y       z     vdW  Elec       q    Type
REMARK                         _______ _______ _______ _____ _____    ______ ____
ROOT
ATOM      3  C   UNL     1      -4.320   0.343  24.723  0.00  0.00    +0.039 C 
ATOM      4  C   UNL     1      -5.024   0.591  25.075  0.00  0.00    +0.003 C 
ATOM      5  C   UNL     1      -5.128   1.385  25.274  0.00  0.00    +0.000 C 
ATOM      6  C   UNL     1      -4.529   1.930  25.121  0.00  0.00    +0.002 C 
ATOM      7  C   UNL     1      -5.232   2.178  25.473  0.00  0.00    +0.000 C 
ATOM      8  C   UNL     1      -4.632   2.724  25.320  0.00  0.00    +0.002 C 
ATOM      9  C   UNL     1      -4.033   3.269  25.167  0.00  0.00    +0.022 C 
ATOM     10  C   UNL     1      -3.328   3.021  24.815  0.00  0.00    +0.096 C 
ATOM     20  C   UNL     1      -3.225   2.227  24.616  0.00  0.00    +0.022 C 
ATOM     21  C   UNL     1      -2.521   1.979  24.264  0.00  0.00    +0.002 C 
ATOM     22  C   UNL     1      -3.824   1.681  24.769  0.00  0.00    +0.032 C 
ATOM     23  C   UNL     1      -3.720   0.888  24.570  0.00  0.00    +0.152 C 
ATOM     24  O   UNL     1      -3.017   0.640  24.218  0.00  0.00    -0.223 OA
ENDROOT
BRANCH  10  11
ATOM     11  N   UNL     1      -2.729   3.567  24.662  0.00  0.00    -0.203 NA
ATOM     12  C   UNL     1      -2.406   4.008  25.279  0.00  0.00    +0.265 C 
ATOM     13  O   UNL     1      -2.682   3.904  26.050  0.00  0.00    -0.268 OA
BRANCH  12  14
ATOM     14  C   UNL     1      -1.806   4.555  25.126  0.00  0.00    +0.058 A 
ATOM     15  C   UNL     1      -1.980   5.360  25.091  0.00  0.00    +0.025 A 
ATOM     16  C   UNL     1      -1.381   5.906  24.939  0.00  0.00    +0.099 A 
ATOM     17  N   UNL     1      -0.607   5.646  24.821  0.00  0.00    -0.242 NA
ATOM     18  C   UNL     1      -0.432   4.839  24.856  0.00  0.00    +0.099 A 
ATOM     19  C   UNL     1      -1.032   4.294  25.008  0.00  0.00    +0.025 A 
ENDBRANCH  12  14
ENDBRANCH  10  11
BRANCH   3   2
ATOM      1  C   UNL     1      -4.388  -0.713  23.760  0.00  0.00    +0.010 C 
ATOM      2  C   UNL     1      -4.216  -0.452  24.524  0.00  0.00    +0.079 C 
BRANCH   2  25
ATOM     25  C   UNL     1      -3.941  -0.985  25.090  0.00  0.00    +0.225 C 
ATOM     26  O   UNL     1      -3.841  -0.742  25.873  0.00  0.00    -0.275 OA
ATOM     27  N   UNL     1      -3.765  -1.763  24.873  0.00  0.00    -0.280 N 
ATOM     28  C   UNL     1      -3.491  -2.296  25.438  0.00  0.00    +0.093 C 
ATOM     29  C   UNL     1      -3.315  -3.072  25.223  0.00  0.00    +0.022 C 
ATOM     30  C   UNL     1      -3.415  -3.314  24.441  0.00  0.00    +0.004 C 
ATOM     31  C   UNL     1      -3.690  -2.781  23.876  0.00  0.00    +0.022 C 
ATOM     32  C   UNL     1      -3.866  -2.005  24.091  0.00  0.00    +0.093 C 
ENDBRANCH   2  25
ENDBRANCH   3   2
TORSDOF 4
ENDMDL
MODEL 2
REMARK VINA RESULT:     -13.1      0.803      5.444
REMARK  Name = 
REMARK  4 active torsions:
REMARK  status: ('A' for Active; 'I' for Inactive)
REMARK    1  A    between atoms: C_2  and  C_3
REMARK    2  A    between atoms: C_2  and  C_25
REMARK    3  A    between atoms: C_10  and  N_11
REMARK    4  A    between atoms: C_12  and  C_14
REMARK                            x       y       z     vdW  Elec       q    Type
REMARK                         _______ _______ _______ _____ _____    ______ ____
ROOT
ATOM      3  C   UNL     1      -3.893   3.121  24.703  0.00  0.00    +0.039 C 
ATOM      4  C   UNL     1      -4.566   3.221  25.170  0.00  0.00    +0.003 C 
ATOM      5  C   UNL     1      -5.026   2.568  25.376  0.00  0.00    +0.000 C 
ATOM      6  C   UNL     1      -4.813   1.815  25.116  0.00  0.00    +0.002 C 
ATOM      7  C   UNL     1      -5.485   1.915  25.582  0.00  0.00    +0.000 C 
ATOM      8  C   UNL     1      -5.272   1.162  25.322  0.00  0.00    +0.002 C 
ATOM      9  C   UNL     1      -5.059   0.409  25.061  0.00  0.00    +0.022 C 
ATOM     10  C   UNL     1      -4.386   0.309  24.594  0.00  0.00    +0.096 C 
ATOM     20  C   UNL     1      -3.926   0.962  24.388  0.00  0.00    +0.022 C 
ATOM     21  C   UNL     1      -3.253   0.862  23.921  0.00  0.00    +0.002 C 
ATOM     22  C   UNL     1      -4.139   1.715  24.648  0.00  0.00    +0.032 C 
ATOM     23  C   UNL     1      -3.680   2.368  24.442  0.00  0.00    +0.152 C 
ATOM     24  O   UNL     1      -3.007   2.268  23.976  0.00  0.00    -0.223 OA
ENDROOT
BRANCH  10  11
ATOM     11  N   UNL     1      -4.173  -0.445  24.334  0.00  0.00    -0.203 NA
ATOM     12  C   UNL     1      -4.017  -1.042  24.881  0.00  0.00    +0.265 C 
ATOM     13  O   UNL     1      -4.074  -0.886  25.690  0.00  0.00    -0.268 OA
BRANCH  12  14
ATOM     14  C   UNL     1      -3.804  -1.795  24.620  0.00  0.00    +0.058 A 
ATOM     15  C   UNL     1      -4.225  -2.156  24.010  0.00  0.00    +0.025 A 
ATOM     16  C   UNL     1      -4.012  -2.909  23.750  0.00  0.00    +0.099 A 
ATOM     17  N   UNL     1      -3.378  -3.302  24.101  0.00  0.00    -0.242 NA
ATOM     18  C   UNL     1      -2.956  -2.942  24.712  0.00  0.00    +0.099 A 
ATOM     19  C   UNL     1      -3.170  -2.189  24.972  0.00  0.00    +0.025 A 
ENDBRANCH  12  14
ENDBRANCH  10  11
BRANCH   3   2
ATOM      1  C   UNL     1      -3.386   4.015  23.709  0.00  0.00    +0.010 C 
ATOM      2  C   UNL     1      -3.433   3.775  24.497  0.00  0.00    +0.079 C 
BRANCH   2  25
ATOM     25  C   UNL     1      -3.021   4.188  25.079  0.00  0.00    +0.225 C 
ATOM     26  O   UNL     1      -3.397   4.393  25.785  0.00  0.00    -0.275 OA
ATOM     27  N   UNL     1      -2.232   4.398  24.957  0.00  0.00    -0.280 N 
ATOM     28  C   UNL     1      -1.820   4.811  25.539  0.00  0.00    +0.093 C 
ATOM     29  C   UNL     1      -1.031   5.021  25.417  0.00  0.00    +0.022 C 
ATOM     30  C   UNL     1      -0.656   4.816  24.712  0.00  0.00    +0.004 C 
ATOM     31  C   UNL     1      -1.068   4.403  24.130  0.00  0.00    +0.022 C 
ATOM     32  C   UNL     1      -1.856   4.193  24.252  0.00  0.00    +0.093 C 
ENDBRANCH   2  25
ENDBRANCH   3   2
TORSDOF 4
ENDMDL
MODEL 3
REMARK VINA RESULT:     -12.3      1.610      2.512
REMARK  Name = 
REMARK  4 active torsions:
REMARK  status: ('A' for Active; 'I' for Inactive)
REMARK    1  A    between atoms: C_2  and  C_3
REMARK    2  A    between atoms: C_2  and  C_25
REMARK    3  A    between atoms: C_10  and  N_11
REMARK    4  A    between atoms: C_12  and  C_14
REMARK                            x       y       z     vdW  Elec       q    Type
REMARK                         _______ _______ _______ _____ _____    ______ ____
ROOT
ATOM      3  C   UNL     1      -2.021  -0.697  25.152  0.00  0.00    +0.039 C 
ATOM      4  C   UNL     1      -1.258  -0.961  24.980  0.00  0.00    +0.003 C 
ATOM      5  C   UNL     1      -0.670  -0.419  24.780  0.00  0.00    +0.000 C 
ATOM      6  C   UNL     1      -0.843   0.386  24.752  0.00  0.00    +0.002 C 
ATOM      7  C   UNL     1      -0.082   0.123  24.581  0.00  0.00    +0.000 C 
ATOM      8  C   UNL     1      -0.255   0.929  24.553  0.00  0.00    +0.002 C 
ATOM      9  C   UNL     1      -0.428   1.734  24.525  0.00  0.00    +0.022 C 
ATOM     10  C   UNL     1      -1.192   1.998  24.697  0.00  0.00    +0.096 C 
ATOM     20  C   UNL     1      -1.780   1.457  24.896  0.00  0.00    +0.022 C 
ATOM     21  C   UNL     1      -2.542   1.720  25.068  0.00  0.00    +0.002 C 
ATOM     22  C   UNL     1      -1.607   0.650  24.924  0.00  0.00    +0.032 C 
ATOM     23  C   UNL     1      -2.195   0.108  25.124  0.00  0.00    +0.152 C 
ATOM     24  O   UNL     1      -2.958   0.372  25.296  0.00  0.00    -0.223 OA
ENDROOT
BRANCH  10  11
ATOM     11  N   UNL     1      -1.365   2.805  24.669  0.00  0.00    -0.203 NA
ATOM     12  C   UNL     1      -0.914   3.339  25.105  0.00  0.00    +0.265 C 
ATOM     13  O   UNL     1      -0.289   3.068  25.571  0.00  0.00    -0.268 OA
BRANCH  12  14
ATOM     14  C   UNL     1      -1.087   4.146  25.077  0.00  0.00    +0.058 A 
ATOM     15  C   UNL     1      -0.571   4.666  24.700  0.00  0.00    +0.025 A 
ATOM     16  C   UNL     1      -0.744   5.472  24.671  0.00  0.00    +0.099 A 
ATOM     17  N   UNL     1      -1.435   5.758  25.021  0.00  0.00    -0.242 NA
ATOM     18  C   UNL     1      -1.952   5.237  25.399  0.00  0.00    +0.099 A 
ATOM     19  C   UNL     1      -1.778   4.431  25.427  0.00  0.00    +0.025 A 
ENDBRANCH  12  14
ENDBRANCH  10  11
BRANCH   3   2
ATOM      1  C   UNL     1      -3.187  -1.040  25.907  0.00  0.00    +0.010 C 
ATOM      2  C   UNL     1      -2.610  -1.240  25.352  0.00  0.00    +0.079 C 
BRANCH   2  25
ATOM     25  C   UNL     1      -2.622  -1.984  24.996  0.00  0.00    +0.225 C 
ATOM     26  O   UNL     1      -1.994  -2.508  25.113  0.00  0.00    -0.275 OA
ATOM     27  N   UNL     1      -3.261  -2.206  24.523  0.00  0.00    -0.280 N 
ATOM     28  C   UNL     1      -3.273  -2.949  24.168  0.00  0.00    +0.093 C 
ATOM     29  C   UNL     1      -3.911  -3.171  23.695  0.00  0.00    +0.022 C 
ATOM     30  C   UNL     1      -4.538  -2.648  23.578  0.00  0.00    +0.004 C 
ATOM     31  C   UNL     1      -4.526  -1.904  23.933  0.00  0.00    +0.022 C 
ATOM     32  C   UNL     1      -3.888  -1.682  24.406  0.00  0.00    +0.093 C 
ENDBRANCH   2  25
ENDBRANCH   3   2
TORSDOF 4
ENDMDL
MODEL 4
REMARK VINA RESULT:     -12.1      3.100      4.666
REMARK  Name = 
REMARK  4 active torsions:
REMARK  status: ('A' for Active; 'I' for Inactive)
REMARK    1  A    between atoms: C_2  and  C_3
REMARK    2  A    between atoms: C_2  and  C_25
REMARK    3  A    between atoms: C_10  and  N_11
REMARK    4  A    between atoms: C_12  and  C_14
REMARK                            x       y       z     vdW  Elec       q    Type
REMARK                         _______ _______ _______ _____ _____    ______ ____
ROOT
ATOM      3  C   UNL     1      -2.948   1.397  24.486  0.00  0.00    +0.039 C 
ATOM      4  C   UNL     1      -3.041   0.774  25.021  0.00  0.00    +0.003 C 
ATOM      5  C   UNL     1      -2.421   0.247  25.151  0.00  0.00    +0.000 C 
ATOM      6  C   UNL     1      -1.709   0.340  24.747  0.00  0.00    +0.002 C 
ATOM      7  C   UNL     1      -1.801  -0.281  25.280  0.00  0.00    +0.000 C 
ATOM      8  C   UNL     1      -1.088  -0.188  24.876  0.00  0.00    +0.002 C 
ATOM      9  C   UNL     1      -0.375  -0.095  24.472  0.00  0.00    +0.022 C 
ATOM     10  C   UNL     1      -0.283   0.527  23.937  0.00  0.00    +0.096 C 
ATOM     20  C   UNL     1      -0.902   1.055  23.807  0.00  0.00    +0.022 C 
ATOM     21  C   UNL     1      -0.810   1.676  23.273  0.00  0.00    +0.002 C 
ATOM     22  C   UNL     1      -1.616   0.962  24.211  0.00  0.00    +0.032 C 
ATOM     23  C   UNL     1      -2.236   1.490  24.082  0.00  0.00    +0.152 C 
ATOM     24  O   UNL     1      -2.143   2.111  23.547  0.00  0.00    -0.223 OA
ENDROOT
BRANCH  10  11
ATOM     11  N   UNL     1       0.431   0.620  23.533  0.00  0.00    -0.203 NA
ATOM     12  C   UNL     1       0.856  -0.043  23.287  0.00  0.00    +0.265 C 
ATOM     13  O   UNL     1       0.567  -0.800  23.446  0.00  0.00    -0.268 OA
BRANCH  12  14
ATOM     14  C   UNL     1       1.569   0.050  22.883  0.00  0.00    +0.058 A 
ATOM     15  C   UNL     1       2.205   0.427  23.249  0.00  0.00    +0.025 A 
ATOM     16  C   UNL     1       2.918   0.519  22.844  0.00  0.00    +0.099 A 
ATOM     17  N   UNL     1       2.995   0.235  22.074  0.00  0.00    -0.242 NA
ATOM     18  C   UNL     1       2.358  -0.142  21.707  0.00  0.00    +0.099 A 
ATOM     19  C   UNL     1       1.646  -0.234  22.112  0.00  0.00    +0.025 A 
ENDBRANCH  12  14
ENDBRANCH  10  11
BRANCH   3   2
ATOM      1  C   UNL     1      -3.912   1.984  23.608  0.00  0.00    +0.010 C 
ATOM      2  C   UNL     1      -3.569   1.925  24.356  0.00  0.00    +0.079 C 
BRANCH   2  25
ATOM     25  C   UNL     1      -3.847   2.394  24.975  0.00  0.00    +0.225 C 
ATOM     26  O   UNL     1      -3.323   2.873  25.397  0.00  0.00    -0.275 OA
ATOM     27  N   UNL     1      -4.648   2.384  25.173  0.00  0.00    -0.280 N 
ATOM     28  C   UNL     1      -4.926   2.853  25.791  0.00  0.00    +0.093 C 
ATOM     29  C   UNL     1      -5.726   2.844  25.990  0.00  0.00    +0.022 C 
ATOM     30  C   UNL     1      -6.249   2.365  25.568  0.00  0.00    +0.004 C 
ATOM     31  C   UNL     1      -5.971   1.896  24.950  0.00  0.00    +0.022 C 
ATOM     32  C   UNL     1      -5.171   1.905  24.752  0.00  0.00    +0.093 C 
ENDBRANCH   2  25
ENDBRANCH   3   2
TORSDOF 4
ENDMDL
MODEL 5
REMARK VINA RESULT:     -11.8      2.783      4.414
REMARK  Name = 
REMARK  4 active torsions:
REMARK  status: ('A' for Active; 'I' for Inactive)
REMARK    1  A    between atoms: C_2  and  C_3
REMARK    2  A    between atoms: C_2  and  C_25
REMARK    3  A    between atoms: C_10  and  N_11
REMARK    4  A    between atoms: C_12  and  C_14
REMARK                            x       y       z     vdW  Elec       q    Type
REMARK                         _______ _______ _______ _____ _____    ______ ____
ROOT
ATOM      3  C   UNL     1      -3.178   3.383  24.871  0.00  0.00    +0.039 C 
ATOM      4  C   UNL     1      -2.854   3.781  25.518  0.00  0.00    +0.003 C 
ATOM      5  C   UNL     1      -2.049   3.711  25.683  0.00  0.00    +0.000 C 
ATOM      6  C   UNL     1      -1.568   3.245  25.202  0.00  0.00    +0.002 C 
ATOM      7  C   UNL     1      -1.244   3.642  25.848  0.00  0.00    +0.000 C 
ATOM      8  C   UNL     1      -0.762   3.175  25.367  0.00  0.00    +0.002 C 
ATOM      9  C   UNL     1      -0.281   2.709  24.887  0.00  0.00    +0.022 C 
ATOM     10  C   UNL     1      -0.606   2.311  24.239  0.00  0.00    +0.096 C 
ATOM     20  C   UNL     1      -1.411   2.381  24.074  0.00  0.00    +0.022 C 
ATOM     21  C   UNL     1      -1.735   1.984  23.428  0.00  0.00    +0.002 C 
ATOM     22  C   UNL     1      -1.893   2.847  24.555  0.00  0.00    +0.032 C 
ATOM     23  C   UNL     1      -2.697   2.917  24.390  0.00  0.00    +0.152 C 
ATOM     24  O   UNL     1      -3.021   2.519  23.744  0.00  0.00    -0.223 OA
ENDROOT
BRANCH  10  11
ATOM     11  N   UNL     1      -0.124   1.845  23.759  0.00  0.00    -0.203 NA
ATOM     12  C   UNL     1       0.360   1.268  24.094  0.00  0.00    +0.265 C 
ATOM     13  O   UNL     1       0.363   1.157  24.913  0.00  0.00    -0.268 OA
BRANCH  12  14
ATOM     14  C   UNL     1       0.842   0.802  23.614  0.00  0.00    +0.058 A 
ATOM     15  C   UNL     1       0.558   0.089  23.312  0.00  0.00    +0.025 A 
ATOM     16  C   UNL     1       1.040  -0.377  22.831  0.00  0.00    +0.099 A 
ATOM     17  N   UNL     1       1.806  -0.130  22.652  0.00  0.00    -0.242 NA
ATOM     18  C   UNL     1       2.091   0.584  22.954  0.00  0.00    +0.099 A 
ATOM     19  C   UNL     1       1.608   1.049  23.435  0.00  0.00    +0.025 A 
ENDBRANCH  12  14
ENDBRANCH  10  11
BRANCH   3   2
ATOM      1  C   UNL     1      -4.241   3.529  23.926  0.00  0.00    +0.010 C 
ATOM      2  C   UNL     1      -3.984   3.453  24.706  0.00  0.00    +0.079 C 
BRANCH   2  25
ATOM     25  C   UNL     1      -4.532   3.446  25.322  0.00  0.00    +0.225 C 
ATOM     26  O   UNL     1      -4.497   4.022  25.913  0.00  0.00    -0.275 OA
ATOM     27  N   UNL     1      -5.117   2.864  25.348  0.00  0.00    -0.280 N 
ATOM     28  C   UNL     1      -5.665   2.857  25.964  0.00  0.00    +0.093 C 
ATOM     29  C   UNL     1      -6.249   2.276  25.990  0.00  0.00    +0.022 C 
ATOM     30  C   UNL     1      -6.285   1.701  25.400  0.00  0.00    +0.004 C 
ATOM     31  C   UNL     1      -5.737   1.707  24.784  0.00  0.00    +0.022 C 
ATOM     32  C   UNL     1      -5.152   2.289  24.758  0.00  0.00    +0.093 C 
ENDBRANCH   2  25
ENDBRANCH   3   2
TORSDOF 4
ENDMDL
