MODEL 1
REMARK VINA RESULT:     -14.2      0.000      0.000
REMARK  Name = 
REMARK  5 active torsions:
REMARK  status: ('A' for Active; 'I' for Inactive)
REMARK    1  A    between atoms: O_2  and  C_3
REMARK    2  A    between atoms: C_8  and  N_9
REMARK    3  A    between atoms: N_12  and  C_13
REMARK    4  A    between atoms: C_23  and  C_25
REMARK    5  A    between atoms: C_25  and  C_26
REMARK                            x       y       z     vdW  Elec       q    Type
REMARK                         _______ _______ _______ _____ _____    ______ ____
ROOT
ATOM     13  C   UNL     1      -3.975   1.243  24.692  0.00  0.00    +0.131 A 
ATOM     14  C   UNL     1      -4.711   1.015  24.987  0.00  0.00    +0.023 A 
ATOM     15  C   UNL     1      -5.235   1.583  25.275  0.00  0.00    +0.014 A 
ATOM     16  C   UNL     1      -5.022   2.380  25.269  0.00  0.00    +0.041 A 
ATOM     17  C   UNL     1      -5.348   3.208  25.499  0.00  0.00    +0.058 C 
ATOM     18  C   UNL     1      -5.912   3.519  25.778  0.00  0.00    +0.011 C 
ATOM     19  C   UNL     1      -5.184   3.741  25.486  0.00  0.00    +0.043 C 
ATOM     20  C   UNL     1      -4.365   4.200  25.180  0.00  0.00    +0.095 C 
ATOM     21  N   UNL     1      -3.924   3.540  24.918  0.00  0.00    -0.279 N 
ATOM     22  C   UNL     1      -4.562   3.666  25.208  0.00  0.00    +0.099 C 
ATOM     23  C   UNL     1      -3.294   3.113  24.599  0.00  0.00    +0.226 C 
ATOM     24  O   UNL     1      -2.615   3.507  24.347  0.00  0.00    -0.275 OA
ATOM     30  C   UNL     1      -4.835   2.880  25.242  0.00  0.00    +0.110 C 
ATOM     31  N   UNL     1      -4.285   2.608  24.974  0.00  0.00    -0.298 N 
ATOM     32  C   UNL     1      -3.762   2.039  24.686  0.00  0.00    +0.276 A 
ATOM     33  O   UNL     1      -3.062   1.760  24.352  0.00  0.00    -0.266 OA
ENDROOT
BRANCH  13  12
ATOM      9  N   UNL     1      -3.124  -0.696  24.159  0.00  0.00    -0.158 NA
ATOM     10  C   UNL     1      -3.648  -0.127  24.448  0.00  0.00    +0.348 C 
ATOM     11  O   UNL     1      -4.367  -0.358  24.780  0.00  0.00    -0.248 OA
ATOM     12  N   UNL     1      -3.452   0.673  24.404  0.00  0.00    -0.156 NA
BRANCH   9   8
ATOM      3  C   UNL     1      -2.776  -2.038  24.504  0.00  0.00    +0.154 A 
ATOM      4  C   UNL     1      -2.972  -2.838  24.547  0.00  0.00    +0.038 A 
ATOM      5  C   UNL     1      -3.712  -3.096  24.290  0.00  0.00    +0.003 A 
ATOM      6  C   UNL     1      -4.256  -2.554  23.989  0.00  0.00    +0.002 A 
ATOM      7  C   UNL     1      -4.061  -1.754  23.945  0.00  0.00    +0.020 A 
ATOM      8  C   UNL     1      -3.320  -1.496  24.203  0.00  0.00    +0.109 A 
BRANCH   3   2
ATOM      1  C   UNL     1      -1.403  -2.308  24.793  0.00  0.00    +0.253 C 
ATOM      2  O   UNL     1      -2.036  -1.780  24.761  0.00  0.00    -0.470 OA
ENDBRANCH   3   2
ENDBRANCH   9   8
ENDBRANCH  13  12
BRANCH  23  25
ATOM     25  C   UNL     1      -3.344   2.292  24.532  0.00  0.00    +0.085 C 
BRANCH  25  26
ATOM     26  C   UNL     1      -2.724   1.868  24.192  0.00  0.00    +0.009 C 
ATOM     27  C   UNL     1      -2.103   1.443  23.853  0.00  0.00    +0.000 C 
ATOM     28  C   UNL     1      -2.373   1.788  24.935  0.00  0.00    +0.000 C 
ATOM     29  C   UNL     1      -3.075   1.947  23.450  0.00  0.00    +0.000 C 
ENDBRANCH  25  26
ENDBRANCH  23  25
TORSDOF 5
ENDMDL
MODEL 2
REMARK VINA RESULT:     -13.9      1.682      4.747
REMARK  Name = 
REMARK  5 active torsions:
REMARK  status: ('A' for Active; 'I' for Inactive)
REMARK    1  A    between atoms: O_2  and  C_3
REMARK    2  A    between atoms: C_8  and  N_9
REMARK    3  A    between atoms: N_12  and  C_13
REMARK    4  A    between atoms: C_23  and  C_25
REMARK    5  A    between atoms: C_25  and  C_26
REMARK                            x       y       z     vdW  Elec       q    Type
REMARK                         _______ _______ _______ _____ _____    ______ ____
ROOT
ATOM     13  C   UNL     1      -2.576   0.240  24.790  0.00  0.00    +0.131 A 
ATOM     14  C   UNL     1      -3.328   0.483  24.553  0.00  0.00    +0.023 A 
ATOM     15  C   UNL     1      -3.883  -0.075  24.306  0.00  0.00    +0.014 A 
ATOM     16  C   UNL     1      -3.686  -0.876  24.296  0.00  0.00    +0.041 A 
ATOM     17  C   UNL     1      -4.045  -1.696  24.091  0.00  0.00    +0.058 C 
ATOM     18  C   UNL     1      -4.635  -1.996  23.857  0.00  0.00    +0.011 C 
ATOM     19  C   UNL     1      -3.891  -2.232  24.092  0.00  0.00    +0.043 C 
ATOM     20  C   UNL     1      -3.060  -2.708  24.334  0.00  0.00    +0.095 C 
ATOM     21  N   UNL     1      -2.587  -2.058  24.561  0.00  0.00    -0.279 N 
ATOM     22  C   UNL     1      -3.248  -2.170  24.321  0.00  0.00    +0.099 C 
ATOM     23  C   UNL     1      -1.926  -1.643  24.831  0.00  0.00    +0.226 C 
ATOM     24  O   UNL     1      -1.238  -2.050  25.029  0.00  0.00    -0.275 OA
ATOM     30  C   UNL     1      -3.508  -1.379  24.308  0.00  0.00    +0.110 C 
ATOM     31  N   UNL     1      -2.934  -1.118  24.533  0.00  0.00    -0.298 N 
ATOM     32  C   UNL     1      -2.379  -0.560  24.780  0.00  0.00    +0.276 A 
ATOM     33  O   UNL     1      -1.649  -0.296  25.059  0.00  0.00    -0.266 OA
ENDROOT
BRANCH  13  12
ATOM      9  N   UNL     1      -1.675   2.154  25.331  0.00  0.00    -0.158 NA
ATOM     10  C   UNL     1      -2.230   1.595  25.084  0.00  0.00    +0.348 C 
ATOM     11  O   UNL     1      -2.995   1.834  24.884  0.00  0.00    -0.248 OA
ATOM     12  N   UNL     1      -2.021   0.799  25.037  0.00  0.00    -0.156 NA
BRANCH   9   8
ATOM      3  C   UNL     1      -1.395   3.525  25.045  0.00  0.00    +0.154 A 
ATOM      4  C   UNL     1      -1.604   4.322  25.092  0.00  0.00    +0.038 A 
ATOM      5  C   UNL     1      -2.302   4.543  25.472  0.00  0.00    +0.003 A 
ATOM      6  C   UNL     1      -2.791   3.969  25.805  0.00  0.00    +0.002 A 
ATOM      7  C   UNL     1      -2.582   3.172  25.758  0.00  0.00    +0.020 A 
ATOM      8  C   UNL     1      -1.884   2.951  25.378  0.00  0.00    +0.109 A 
BRANCH   3   2
ATOM      1  C   UNL     1      -0.204   3.880  24.341  0.00  0.00    +0.253 C 
ATOM      2  O   UNL     1      -0.698   3.304  24.665  0.00  0.00    -0.470 OA
ENDBRANCH   3   2
ENDBRANCH   9   8
ENDBRANCH  13  12
BRANCH  23  25
ATOM     25  C   UNL     1      -1.955  -0.821  24.901  0.00  0.00    +0.085 C 
BRANCH  25  26
ATOM     26  C   UNL     1      -1.292  -0.407  25.163  0.00  0.00    +0.009 C 
ATOM     27  C   UNL     1      -0.628   0.008  25.425  0.00  0.00    +0.000 C 
ATOM     28  C   UNL     1      -1.545  -0.497  25.943  0.00  0.00    +0.000 C 
ATOM     29  C   UNL     1      -1.039  -0.317  24.383  0.00  0.00    +0.000 C 
ENDBRANCH  25  26
ENDBRANCH  23  25
TORSDOF 5
ENDMDL
MODEL 3
REMARK VINA RESULT:     -13.7      1.427      4.979
REMARK  Name = 
REMARK  5 active torsions:
REMARK  status: ('A' for Active; 'I' for Inactive)
REMARK    1  A    between atoms: O_2  and  C_3
REMARK    2  A    between atoms: C_8  and  N_9
REMARK    3  A    between atoms: N_12  and  C_13
REMARK    4  A    between atoms: C_23  and  C_25
REMARK    5  A    between atoms: C_25  and  C_26
REMARK                            x       y       z     vdW  Elec       q    Type
REMARK                         _______ _______ _______ _____ _____    ______ ____
ROOT
ATOM     13  C   UNL     1      -2.509   0.323  24.731  0.00  0.00    +0.131 A 
ATOM     14  C   UNL     1      -1.706   0.189  24.870  0.00  0.00    +0.023 A 
ATOM     15  C   UNL     1      -1.410  -0.581  24.870  0.00  0.00    +0.014 A 
ATOM     16  C   UNL     1      -1.916  -1.217  24.731  0.00  0.00    +0.041 A 
ATOM     17  C   UNL     1      -1.910  -2.134  24.667  0.00  0.00    +0.058 C 
ATOM     18  C   UNL     1      -1.477  -2.685  24.708  0.00  0.00    +0.011 C 
ATOM     19  C   UNL     1      -2.269  -2.550  24.571  0.00  0.00    +0.043 C 
ATOM     20  C   UNL     1      -3.239  -2.590  24.389  0.00  0.00    +0.095 C 
ATOM     21  N   UNL     1      -3.420  -1.775  24.413  0.00  0.00    -0.279 N 
ATOM     22  C   UNL     1      -2.846  -2.190  24.490  0.00  0.00    +0.099 C 
ATOM     23  C   UNL     1      -3.873  -1.086  24.379  0.00  0.00    +0.226 C 
ATOM     24  O   UNL     1      -4.682  -1.131  24.226  0.00  0.00    -0.275 OA
ATOM     30  C   UNL     1      -2.286  -1.592  24.636  0.00  0.00    +0.110 C 
ATOM     31  N   UNL     1      -2.719  -1.083  24.592  0.00  0.00    -0.298 N 
ATOM     32  C   UNL     1      -3.015  -0.313  24.592  0.00  0.00    +0.276 A 
ATOM     33  O   UNL     1      -3.592   0.272  24.527  0.00  0.00    -0.266 OA
ENDROOT
BRANCH  13  12
ATOM      9  N   UNL     1      -2.588   2.502  24.838  0.00  0.00    -0.158 NA
ATOM     10  C   UNL     1      -2.292   1.731  24.838  0.00  0.00    +0.348 C 
ATOM     11  O   UNL     1      -1.484   1.599  24.943  0.00  0.00    -0.248 OA
ATOM     12  N   UNL     1      -2.804   1.093  24.732  0.00  0.00    -0.156 NA
BRANCH   9   8
ATOM      3  C   UNL     1      -2.293   3.765  25.437  0.00  0.00    +0.154 A 
ATOM      4  C   UNL     1      -1.782   4.403  25.543  0.00  0.00    +0.038 A 
ATOM      5  C   UNL     1      -1.053   4.416  25.155  0.00  0.00    +0.003 A 
ATOM      6  C   UNL     1      -0.836   3.792  24.662  0.00  0.00    +0.002 A 
ATOM      7  C   UNL     1      -1.348   3.153  24.556  0.00  0.00    +0.020 A 
ATOM      8  C   UNL     1      -2.076   3.140  24.944  0.00  0.00    +0.109 A 
BRANCH   3   2
ATOM      1  C   UNL     1      -3.228   4.365  26.335  0.00  0.00    +0.253 C 
ATOM      2  O   UNL     1      -3.021   3.752  25.824  0.00  0.00    -0.470 OA
ENDBRANCH   3   2
ENDBRANCH   9   8
ENDBRANCH  13  12
BRANCH  23  25
ATOM     25  C   UNL     1      -3.516  -0.351  24.497  0.00  0.00    +0.085 C 
BRANCH  25  26
ATOM     26  C   UNL     1      -3.971   0.336  24.474  0.00  0.00    +0.009 C 
ATOM     27  C   UNL     1      -4.426   1.024  24.450  0.00  0.00    +0.000 C 
ATOM     28  C   UNL     1      -3.806   0.418  23.669  0.00  0.00    +0.000 C 
ATOM     29  C   UNL     1      -4.137   0.256  25.278  0.00  0.00    +0.000 C 
ENDBRANCH  25  26
ENDBRANCH  23  25
TORSDOF 5
ENDMDL
MODEL 4
REMARK VINA RESULT:     -13.7      1.349      2.369
REMARK  Name = 
REMARK  5 active torsions:
REMARK  status: ('A' for Active; 'I' for Inactive)
REMARK    1  A    between atoms: O_2  and  C_3
REMARK    2  A    between atoms: C_8  and  N_9
REMARK    3  A    between atoms: N_12  and  C_13
REMARK    4  A    between atoms: C_23  and  C_25
REMARK    5  A    between atoms: C_25  and  C_26
REMARK                            x       y       z     vdW  Elec       q    Type
REMARK                         _______ _______ _______ _____ _____    ______ ____
ROOT
ATOM     13  C   UNL     1      -2.782   1.800  24.979  0.00  0.00    +0.131 A 
ATOM     14  C   UNL     1      -2.007   1.572  25.147  0.00  0.00    +0.023 A 
ATOM     15  C   UNL     1      -1.421   2.144  25.247  0.00  0.00    +0.014 A 
ATOM     16  C   UNL     1      -1.611   2.944  25.178  0.00  0.00    +0.041 A 
ATOM     17  C   UNL     1      -1.223   3.776  25.227  0.00  0.00    +0.058 C 
ATOM     18  C   UNL     1      -0.606   4.090  25.343  0.00  0.00    +0.011 C 
ATOM     19  C   UNL     1      -1.372   4.311  25.176  0.00  0.00    +0.043 C 
ATOM     20  C   UNL     1      -2.225   4.771  24.983  0.00  0.00    +0.095 C 
ATOM     21  N   UNL     1      -2.727   4.107  24.904  0.00  0.00    -0.279 N 
ATOM     22  C   UNL     1      -2.039   4.235  25.041  0.00  0.00    +0.099 C 
ATOM     23  C   UNL     1      -3.419   3.677  24.777  0.00  0.00    +0.226 C 
ATOM     24  O   UNL     1      -4.126   4.071  24.616  0.00  0.00    -0.275 OA
ATOM     30  C   UNL     1      -1.786   3.446  25.123  0.00  0.00    +0.110 C 
ATOM     31  N   UNL     1      -2.386   3.172  25.010  0.00  0.00    -0.298 N 
ATOM     32  C   UNL     1      -2.971   2.600  24.910  0.00  0.00    +0.276 A 
ATOM     33  O   UNL     1      -3.732   2.318  24.763  0.00  0.00    -0.266 OA
ENDROOT
BRANCH  13  12
ATOM      9  N   UNL     1      -3.788  -0.138  24.940  0.00  0.00    -0.158 NA
ATOM     10  C   UNL     1      -3.202   0.435  25.040  0.00  0.00    +0.348 C 
ATOM     11  O   UNL     1      -2.450   0.216  25.300  0.00  0.00    -0.248 OA
ATOM     12  N   UNL     1      -3.367   1.227  24.879  0.00  0.00    -0.156 NA
BRANCH   9   8
ATOM      3  C   UNL     1      -3.827  -1.512  24.553  0.00  0.00    +0.154 A 
ATOM      4  C   UNL     1      -3.661  -2.304  24.714  0.00  0.00    +0.038 A 
ATOM      5  C   UNL     1      -3.290  -2.513  25.421  0.00  0.00    +0.003 A 
ATOM      6  C   UNL     1      -3.086  -1.930  25.967  0.00  0.00    +0.002 A 
ATOM      7  C   UNL     1      -3.251  -1.138  25.807  0.00  0.00    +0.020 A 
ATOM      8  C   UNL     1      -3.622  -0.929  25.100  0.00  0.00    +0.109 A 
BRANCH   3   2
ATOM      1  C   UNL     1      -4.460  -1.890  23.330  0.00  0.00    +0.253 C 
ATOM      2  O   UNL     1      -4.197  -1.304  23.847  0.00  0.00    -0.470 OA
ENDBRANCH   3   2
ENDBRANCH   9   8
ENDBRANCH  13  12
BRANCH  23  25
ATOM     25  C   UNL     1      -3.405   2.852  24.811  0.00  0.00    +0.085 C 
BRANCH  25  26
ATOM     26  C   UNL     1      -4.093   2.422  24.661  0.00  0.00    +0.009 C 
ATOM     27  C   UNL     1      -4.781   1.992  24.512  0.00  0.00    +0.000 C 
ATOM     28  C   UNL     1      -4.297   2.472  25.460  0.00  0.00    +0.000 C 
ATOM     29  C   UNL     1      -3.889   2.372  23.864  0.00  0.00    +0.000 C 
ENDBRANCH  25  26
ENDBRANCH  23  25
TORSDOF 5
ENDMDL
MODEL 5
REMARK VINA RESULT:     -13.2      1.564      2.218
REMARK  Name = 
REMARK  5 active torsions:
REMARK  status: ('A' for Active; 'I' for Inactive)
REMARK    1  A    between atoms: O_2  and  C_3
REMARK    2  A    between atoms: C_8  and  N_9
REMARK    3  A    between atoms: N_12  and  C_13
REMARK    4  A    between atoms: C_23  and  C_25
REMARK    5  A    between atoms: C_25  and  C_26
REMARK                            x       y       z     vdW  Elec       q    Type
REMARK                         _______ _______ _______ _____ _____    ______ ____
ROOT
ATOM     13  C   UNL     1      -2.138   1.768  24.748  0.00  0.00    +0.131 A 
ATOM     14  C   UNL     1      -2.890   1.955  25.034  0.00  0.00    +0.023 A 
ATOM     15  C   UNL     1      -3.055   2.722  25.289  0.00  0.00    +0.014 A 
ATOM     16  C   UNL     1      -2.470   3.302  25.259  0.00  0.00    +0.041 A 
ATOM     17  C   UNL     1      -2.334   4.190  25.452  0.00  0.00    +0.058 C 
ATOM     18  C   UNL     1      -2.665   4.755  25.706  0.00  0.00    +0.011 C 
ATOM     19  C   UNL     1      -1.925   4.567  25.423  0.00  0.00    +0.043 C 
ATOM     20  C   UNL     1      -0.985   4.537  25.120  0.00  0.00    +0.095 C 
ATOM     21  N   UNL     1      -0.936   3.735  24.892  0.00  0.00    -0.279 N 
ATOM     22  C   UNL     1      -1.424   4.177  25.163  0.00  0.00    +0.099 C 
ATOM     23  C   UNL     1      -0.607   3.035  24.603  0.00  0.00    +0.226 C 
ATOM     24  O   UNL     1       0.178   3.022  24.353  0.00  0.00    -0.275 OA
ATOM     30  C   UNL     1      -2.056   3.638  25.218  0.00  0.00    +0.110 C 
ATOM     31  N   UNL     1      -1.718   3.115  24.973  0.00  0.00    -0.298 N 
ATOM     32  C   UNL     1      -1.553   2.348  24.718  0.00  0.00    +0.276 A 
ATOM     33  O   UNL     1      -1.088   1.741  24.411  0.00  0.00    -0.266 OA
ENDROOT
BRANCH  13  12
ATOM      9  N   UNL     1      -2.398  -0.342  24.253  0.00  0.00    -0.158 NA
ATOM     10  C   UNL     1      -2.563   0.426  24.509  0.00  0.00    +0.348 C 
ATOM     11  O   UNL     1      -3.319   0.616  24.780  0.00  0.00    -0.248 OA
ATOM     12  N   UNL     1      -1.973   1.002  24.493  0.00  0.00    -0.156 NA
BRANCH   9   8
ATOM      3  C   UNL     1      -2.808  -1.686  24.509  0.00  0.00    +0.154 A 
ATOM      4  C   UNL     1      -3.398  -2.262  24.525  0.00  0.00    +0.038 A 
ATOM      5  C   UNL     1      -4.168  -2.070  24.300  0.00  0.00    +0.003 A 
ATOM      6  C   UNL     1      -4.348  -1.302  24.059  0.00  0.00    +0.002 A 
ATOM      7  C   UNL     1      -3.758  -0.726  24.044  0.00  0.00    +0.020 A 
ATOM      8  C   UNL     1      -2.988  -0.918  24.269  0.00  0.00    +0.109 A 
BRANCH   3   2
ATOM      1  C   UNL     1      -1.768  -2.654  24.661  0.00  0.00    +0.253 C 
ATOM      2  O   UNL     1      -2.038  -1.878  24.734  0.00  0.00    -0.470 OA
ENDBRANCH   3   2
ENDBRANCH   9   8
ENDBRANCH  13  12
BRANCH  23  25
ATOM     25  C   UNL     1      -1.064   2.349  24.565  0.00  0.00    +0.085 C 
BRANCH  25  26
ATOM     26  C   UNL     1      -0.734   1.649  24.281  0.00  0.00    +0.009 C 
ATOM     27  C   UNL     1      -0.403   0.949  23.996  0.00  0.00    +0.000 C 
ATOM     28  C   UNL     1      -0.981   1.843  23.518  0.00  0.00    +0.000 C 
ATOM     29  C   UNL     1      -0.486   1.456  25.043  0.00  0.00    +0.000 C 
ENDBRANCH  25  26
ENDBRANCH  23  25
TORSDOF 5
ENDMDL
MODEL 6
REMARK VINA RESULT:     -13.0      1.550      1.996
REMARK  Name = 
REMARK  5 active torsions:
REMARK  status: ('A' for Active; 'I' for Inactive)
REMARK    1  A    between atoms: O_2  and  C_3
REMARK    2  A    between atoms: C_8  and  N_9
REMARK    3  A    between atoms: N_12  and  C_13
REMARK    4  A    between atoms: C_23  and  C_25
REMARK    5  A    between atoms: C_25  and  C_26
REMARK                            x       y       z     vdW  Elec       q    Type
REMARK                         _______ _______ _______ _____ _____    ______ ____
ROOT
ATOM     13  C   UNL     1      -3.237   1.483  24.914  0.00  0.00    +0.131 A 
ATOM     14  C   UNL     1      -3.712   0.809  24.939  0.00  0.00    +0.023 A 
ATOM     15  C   UNL     1      -4.527   0.882  25.045  0.00  0.00    +0.014 A 
ATOM     16  C   UNL     1      -4.866   1.629  25.128  0.00  0.00    +0.041 A 
ATOM     17  C   UNL     1      -5.683   2.032  25.253  0.00  0.00    +0.058 C 
ATOM     18  C   UNL     1      -6.364   1.883  25.331  0.00  0.00    +0.011 C 
ATOM     19  C   UNL     1      -5.892   2.546  25.306  0.00  0.00    +0.043 C 
ATOM     20  C   UNL     1      -5.497   3.452  25.305  0.00  0.00    +0.095 C 
ATOM     21  N   UNL     1      -4.693   3.254  25.192  0.00  0.00    -0.279 N 
ATOM     22  C   UNL     1      -5.316   2.914  25.253  0.00  0.00    +0.099 C 
ATOM     23  C   UNL     1      -3.880   3.360  25.095  0.00  0.00    +0.226 C 
ATOM     24  O   UNL     1      -3.561   4.120  25.096  0.00  0.00    -0.275 OA
ATOM     30  C   UNL     1      -5.035   2.134  25.176  0.00  0.00    +0.110 C 
ATOM     31  N   UNL     1      -4.391   2.303  25.104  0.00  0.00    -0.298 N 
ATOM     32  C   UNL     1      -3.576   2.230  24.997  0.00  0.00    +0.276 A 
ATOM     33  O   UNL     1      -2.801   2.496  24.913  0.00  0.00    -0.266 OA
ENDROOT
BRANCH  13  12
ATOM      9  N   UNL     1      -1.254   0.590  24.723  0.00  0.00    -0.158 NA
ATOM     10  C   UNL     1      -2.069   0.664  24.830  0.00  0.00    +0.348 C 
ATOM     11  O   UNL     1      -2.531  -0.008  24.959  0.00  0.00    -0.248 OA
ATOM     12  N   UNL     1      -2.423   1.409  24.808  0.00  0.00    -0.156 NA
BRANCH   9   8
ATOM      3  C   UNL     1      -0.320  -0.353  24.193  0.00  0.00    +0.154 A 
ATOM      4  C   UNL     1       0.033  -1.098  24.215  0.00  0.00    +0.038 A 
ATOM      5  C   UNL     1      -0.194  -1.645  24.790  0.00  0.00    +0.003 A 
ATOM      6  C   UNL     1      -0.774  -1.447  25.342  0.00  0.00    +0.002 A 
ATOM      7  C   UNL     1      -1.127  -0.702  25.320  0.00  0.00    +0.020 A 
ATOM      8  C   UNL     1      -0.900  -0.155  24.745  0.00  0.00    +0.109 A 
BRANCH   3   2
ATOM      1  C   UNL     1       0.573   0.052  23.155  0.00  0.00    +0.253 C 
ATOM      2  O   UNL     1      -0.094   0.194  23.619  0.00  0.00    -0.470 OA
ENDBRANCH   3   2
ENDBRANCH   9   8
ENDBRANCH  13  12
BRANCH  23  25
ATOM     25  C   UNL     1      -3.387   2.705  24.998  0.00  0.00    +0.085 C 
BRANCH  25  26
ATOM     26  C   UNL     1      -2.580   2.813  24.866  0.00  0.00    +0.009 C 
ATOM     27  C   UNL     1      -1.773   2.921  24.734  0.00  0.00    +0.000 C 
ATOM     28  C   UNL     1      -2.449   2.827  25.681  0.00  0.00    +0.000 C 
ATOM     29  C   UNL     1      -2.711   2.800  24.052  0.00  0.00    +0.000 C 
ENDBRANCH  25  26
ENDBRANCH  23  25
TORSDOF 5
ENDMDL
