MODEL 1
REMARK VINA RESULT:      -9.8      0.000      0.000
REMARK  Name = 
REMARK  7 active torsions:
REMARK  status: ('A' for Active; 'I' for Inactive)
REMARK    1  A    between atoms: O_2  and  C_3
REMARK    2  A    between atoms: C_6  and  N_7
REMARK    3  A    between atoms: C_8  and  O_10
REMARK    4  A    between atoms: O_10  and  C_11
REMARK    5  A    between atoms: C_11  and  C_12
REMARK    6  A    between atoms: C_19  and  C_20
REMARK    7  A    between atoms: C_22  and  C_26
REMARK                            x       y       z     vdW  Elec       q    Type
REMARK                         _______ _______ _______ _____ _____    ______ ____
ROOT
ATOM     12  C   UNL     1      -0.540   0.893  23.759  0.00  0.00    +0.102 C 
ATOM     13  C   UNL     1      -1.144   1.247  23.418  0.00  0.00    +0.020 C 
ATOM     14  C   UNL     1      -1.910   1.229  23.680  0.00  0.00    +0.010 C 
ATOM     15  C   UNL     1      -2.456   1.701  23.147  0.00  0.00    +0.018 C 
ATOM     16  C   UNL     1      -1.885   1.451  23.343  0.00  0.00    +0.072 C 
ATOM     17  N   UNL     1      -1.323   0.880  24.020  0.00  0.00    -0.270 NA
ATOM     18  C   UNL     1      -1.721   0.481  24.737  0.00  0.00    +0.078 C 
ATOM     19  C   UNL     1      -2.286   0.843  24.373  0.00  0.00    +0.056 C 
ENDROOT
BRANCH  19  20
ATOM     20  C   UNL     1      -3.083   0.865  24.585  0.00  0.00    +0.058 A 
ATOM     21  C   UNL     1      -3.518   1.543  24.763  0.00  0.00    +0.031 A 
ATOM     22  C   UNL     1      -4.288   1.311  24.944  0.00  0.00    +0.079 A 
ATOM     23  N   UNL     1      -4.330   0.490  24.879  0.00  0.00    -0.174 NA
ATOM     24  N   UNL     1      -3.584   0.214  24.657  0.00  0.00    -0.253 N 
ATOM     25  C   UNL     1      -3.377  -0.574  24.529  0.00  0.00    +0.153 C 
BRANCH  22  26
ATOM     26  C   UNL     1      -4.909   1.812  25.154  0.00  0.00    +0.042 C 
ATOM     27  C   UNL     1      -5.687   1.605  24.969  0.00  0.00    +0.006 C 
ATOM     28  C   UNL     1      -6.308   2.106  25.179  0.00  0.00    +0.000 C 
ATOM     29  C   UNL     1      -6.152   2.813  25.574  0.00  0.00    +0.000 C 
ATOM     30  C   UNL     1      -5.375   3.020  25.759  0.00  0.00    +0.000 C 
ATOM     31  C   UNL     1      -4.754   2.519  25.549  0.00  0.00    +0.006 C 
ENDBRANCH  22  26
ENDBRANCH  19  20
BRANCH  12  11
ATOM     11  C   UNL     1       0.257   0.690  23.816  0.00  0.00    +0.226 C 
BRANCH  11  10
ATOM     10  O   UNL     1       0.739   0.722  23.148  0.00  0.00    -0.432 OA
BRANCH  10   8
ATOM      7  N   UNL     1       2.022   0.249  22.733  0.00  0.00    -0.142 NA
ATOM      8  C   UNL     1       1.560   0.716  23.231  0.00  0.00    +0.425 C 
ATOM      9  O   UNL     1       1.919   1.177  23.813  0.00  0.00    -0.224 OA
BRANCH   7   6
ATOM      3  C   UNL     1       4.484   0.230  22.982  0.00  0.00    +0.139 A 
ATOM      4  C   UNL     1       4.108   0.887  22.656  0.00  0.00    +0.038 A 
ATOM      5  C   UNL     1       3.287   0.894  22.572  0.00  0.00    +0.020 A 
ATOM      6  C   UNL     1       2.843   0.243  22.816  0.00  0.00    +0.077 A 
ATOM     32  C   UNL     1       3.220  -0.415  23.143  0.00  0.00    +0.020 A 
ATOM     33  C   UNL     1       4.040  -0.421  23.226  0.00  0.00    +0.038 A 
BRANCH   3   2
ATOM      1  C   UNL     1       5.643   0.183  23.817  0.00  0.00    +0.252 C 
ATOM      2  O   UNL     1       5.305   0.225  23.065  0.00  0.00    -0.471 OA
ENDBRANCH   3   2
ENDBRANCH   7   6
ENDBRANCH  10   8
ENDBRANCH  11  10
ENDBRANCH  12  11
TORSDOF 7
ENDMDL
MODEL 2
REMARK VINA RESULT:      -7.9      1.808      7.445
REMARK  Name = 
REMARK  7 active torsions:
REMARK  status: ('A' for Active; 'I' for Inactive)
REMARK    1  A    between atoms: O_2  and  C_3
REMARK    2  A    between atoms: C_6  and  N_7
REMARK    3  A    between atoms: C_8  and  O_10
REMARK    4  A    between atoms: O_10  and  C_11
REMARK    5  A    between atoms: C_11  and  C_12
REMARK    6  A    between atoms: C_19  and  C_20
REMARK    7  A    between atoms: C_22  and  C_26
REMARK                            x       y       z     vdW  Elec       q    Type
REMARK                         _______ _______ _______ _____ _____    ______ ____
ROOT
ATOM     12  C   UNL     1      -0.821   0.668  24.063  0.00  0.00    +0.102 C 
ATOM     13  C   UNL     1      -0.206   1.143  24.044  0.00  0.00    +0.020 C 
ATOM     14  C   UNL     1       0.517   0.967  23.724  0.00  0.00    +0.010 C 
ATOM     15  C   UNL     1       1.092   1.650  23.802  0.00  0.00    +0.018 C 
ATOM     16  C   UNL     1       0.521   1.342  23.874  0.00  0.00    +0.072 C 
ATOM     17  N   UNL     1      -0.082   0.495  23.740  0.00  0.00    -0.270 NA
ATOM     18  C   UNL     1       0.245  -0.250  23.327  0.00  0.00    +0.078 C 
ATOM     19  C   UNL     1       0.824   0.247  23.328  0.00  0.00    +0.056 C 
ENDROOT
BRANCH  19  20
ATOM     20  C   UNL     1       1.582   0.131  23.021  0.00  0.00    +0.058 A 
ATOM     21  C   UNL     1       2.291   0.246  23.425  0.00  0.00    +0.031 A 
ATOM     22  C   UNL     1       2.910   0.066  22.910  0.00  0.00    +0.079 A 
ATOM     23  N   UNL     1       2.583  -0.161  22.188  0.00  0.00    -0.174 NA
ATOM     24  N   UNL     1       1.761  -0.121  22.256  0.00  0.00    -0.253 N 
ATOM     25  C   UNL     1       1.215  -0.302  21.664  0.00  0.00    +0.153 C 
BRANCH  22  26
ATOM     26  C   UNL     1       3.714   0.106  23.086  0.00  0.00    +0.042 C 
ATOM     27  C   UNL     1       4.148   0.780  22.886  0.00  0.00    +0.006 C 
ATOM     28  C   UNL     1       4.953   0.819  23.062  0.00  0.00    +0.000 C 
ATOM     29  C   UNL     1       5.325   0.186  23.437  0.00  0.00    +0.000 C 
ATOM     30  C   UNL     1       4.892  -0.488  23.637  0.00  0.00    +0.000 C 
ATOM     31  C   UNL     1       4.087  -0.527  23.461  0.00  0.00    +0.006 C 
ENDBRANCH  22  26
ENDBRANCH  19  20
BRANCH  12  11
ATOM     11  C   UNL     1      -1.601   0.481  24.256  0.00  0.00    +0.226 C 
BRANCH  11  10
ATOM     10  O   UNL     1      -2.223   0.890  23.900  0.00  0.00    -0.432 OA
BRANCH  10   8
ATOM      7  N   UNL     1      -3.447   1.613  24.041  0.00  0.00    -0.142 NA
ATOM      8  C   UNL     1      -2.900   1.070  24.336  0.00  0.00    +0.425 C 
ATOM      9  O   UNL     1      -3.030   0.709  25.066  0.00  0.00    -0.224 OA
BRANCH   7   6
ATOM      3  C   UNL     1      -5.479   2.155  25.346  0.00  0.00    +0.139 A 
ATOM      4  C   UNL     1      -4.869   2.706  25.286  0.00  0.00    +0.038 A 
ATOM      5  C   UNL     1      -4.191   2.526  24.851  0.00  0.00    +0.020 A 
ATOM      6  C   UNL     1      -4.124   1.794  24.476  0.00  0.00    +0.077 A 
ATOM     32  C   UNL     1      -4.735   1.242  24.537  0.00  0.00    +0.020 A 
ATOM     33  C   UNL     1      -5.412   1.423  24.972  0.00  0.00    +0.038 A 
BRANCH   3   2
ATOM      1  C   UNL     1      -6.316   1.932  26.483  0.00  0.00    +0.252 C 
ATOM      2  O   UNL     1      -6.156   2.337  25.781  0.00  0.00    -0.471 OA
ENDBRANCH   3   2
ENDBRANCH   7   6
ENDBRANCH  10   8
ENDBRANCH  11  10
ENDBRANCH  12  11
TORSDOF 7
ENDMDL
MODEL 3
REMARK VINA RESULT:      -6.0     17.374     18.072
REMARK  Name = 
REMARK  7 active torsions:
REMARK  status: ('A' for Active; 'I' for Inactive)
REMARK    1  A    between atoms: O_2  and  C_3
REMARK    2  A    between atoms: C_6  and  N_7
REMARK    3  A    between atoms: C_8  and  O_10
REMARK    4  A    between atoms: O_10  and  C_11
REMARK    5  A    between atoms: C_11  and  C_12
REMARK    6  A    between atoms: C_19  and  C_20
REMARK    7  A    between atoms: C_22  and  C_26
REMARK                            x       y       z     vdW  Elec       q    Type
REMARK                         _______ _______ _______ _____ _____    ______ ____
ROOT
ATOM     12  C   UNL     1      -6.206  -9.704   9.935  0.00  0.00    +0.102 C 
ATOM     13  C   UNL     1      -6.842  -9.477  10.322  0.00  0.00    +0.020 C 
ATOM     14  C   UNL     1      -7.468  -9.073  10.003  0.00  0.00    +0.010 C 
ATOM     15  C   UNL     1      -8.102  -8.905  10.614  0.00  0.00    +0.018 C 
ATOM     16  C   UNL     1      -7.533  -9.141  10.397  0.00  0.00    +0.072 C 
ATOM     17  N   UNL     1      -6.847  -9.293   9.618  0.00  0.00    -0.270 NA
ATOM     18  C   UNL     1      -7.020  -8.986   8.776  0.00  0.00    +0.078 C 
ATOM     19  C   UNL     1      -7.627  -8.782   9.191  0.00  0.00    +0.056 C 
ENDROOT
BRANCH  19  20
ATOM     20  C   UNL     1      -8.295  -8.372   8.930  0.00  0.00    +0.058 A 
ATOM     21  C   UNL     1      -8.486  -7.591   9.114  0.00  0.00    +0.031 A 
ATOM     22  C   UNL     1      -9.196  -7.407   8.738  0.00  0.00    +0.079 A 
ATOM     23  N   UNL     1      -9.444  -8.075   8.321  0.00  0.00    -0.174 NA
ATOM     24  N   UNL     1      -8.886  -8.671   8.440  0.00  0.00    -0.253 N 
ATOM     25  C   UNL     1      -8.915  -9.433   8.124  0.00  0.00    +0.153 C 
BRANCH  22  26
ATOM     26  C   UNL     1      -9.591  -6.684   8.772  0.00  0.00    +0.042 C 
ATOM     27  C   UNL     1     -10.325  -6.631   9.146  0.00  0.00    +0.006 C 
ATOM     28  C   UNL     1     -10.720  -5.907   9.180  0.00  0.00    +0.000 C 
ATOM     29  C   UNL     1     -10.381  -5.236   8.840  0.00  0.00    +0.000 C 
ATOM     30  C   UNL     1      -9.647  -5.289   8.466  0.00  0.00    +0.000 C 
ATOM     31  C   UNL     1      -9.252  -6.013   8.432  0.00  0.00    +0.006 C 
ENDBRANCH  22  26
ENDBRANCH  19  20
BRANCH  12  11
ATOM     11  C   UNL     1      -5.468 -10.069   9.883  0.00  0.00    +0.226 C 
BRANCH  11  10
ATOM     10  O   UNL     1      -5.058 -10.271  10.570  0.00  0.00    -0.432 OA
BRANCH  10   8
ATOM      7  N   UNL     1      -3.869  -9.883  11.260  0.00  0.00    -0.142 NA
ATOM      8  C   UNL     1      -4.236 -10.203  10.594  0.00  0.00    +0.425 C 
ATOM      9  O   UNL     1      -3.782 -10.453   9.953  0.00  0.00    -0.224 OA
BRANCH   7   6
ATOM      3  C   UNL     1      -1.404  -9.677  11.336  0.00  0.00    +0.139 A 
ATOM      4  C   UNL     1      -1.838  -9.238  10.789  0.00  0.00    +0.038 A 
ATOM      5  C   UNL     1      -2.660  -9.307  10.764  0.00  0.00    +0.020 A 
ATOM      6  C   UNL     1      -3.047  -9.814  11.286  0.00  0.00    +0.077 A 
ATOM     32  C   UNL     1      -2.613 -10.254  11.833  0.00  0.00    +0.020 A 
ATOM     33  C   UNL     1      -1.792 -10.185  11.858  0.00  0.00    +0.038 A 
BRANCH   3   2
ATOM      1  C   UNL     1      -0.231  -8.861  11.346  0.00  0.00    +0.252 C 
ATOM      2  O   UNL     1      -0.582  -9.608  11.361  0.00  0.00    -0.471 OA
ENDBRANCH   3   2
ENDBRANCH   7   6
ENDBRANCH  10   8
ENDBRANCH  11  10
ENDBRANCH  12  11
TORSDOF 7
ENDMDL
