MODEL 1
REMARK VINA RESULT:     -12.4      0.000      0.000
REMARK  Name = 
REMARK  4 active torsions:
REMARK  status: ('A' for Active; 'I' for Inactive)
REMARK    1  A    between atoms: O_2  and  C_3
REMARK    2  A    between atoms: C_6  and  C_9
REMARK    3  A    between atoms: C_15  and  N_16
REMARK    4  A    between atoms: C_17  and  C_19
REMARK                            x       y       z     vdW  Elec       q    Type
REMARK                         _______ _______ _______ _____ _____    ______ ____
ROOT
ATOM      9  C   UNL     1      -3.638   2.806  24.892  0.00  0.00    +0.048 C 
ATOM     10  C   UNL     1      -4.038   3.490  25.121  0.00  0.00    +0.042 C 
ATOM     11  C   UNL     1      -4.843   3.310  25.168  0.00  0.00    +0.184 C 
ATOM     12  O   UNL     1      -5.445   3.834  25.379  0.00  0.00    -0.220 OA
ATOM     13  C   UNL     1      -4.939   2.516  24.968  0.00  0.00    +0.202 C 
ATOM     14  O   UNL     1      -5.654   2.105  24.943  0.00  0.00    -0.219 OA
ATOM     15  C   UNL     1      -4.195   2.204  24.797  0.00  0.00    +0.132 C 
ENDROOT
BRANCH   9   6
ATOM      3  C   UNL     1      -1.196   2.595  24.549  0.00  0.00    +0.139 A 
ATOM      4  C   UNL     1      -1.702   2.634  23.898  0.00  0.00    +0.037 A 
ATOM      5  C   UNL     1      -2.516   2.705  24.012  0.00  0.00    -0.001 A 
ATOM      6  C   UNL     1      -2.824   2.736  24.777  0.00  0.00    -0.020 A 
ATOM      7  C   UNL     1      -2.319   2.697  25.428  0.00  0.00    -0.001 A 
ATOM      8  C   UNL     1      -1.505   2.626  25.313  0.00  0.00    +0.037 A 
BRANCH   3   2
ATOM      1  C   UNL     1      -0.018   1.789  24.503  0.00  0.00    +0.252 C 
ATOM      2  O   UNL     1      -0.383   2.525  24.435  0.00  0.00    -0.471 OA
ENDBRANCH   3   2
ENDBRANCH   9   6
BRANCH  15  16
ATOM     16  N   UNL     1      -4.035   1.427  24.571  0.00  0.00    -0.200 NA
ATOM     17  C   UNL     1      -4.360   0.799  24.995  0.00  0.00    +0.265 C 
ATOM     18  O   UNL     1      -4.845   0.947  25.646  0.00  0.00    -0.268 OA
BRANCH  17  19
ATOM     19  C   UNL     1      -4.201   0.022  24.769  0.00  0.00    +0.058 A 
ATOM     20  C   UNL     1      -3.895  -0.513  25.318  0.00  0.00    +0.045 A 
ATOM     21  C   UNL     1      -3.735  -1.291  25.092  0.00  0.00    +0.173 A 
ATOM     22  C   UNL     1      -3.881  -1.534  24.316  0.00  0.00    +0.172 A 
ATOM     23  O   UNL     1      -3.722  -2.310  24.090  0.00  0.00    -0.468 OA
ATOM     24  C   UNL     1      -3.416  -2.845  24.638  0.00  0.00    +0.253 C 
ATOM     25  C   UNL     1      -3.270  -2.602  25.414  0.00  0.00    +0.253 C 
ATOM     26  O   UNL     1      -3.429  -1.826  25.640  0.00  0.00    -0.468 OA
ATOM     27  C   UNL     1      -4.187  -0.998  23.768  0.00  0.00    +0.040 A 
ATOM     28  C   UNL     1      -4.347  -0.220  23.994  0.00  0.00    +0.008 A 
ENDBRANCH  17  19
ENDBRANCH  15  16
TORSDOF 4
ENDMDL
MODEL 2
REMARK VINA RESULT:     -12.0      1.001      3.929
REMARK  Name = 
REMARK  4 active torsions:
REMARK  status: ('A' for Active; 'I' for Inactive)
REMARK    1  A    between atoms: O_2  and  C_3
REMARK    2  A    between atoms: C_6  and  C_9
REMARK    3  A    between atoms: C_15  and  N_16
REMARK    4  A    between atoms: C_17  and  C_19
REMARK                            x       y       z     vdW  Elec       q    Type
REMARK                         _______ _______ _______ _____ _____    ______ ____
ROOT
ATOM      9  C   UNL     1      -4.504   0.629  24.905  0.00  0.00    +0.048 C 
ATOM     10  C   UNL     1      -5.297   0.854  24.899  0.00  0.00    +0.042 C 
ATOM     11  C   UNL     1      -5.328   1.678  24.933  0.00  0.00    +0.184 C 
ATOM     12  O   UNL     1      -6.014   2.138  24.939  0.00  0.00    -0.220 OA
ATOM     13  C   UNL     1      -4.554   1.962  24.960  0.00  0.00    +0.202 C 
ATOM     14  O   UNL     1      -4.329   2.754  24.998  0.00  0.00    -0.219 OA
ATOM     15  C   UNL     1      -4.044   1.313  24.943  0.00  0.00    +0.132 C 
ENDROOT
BRANCH   9   6
ATOM      3  C   UNL     1      -3.649  -1.693  24.823  0.00  0.00    +0.139 A 
ATOM      4  C   UNL     1      -3.617  -1.266  25.529  0.00  0.00    +0.037 A 
ATOM      5  C   UNL     1      -3.902  -0.492  25.556  0.00  0.00    -0.001 A 
ATOM      6  C   UNL     1      -4.219  -0.145  24.878  0.00  0.00    -0.020 A 
ATOM      7  C   UNL     1      -4.251  -0.571  24.172  0.00  0.00    -0.001 A 
ATOM      8  C   UNL     1      -3.967  -1.345  24.145  0.00  0.00    +0.037 A 
BRANCH   3   2
ATOM      1  C   UNL     1      -2.603  -2.616  24.519  0.00  0.00    +0.252 C 
ATOM      2  O   UNL     1      -3.365  -2.466  24.795  0.00  0.00    -0.471 OA
ENDBRANCH   3   2
ENDBRANCH   9   6
BRANCH  15  16
ATOM     16  N   UNL     1      -3.220   1.345  24.960  0.00  0.00    -0.200 NA
ATOM     17  C   UNL     1      -2.813   1.819  24.423  0.00  0.00    +0.265 C 
ATOM     18  O   UNL     1      -3.231   2.263  23.867  0.00  0.00    -0.268 OA
BRANCH  17  19
ATOM     19  C   UNL     1      -1.990   1.850  24.440  0.00  0.00    +0.058 A 
ATOM     20  C   UNL     1      -1.547   1.340  23.967  0.00  0.00    +0.045 A 
ATOM     21  C   UNL     1      -0.722   1.370  23.984  0.00  0.00    +0.173 A 
ATOM     22  C   UNL     1      -0.340   1.912  24.476  0.00  0.00    +0.172 A 
ATOM     23  O   UNL     1       0.484   1.943  24.494  0.00  0.00    -0.468 OA
ATOM     24  C   UNL     1       0.926   1.433  24.021  0.00  0.00    +0.253 C 
ATOM     25  C   UNL     1       0.543   0.891  23.529  0.00  0.00    +0.253 C 
ATOM     26  O   UNL     1      -0.280   0.860  23.511  0.00  0.00    -0.468 OA
ATOM     27  C   UNL     1      -0.783   2.423  24.950  0.00  0.00    +0.040 A 
ATOM     28  C   UNL     1      -1.608   2.392  24.932  0.00  0.00    +0.008 A 
ENDBRANCH  17  19
ENDBRANCH  15  16
TORSDOF 4
ENDMDL
MODEL 3
REMARK VINA RESULT:     -11.8      2.035      3.469
REMARK  Name = 
REMARK  4 active torsions:
REMARK  status: ('A' for Active; 'I' for Inactive)
REMARK    1  A    between atoms: O_2  and  C_3
REMARK    2  A    between atoms: C_6  and  C_9
REMARK    3  A    between atoms: C_15  and  N_16
REMARK    4  A    between atoms: C_17  and  C_19
REMARK                            x       y       z     vdW  Elec       q    Type
REMARK                         _______ _______ _______ _____ _____    ______ ____
ROOT
ATOM      9  C   UNL     1      -2.578   3.768  24.924  0.00  0.00    +0.048 C 
ATOM     10  C   UNL     1      -2.500   4.567  25.112  0.00  0.00    +0.042 C 
ATOM     11  C   UNL     1      -1.694   4.742  25.154  0.00  0.00    +0.184 C 
ATOM     12  O   UNL     1      -1.366   5.479  25.328  0.00  0.00    -0.220 OA
ATOM     13  C   UNL     1      -1.275   4.050  24.991  0.00  0.00    +0.202 C 
ATOM     14  O   UNL     1      -0.453   3.974  24.974  0.00  0.00    -0.219 OA
ATOM     15  C   UNL     1      -1.820   3.448  24.849  0.00  0.00    +0.132 C 
ENDROOT
BRANCH   9   6
ATOM      3  C   UNL     1      -4.708   2.542  24.634  0.00  0.00    +0.139 A 
ATOM      4  C   UNL     1      -4.262   2.754  23.973  0.00  0.00    +0.037 A 
ATOM      5  C   UNL     1      -3.552   3.163  24.070  0.00  0.00    -0.001 A 
ATOM      6  C   UNL     1      -3.288   3.359  24.827  0.00  0.00    -0.020 A 
ATOM      7  C   UNL     1      -3.734   3.147  25.488  0.00  0.00    -0.001 A 
ATOM      8  C   UNL     1      -4.444   2.738  25.391  0.00  0.00    +0.037 A 
BRANCH   3   2
ATOM      1  C   UNL     1      -5.906   1.996  25.188  0.00  0.00    +0.252 C 
ATOM      2  O   UNL     1      -5.418   2.133  24.539  0.00  0.00    -0.471 OA
ENDBRANCH   3   2
ENDBRANCH   9   6
BRANCH  15  16
ATOM     16  N   UNL     1      -1.640   2.665  24.664  0.00  0.00    -0.200 NA
ATOM     17  C   UNL     1      -1.111   2.241  25.134  0.00  0.00    +0.265 C 
ATOM     18  O   UNL     1      -0.761   2.601  25.789  0.00  0.00    -0.268 OA
BRANCH  17  19
ATOM     19  C   UNL     1      -0.931   1.458  24.949  0.00  0.00    +0.058 A 
ATOM     20  C   UNL     1      -1.163   0.850  25.456  0.00  0.00    +0.045 A 
ATOM     21  C   UNL     1      -0.983   0.066  25.272  0.00  0.00    +0.173 A 
ATOM     22  C   UNL     1      -0.571  -0.110  24.578  0.00  0.00    +0.172 A 
ATOM     23  O   UNL     1      -0.391  -0.893  24.393  0.00  0.00    -0.468 OA
ATOM     24  C   UNL     1      -0.623  -1.501  24.901  0.00  0.00    +0.253 C 
ATOM     25  C   UNL     1      -1.036  -1.324  25.594  0.00  0.00    +0.253 C 
ATOM     26  O   UNL     1      -1.215  -0.541  25.779  0.00  0.00    -0.468 OA
ATOM     27  C   UNL     1      -0.339   0.498  24.071  0.00  0.00    +0.040 A 
ATOM     28  C   UNL     1      -0.519   1.282  24.255  0.00  0.00    +0.008 A 
ENDBRANCH  17  19
ENDBRANCH  15  16
TORSDOF 4
ENDMDL
MODEL 4
REMARK VINA RESULT:     -11.6      1.768      2.504
REMARK  Name = 
REMARK  4 active torsions:
REMARK  status: ('A' for Active; 'I' for Inactive)
REMARK    1  A    between atoms: O_2  and  C_3
REMARK    2  A    between atoms: C_6  and  C_9
REMARK    3  A    between atoms: C_15  and  N_16
REMARK    4  A    between atoms: C_17  and  C_19
REMARK                            x       y       z     vdW  Elec       q    Type
REMARK                         _______ _______ _______ _____ _____    ______ ____
ROOT
ATOM      9  C   UNL     1      -4.214   2.778  25.121  0.00  0.00    +0.048 C 
ATOM     10  C   UNL     1      -5.017   2.958  25.071  0.00  0.00    +0.042 C 
ATOM     11  C   UNL     1      -5.434   2.248  25.001  0.00  0.00    +0.184 C 
ATOM     12  O   UNL     1      -6.253   2.172  24.935  0.00  0.00    -0.220 OA
ATOM     13  C   UNL     1      -4.887   1.630  25.008  0.00  0.00    +0.202 C 
ATOM     14  O   UNL     1      -5.064   0.827  24.950  0.00  0.00    -0.219 OA
ATOM     15  C   UNL     1      -4.134   1.957  25.082  0.00  0.00    +0.132 C 
ENDROOT
BRANCH   9   6
ATOM      3  C   UNL     1      -2.367   4.410  25.348  0.00  0.00    +0.139 A 
ATOM      4  C   UNL     1      -2.644   4.005  26.012  0.00  0.00    +0.037 A 
ATOM      5  C   UNL     1      -3.259   3.461  25.936  0.00  0.00    -0.001 A 
ATOM      6  C   UNL     1      -3.598   3.322  25.197  0.00  0.00    -0.020 A 
ATOM      7  C   UNL     1      -3.322   3.725  24.533  0.00  0.00    -0.001 A 
ATOM      8  C   UNL     1      -2.706   4.269  24.609  0.00  0.00    +0.037 A 
BRANCH   3   2
ATOM      1  C   UNL     1      -1.032   4.816  25.046  0.00  0.00    +0.252 C 
ATOM      2  O   UNL     1      -1.752   4.953  25.423  0.00  0.00    -0.471 OA
ENDBRANCH   3   2
ENDBRANCH   9   6
BRANCH  15  16
ATOM     16  N   UNL     1      -3.424   1.536  25.112  0.00  0.00    -0.200 NA
ATOM     17  C   UNL     1      -3.256   0.968  24.539  0.00  0.00    +0.265 C 
ATOM     18  O   UNL     1      -3.798   0.819  23.935  0.00  0.00    -0.268 OA
BRANCH  17  19
ATOM     19  C   UNL     1      -2.548   0.548  24.569  0.00  0.00    +0.058 A 
ATOM     20  C   UNL     1      -1.927   0.748  24.063  0.00  0.00    +0.045 A 
ATOM     21  C   UNL     1      -1.217   0.328  24.093  0.00  0.00    +0.173 A 
ATOM     22  C   UNL     1      -1.128  -0.293  24.631  0.00  0.00    +0.172 A 
ATOM     23  O   UNL     1      -0.419  -0.713  24.661  0.00  0.00    -0.468 OA
ATOM     24  C   UNL     1       0.200  -0.513  24.156  0.00  0.00    +0.253 C 
ATOM     25  C   UNL     1       0.111   0.108  23.618  0.00  0.00    +0.253 C 
ATOM     26  O   UNL     1      -0.598   0.527  23.588  0.00  0.00    -0.468 OA
ATOM     27  C   UNL     1      -1.749  -0.493  25.137  0.00  0.00    +0.040 A 
ATOM     28  C   UNL     1      -2.458  -0.073  25.107  0.00  0.00    +0.008 A 
ENDBRANCH  17  19
ENDBRANCH  15  16
TORSDOF 4
ENDMDL
