MODEL 1
REMARK VINA RESULT:     -11.2      0.000      0.000
REMARK  Name = 
REMARK  4 active torsions:
REMARK  status: ('A' for Active; 'I' for Inactive)
REMARK    1  A    between atoms: O_2  and  C_3
REMARK    2  A    between atoms: C_6  and  C_9
REMARK    3  A    between atoms: C_15  and  N_16
REMARK    4  A    between atoms: C_17  and  C_19
REMARK                            x       y       z     vdW  Elec       q    Type
REMARK                         _______ _______ _______ _____ _____    ______ ____
ROOT
ATOM      9  C   UNL     1      -3.447   1.798  24.535  0.00  0.00    +0.048 C 
ATOM     10  C   UNL     1      -3.824   2.503  24.740  0.00  0.00    +0.042 C 
ATOM     11  C   UNL     1      -4.625   2.341  24.852  0.00  0.00    +0.184 C 
ATOM     12  O   UNL     1      -5.205   2.888  25.062  0.00  0.00    -0.220 OA
ATOM     13  C   UNL     1      -4.744   1.536  24.716  0.00  0.00    +0.202 C 
ATOM     14  O   UNL     1      -5.464   1.136  24.767  0.00  0.00    -0.219 OA
ATOM     15  C   UNL     1      -4.016   1.200  24.520  0.00  0.00    +0.132 C 
ENDROOT
BRANCH   9   6
ATOM      3  C   UNL     1      -1.036   1.524  24.050  0.00  0.00    +0.139 A 
ATOM      4  C   UNL     1      -1.295   1.575  24.831  0.00  0.00    +0.037 A 
ATOM      5  C   UNL     1      -2.099   1.667  24.992  0.00  0.00    -0.001 A 
ATOM      6  C   UNL     1      -2.643   1.707  24.373  0.00  0.00    -0.020 A 
ATOM      7  C   UNL     1      -2.382   1.655  23.592  0.00  0.00    -0.001 A 
ATOM      8  C   UNL     1      -1.579   1.564  23.430  0.00  0.00    +0.037 A 
BRANCH   3   2
ATOM      1  C   UNL     1       0.083   0.678  23.773  0.00  0.00    +0.252 C 
ATOM      2  O   UNL     1      -0.232   1.433  23.888  0.00  0.00    -0.471 OA
ENDBRANCH   3   2
ENDBRANCH   9   6
BRANCH  15  16
ATOM     16  N   UNL     1      -3.880   0.406  24.341  0.00  0.00    -0.204 NA
ATOM     17  C   UNL     1      -4.114  -0.182  24.871  0.00  0.00    +0.241 C 
ATOM     18  O   UNL     1      -4.483   0.024  25.580  0.00  0.00    -0.273 OA
BRANCH  17  19
ATOM     19  C   UNL     1      -3.978  -0.975  24.692  0.00  0.00    +0.078 C 
ATOM     20  C   UNL     1      -4.232  -1.369  24.012  0.00  0.00    +0.009 C 
ATOM     21  C   UNL     1      -3.976  -2.152  24.061  0.00  0.00    +0.001 C 
ATOM     22  C   UNL     1      -3.564  -2.242  24.771  0.00  0.00    +0.001 C 
ATOM     23  C   UNL     1      -3.566  -1.515  25.161  0.00  0.00    +0.009 C 
ENDBRANCH  17  19
ENDBRANCH  15  16
TORSDOF 4
ENDMDL
MODEL 2
REMARK VINA RESULT:     -10.9      1.067      3.287
REMARK  Name = 
REMARK  4 active torsions:
REMARK  status: ('A' for Active; 'I' for Inactive)
REMARK    1  A    between atoms: O_2  and  C_3
REMARK    2  A    between atoms: C_6  and  C_9
REMARK    3  A    between atoms: C_15  and  N_16
REMARK    4  A    between atoms: C_17  and  C_19
REMARK                            x       y       z     vdW  Elec       q    Type
REMARK                         _______ _______ _______ _____ _____    ______ ____
ROOT
ATOM      9  C   UNL     1      -4.274   0.603  24.841  0.00  0.00    +0.048 C 
ATOM     10  C   UNL     1      -5.036   0.916  24.816  0.00  0.00    +0.042 C 
ATOM     11  C   UNL     1      -4.977   1.738  24.855  0.00  0.00    +0.184 C 
ATOM     12  O   UNL     1      -5.606   2.271  24.847  0.00  0.00    -0.220 OA
ATOM     13  C   UNL     1      -4.176   1.934  24.904  0.00  0.00    +0.202 C 
ATOM     14  O   UNL     1      -3.866   2.696  24.953  0.00  0.00    -0.219 OA
ATOM     15  C   UNL     1      -3.742   1.232  24.895  0.00  0.00    +0.132 C 
ENDROOT
BRANCH   9   6
ATOM      3  C   UNL     1      -3.682  -1.799  24.766  0.00  0.00    +0.139 A 
ATOM      4  C   UNL     1      -3.634  -1.385  25.477  0.00  0.00    +0.037 A 
ATOM      5  C   UNL     1      -3.832  -0.584  25.502  0.00  0.00    -0.001 A 
ATOM      6  C   UNL     1      -4.076  -0.197  24.816  0.00  0.00    -0.020 A 
ATOM      7  C   UNL     1      -4.124  -0.613  24.104  0.00  0.00    -0.001 A 
ATOM      8  C   UNL     1      -3.927  -1.413  24.079  0.00  0.00    +0.037 A 
BRANCH   3   2
ATOM      1  C   UNL     1      -2.722  -2.831  24.528  0.00  0.00    +0.252 C 
ATOM      2  O   UNL     1      -3.485  -2.600  24.741  0.00  0.00    -0.471 OA
ENDBRANCH   3   2
ENDBRANCH   9   6
BRANCH  15  16
ATOM     16  N   UNL     1      -2.919   1.171  24.934  0.00  0.00    -0.204 NA
ATOM     17  C   UNL     1      -2.449   1.594  24.405  0.00  0.00    +0.241 C 
ATOM     18  O   UNL     1      -2.800   2.079  23.838  0.00  0.00    -0.273 OA
BRANCH  17  19
ATOM     19  C   UNL     1      -1.628   1.532  24.444  0.00  0.00    +0.078 C 
ATOM     20  C   UNL     1      -1.159   1.702  25.102  0.00  0.00    +0.009 C 
ATOM     21  C   UNL     1      -0.372   1.565  24.896  0.00  0.00    +0.001 C 
ATOM     22  C   UNL     1      -0.354   1.310  24.112  0.00  0.00    +0.001 C 
ATOM     23  C   UNL     1      -1.130   1.290  23.832  0.00  0.00    +0.009 C 
ENDBRANCH  17  19
ENDBRANCH  15  16
TORSDOF 4
ENDMDL
MODEL 3
REMARK VINA RESULT:     -10.5      1.245      3.465
REMARK  Name = 
REMARK  4 active torsions:
REMARK  status: ('A' for Active; 'I' for Inactive)
REMARK    1  A    between atoms: O_2  and  C_3
REMARK    2  A    between atoms: C_6  and  C_9
REMARK    3  A    between atoms: C_15  and  N_16
REMARK    4  A    between atoms: C_17  and  C_19
REMARK                            x       y       z     vdW  Elec       q    Type
REMARK                         _______ _______ _______ _____ _____    ______ ____
ROOT
ATOM      9  C   UNL     1      -2.680   0.813  24.315  0.00  0.00    +0.048 C 
ATOM     10  C   UNL     1      -1.995   0.961  23.881  0.00  0.00    +0.042 C 
ATOM     11  C   UNL     1      -1.915   1.778  23.799  0.00  0.00    +0.184 C 
ATOM     12  O   UNL     1      -1.307   2.169  23.403  0.00  0.00    -0.220 OA
ATOM     13  C   UNL     1      -2.551   2.136  24.184  0.00  0.00    +0.202 C 
ATOM     14  O   UNL     1      -2.691   2.947  24.240  0.00  0.00    -0.219 OA
ATOM     15  C   UNL     1      -3.024   1.539  24.503  0.00  0.00    +0.132 C 
ENDROOT
BRANCH   9   6
ATOM      3  C   UNL     1      -3.551  -1.416  24.947  0.00  0.00    +0.139 A 
ATOM      4  C   UNL     1      -3.111  -0.977  25.489  0.00  0.00    +0.037 A 
ATOM      5  C   UNL     1      -2.820  -0.234  25.278  0.00  0.00    -0.001 A 
ATOM      6  C   UNL     1      -2.970   0.070  24.526  0.00  0.00    -0.020 A 
ATOM      7  C   UNL     1      -3.411  -0.370  23.984  0.00  0.00    -0.001 A 
ATOM      8  C   UNL     1      -3.701  -1.113  24.195  0.00  0.00    +0.037 A 
BRANCH   3   2
ATOM      1  C   UNL     1      -3.487  -2.841  24.856  0.00  0.00    +0.252 C 
ATOM      2  O   UNL     1      -3.841  -2.159  25.158  0.00  0.00    -0.471 OA
ENDBRANCH   3   2
ENDBRANCH   9   6
BRANCH  15  16
ATOM     16  N   UNL     1      -3.719   1.650  24.934  0.00  0.00    -0.204 NA
ATOM     17  C   UNL     1      -4.324   2.119  24.628  0.00  0.00    +0.241 C 
ATOM     18  O   UNL     1      -4.235   2.478  23.890  0.00  0.00    -0.273 OA
BRANCH  17  19
ATOM     19  C   UNL     1      -5.019   2.230  25.059  0.00  0.00    +0.078 C 
ATOM     20  C   UNL     1      -5.751   1.887  24.894  0.00  0.00    +0.009 C 
ATOM     21  C   UNL     1      -6.288   2.148  25.464  0.00  0.00    +0.001 C 
ATOM     22  C   UNL     1      -5.887   2.651  25.981  0.00  0.00    +0.001 C 
ATOM     23  C   UNL     1      -5.103   2.702  25.731  0.00  0.00    +0.009 C 
ENDBRANCH  17  19
ENDBRANCH  15  16
TORSDOF 4
ENDMDL
MODEL 4
REMARK VINA RESULT:     -10.4      1.184      3.147
REMARK  Name = 
REMARK  4 active torsions:
REMARK  status: ('A' for Active; 'I' for Inactive)
REMARK    1  A    between atoms: O_2  and  C_3
REMARK    2  A    between atoms: C_6  and  C_9
REMARK    3  A    between atoms: C_15  and  N_16
REMARK    4  A    between atoms: C_17  and  C_19
REMARK                            x       y       z     vdW  Elec       q    Type
REMARK                         _______ _______ _______ _____ _____    ______ ____
ROOT
ATOM      9  C   UNL     1      -1.713   1.398  24.251  0.00  0.00    +0.048 C 
ATOM     10  C   UNL     1      -1.001   1.809  24.185  0.00  0.00    +0.042 C 
ATOM     11  C   UNL     1      -0.387   1.258  24.186  0.00  0.00    +0.184 C 
ATOM     12  O   UNL     1       0.418   1.429  24.130  0.00  0.00    -0.220 OA
ATOM     13  C   UNL     1      -0.720   0.506  24.253  0.00  0.00    +0.202 C 
ATOM     14  O   UNL     1      -0.306  -0.207  24.276  0.00  0.00    -0.219 OA
ATOM     15  C   UNL     1      -1.540   0.592  24.293  0.00  0.00    +0.132 C 
ENDROOT
BRANCH   9   6
ATOM      3  C   UNL     1      -3.974   2.404  24.313  0.00  0.00    +0.139 A 
ATOM      4  C   UNL     1      -3.694   2.063  23.617  0.00  0.00    +0.037 A 
ATOM      5  C   UNL     1      -2.940   1.728  23.596  0.00  0.00    -0.001 A 
ATOM      6  C   UNL     1      -2.467   1.733  24.272  0.00  0.00    -0.020 A 
ATOM      7  C   UNL     1      -2.748   2.075  24.969  0.00  0.00    -0.001 A 
ATOM      8  C   UNL     1      -3.501   2.410  24.990  0.00  0.00    +0.037 A 
BRANCH   3   2
ATOM      1  C   UNL     1      -5.314   2.408  24.811  0.00  0.00    +0.252 C 
ATOM      2  O   UNL     1      -4.727   2.739  24.334  0.00  0.00    -0.471 OA
ENDBRANCH   3   2
ENDBRANCH   9   6
BRANCH  15  16
ATOM     16  N   UNL     1      -2.089  -0.020  24.364  0.00  0.00    -0.204 NA
ATOM     17  C   UNL     1      -2.021  -0.567  24.977  0.00  0.00    +0.241 C 
ATOM     18  O   UNL     1      -1.404  -0.502  25.520  0.00  0.00    -0.273 OA
BRANCH  17  19
ATOM     19  C   UNL     1      -2.570  -1.178  25.047  0.00  0.00    +0.078 C 
ATOM     20  C   UNL     1      -2.682  -1.794  24.508  0.00  0.00    +0.009 C 
ATOM     21  C   UNL     1      -3.285  -2.277  24.796  0.00  0.00    +0.001 C 
ATOM     22  C   UNL     1      -3.547  -1.961  25.512  0.00  0.00    +0.001 C 
ATOM     23  C   UNL     1      -3.105  -1.282  25.667  0.00  0.00    +0.009 C 
ENDBRANCH  17  19
ENDBRANCH  15  16
TORSDOF 4
ENDMDL
