MODEL 1
REMARK VINA RESULT:     -13.7      0.000      0.000
REMARK  Name = 
REMARK  6 active torsions:
REMARK  status: ('A' for Active; 'I' for Inactive)
REMARK    1  A    between atoms: C_2  and  C_5
REMARK    2  A    between atoms: C_8  and  C_11
REMARK    3  A    between atoms: C_13  and  C_14
REMARK    4  A    between atoms: C_14  and  C_15
REMARK    5  A    between atoms: C_20  and  C_21
REMARK    6  A    between atoms: C_21  and  C_22
REMARK                            x       y       z     vdW  Elec       q    Type
REMARK                         _______ _______ _______ _____ _____    ______ ____
ROOT
ATOM     14  C   UNL     1      -4.168   2.776  24.422  0.00  0.00    +0.051 C 
ENDROOT
BRANCH  14  15
ATOM     15  C   UNL     1      -3.866   3.241  25.032  0.00  0.00    +0.024 C 
ATOM     16  C   UNL     1      -4.332   3.410  25.692  0.00  0.00    +0.089 C 
ATOM     17  N   UNL     1      -4.030   3.875  26.302  0.00  0.00    -0.218 NA
ATOM     18  C   UNL     1      -3.262   4.171  26.254  0.00  0.00    +0.089 C 
ATOM     19  C   UNL     1      -2.795   4.002  25.595  0.00  0.00    +0.019 C 
ATOM     20  C   UNL     1      -3.098   3.537  24.984  0.00  0.00    +0.012 C 
BRANCH  20  21
ATOM     21  C   UNL     1      -2.631   3.368  24.325  0.00  0.00    +0.087 C 
BRANCH  21  22
ATOM     22  C   UNL     1      -1.826   3.210  24.420  0.00  0.00    +0.247 C 
ATOM     23  O   UNL     1      -1.332   3.774  24.763  0.00  0.00    -0.273 OA
ATOM     24  N   UNL     1      -1.516   2.487  24.171  0.00  0.00    -0.154 NA
ATOM     25  C   UNL     1      -0.712   2.328  24.266  0.00  0.00    +0.186 A 
ATOM     26  N   UNL     1      -0.326   1.633  24.044  0.00  0.00    -0.221 NA
ATOM     27  C   UNL     1       0.473   1.713  24.241  0.00  0.00    +0.108 A 
ATOM     28  C   UNL     1       0.579   2.456  24.582  0.00  0.00    +0.059 A 
ATOM     29  S   UNL     1      -0.154   2.836  24.598  0.00  0.00    -0.049 S 
ENDBRANCH  21  22
ENDBRANCH  20  21
ENDBRANCH  14  15
BRANCH  14  13
ATOM     11  C   UNL     1      -4.487   0.682  24.694  0.00  0.00    +0.177 A 
ATOM     12  C   UNL     1      -4.008   1.315  24.467  0.00  0.00    +0.058 A 
ATOM     13  C   UNL     1      -4.436   2.012  24.579  0.00  0.00    +0.101 A 
ATOM     30  N   UNL     1      -5.179   1.810  24.876  0.00  0.00    -0.081 NA
ATOM     31  O   UNL     1      -5.210   0.988  24.947  0.00  0.00    -0.354 OA
BRANCH  11   8
ATOM      5  C   UNL     1      -3.862  -1.711  24.630  0.00  0.00    -0.023 A 
ATOM      6  C   UNL     1      -3.750  -1.274  25.321  0.00  0.00    -0.004 A 
ATOM      7  C   UNL     1      -3.958  -0.476  25.343  0.00  0.00    +0.003 A 
ATOM      8  C   UNL     1      -4.279  -0.115  24.673  0.00  0.00    +0.037 A 
ATOM      9  C   UNL     1      -4.391  -0.552  23.983  0.00  0.00    +0.003 A 
ATOM     10  C   UNL     1      -4.182  -1.350  23.961  0.00  0.00    -0.004 A 
BRANCH   5   2
ATOM      1  C   UNL     1      -3.445  -3.307  24.587  0.00  0.00    +0.004 C 
ATOM      2  C   UNL     1      -3.653  -2.509  24.608  0.00  0.00    +0.019 C 
ATOM      3  C   UNL     1      -3.246  -2.422  25.320  0.00  0.00    +0.004 C 
ATOM      4  C   UNL     1      -4.061  -2.597  23.897  0.00  0.00    +0.004 C 
ENDBRANCH   5   2
ENDBRANCH  11   8
ENDBRANCH  14  13
TORSDOF 6
ENDMDL
MODEL 2
REMARK VINA RESULT:     -12.6      1.638      3.213
REMARK  Name = 
REMARK  6 active torsions:
REMARK  status: ('A' for Active; 'I' for Inactive)
REMARK    1  A    between atoms: C_2  and  C_5
REMARK    2  A    between atoms: C_8  and  C_11
REMARK    3  A    between atoms: C_13  and  C_14
REMARK    4  A    between atoms: C_14  and  C_15
REMARK    5  A    between atoms: C_20  and  C_21
REMARK    6  A    between atoms: C_21  and  C_22
REMARK                            x       y       z     vdW  Elec       q    Type
REMARK                         _______ _______ _______ _____ _____    ______ ____
ROOT
ATOM     14  C   UNL     1      -0.905   1.863  25.747  0.00  0.00    +0.051 C 
ENDROOT
BRANCH  14  15
ATOM     15  C   UNL     1      -0.808   2.509  25.244  0.00  0.00    +0.024 C 
ATOM     16  C   UNL     1      -0.239   2.485  24.646  0.00  0.00    +0.089 C 
ATOM     17  N   UNL     1      -0.143   3.131  24.143  0.00  0.00    -0.218 NA
ATOM     18  C   UNL     1      -0.614   3.801  24.236  0.00  0.00    +0.089 C 
ATOM     19  C   UNL     1      -1.184   3.826  24.833  0.00  0.00    +0.019 C 
ATOM     20  C   UNL     1      -1.280   3.179  25.337  0.00  0.00    +0.012 C 
BRANCH  20  21
ATOM     21  C   UNL     1      -1.849   3.204  25.934  0.00  0.00    +0.087 C 
BRANCH  21  22
ATOM     22  C   UNL     1      -2.596   3.519  25.778  0.00  0.00    +0.247 C 
ATOM     23  O   UNL     1      -2.678   4.323  25.612  0.00  0.00    -0.273 OA
ATOM     24  N   UNL     1      -3.261   3.031  25.789  0.00  0.00    -0.154 NA
ATOM     25  C   UNL     1      -4.007   3.346  25.633  0.00  0.00    +0.186 A 
ATOM     26  N   UNL     1      -4.718   2.927  25.625  0.00  0.00    -0.221 NA
ATOM     27  C   UNL     1      -5.324   3.458  25.445  0.00  0.00    +0.108 A 
ATOM     28  C   UNL     1      -4.988   4.204  25.343  0.00  0.00    +0.059 A 
ATOM     29  S   UNL     1      -4.174   4.135  25.460  0.00  0.00    -0.049 S 
ENDBRANCH  21  22
ENDBRANCH  20  21
ENDBRANCH  14  15
BRANCH  14  13
ATOM     11  C   UNL     1      -1.504  -0.051  25.017  0.00  0.00    +0.177 A 
ATOM     12  C   UNL     1      -1.684   0.680  25.354  0.00  0.00    +0.058 A 
ATOM     13  C   UNL     1      -0.981   1.104  25.434  0.00  0.00    +0.101 A 
ATOM     30  N   UNL     1      -0.366   0.634  25.148  0.00  0.00    -0.081 NA
ATOM     31  O   UNL     1      -0.690  -0.080  24.889  0.00  0.00    -0.354 OA
BRANCH  11   8
ATOM      5  C   UNL     1      -3.125  -1.844  24.482  0.00  0.00    -0.023 A 
ATOM      6  C   UNL     1      -2.326  -2.026  24.583  0.00  0.00    -0.004 A 
ATOM      7  C   UNL     1      -1.786  -1.429  24.761  0.00  0.00    +0.003 A 
ATOM      8  C   UNL     1      -2.044  -0.649  24.838  0.00  0.00    +0.037 A 
ATOM      9  C   UNL     1      -2.842  -0.467  24.738  0.00  0.00    +0.003 A 
ATOM     10  C   UNL     1      -3.382  -1.064  24.560  0.00  0.00    -0.004 A 
BRANCH   5   2
ATOM      1  C   UNL     1      -4.205  -3.039  24.126  0.00  0.00    +0.004 C 
ATOM      2  C   UNL     1      -3.665  -2.442  24.304  0.00  0.00    +0.019 C 
ATOM      3  C   UNL     1      -3.289  -2.942  24.842  0.00  0.00    +0.004 C 
ATOM      4  C   UNL     1      -4.040  -1.942  23.766  0.00  0.00    +0.004 C 
ENDBRANCH   5   2
ENDBRANCH  11   8
ENDBRANCH  14  13
TORSDOF 6
ENDMDL
MODEL 3
REMARK VINA RESULT:     -11.6      2.132      5.107
REMARK  Name = 
REMARK  6 active torsions:
REMARK  status: ('A' for Active; 'I' for Inactive)
REMARK    1  A    between atoms: C_2  and  C_5
REMARK    2  A    between atoms: C_8  and  C_11
REMARK    3  A    between atoms: C_13  and  C_14
REMARK    4  A    between atoms: C_14  and  C_15
REMARK    5  A    between atoms: C_20  and  C_21
REMARK    6  A    between atoms: C_21  and  C_22
REMARK                            x       y       z     vdW  Elec       q    Type
REMARK                         _______ _______ _______ _____ _____    ______ ____
ROOT
ATOM     14  C   UNL     1      -0.558   1.053  25.292  0.00  0.00    +0.051 C 
ENDROOT
BRANCH  14  15
ATOM     15  C   UNL     1      -0.286   0.652  24.625  0.00  0.00    +0.024 C 
ATOM     16  C   UNL     1       0.114   1.062  24.031  0.00  0.00    +0.089 C 
ATOM     17  N   UNL     1       0.386   0.661  23.364  0.00  0.00    -0.218 NA
ATOM     18  C   UNL     1       0.259  -0.150  23.289  0.00  0.00    +0.089 C 
ATOM     19  C   UNL     1      -0.142  -0.561  23.882  0.00  0.00    +0.019 C 
ATOM     20  C   UNL     1      -0.414  -0.159  24.550  0.00  0.00    +0.012 C 
BRANCH  20  21
ATOM     21  C   UNL     1      -0.814  -0.570  25.143  0.00  0.00    +0.087 C 
BRANCH  21  22
ATOM     22  C   UNL     1      -1.289  -1.217  24.948  0.00  0.00    +0.247 C 
ATOM     23  O   UNL     1      -0.945  -1.913  24.669  0.00  0.00    -0.273 OA
ATOM     24  N   UNL     1      -2.108  -1.168  25.032  0.00  0.00    -0.154 NA
ATOM     25  C   UNL     1      -2.583  -1.813  24.837  0.00  0.00    +0.186 A 
ATOM     26  N   UNL     1      -3.405  -1.844  24.892  0.00  0.00    -0.221 NA
ATOM     27  C   UNL     1      -3.649  -2.593  24.642  0.00  0.00    +0.108 A 
ATOM     28  C   UNL     1      -2.978  -3.022  24.432  0.00  0.00    +0.059 A 
ATOM     29  S   UNL     1      -2.318  -2.541  24.553  0.00  0.00    -0.049 S 
ENDBRANCH  21  22
ENDBRANCH  20  21
ENDBRANCH  14  15
BRANCH  14  13
ATOM     11  C   UNL     1      -2.067   2.560  25.185  0.00  0.00    +0.177 A 
ATOM     12  C   UNL     1      -1.834   1.782  25.335  0.00  0.00    +0.058 A 
ATOM     13  C   UNL     1      -1.020   1.731  25.206  0.00  0.00    +0.101 A 
ATOM     30  N   UNL     1      -0.751   2.476  24.977  0.00  0.00    -0.081 NA
ATOM     31  O   UNL     1      -1.398   2.988  24.964  0.00  0.00    -0.354 OA
BRANCH  11   8
ATOM      5  C   UNL     1      -4.369   3.449  25.367  0.00  0.00    -0.023 A 
ATOM      6  C   UNL     1      -4.212   2.810  24.869  0.00  0.00    -0.004 A 
ATOM      7  C   UNL     1      -3.444   2.514  24.808  0.00  0.00    +0.003 A 
ATOM      8  C   UNL     1      -2.834   2.856  25.246  0.00  0.00    +0.037 A 
ATOM      9  C   UNL     1      -2.991   3.494  25.744  0.00  0.00    +0.003 A 
ATOM     10  C   UNL     1      -3.759   3.790  25.805  0.00  0.00    -0.004 A 
BRANCH   5   2
ATOM      1  C   UNL     1      -5.904   4.041  25.489  0.00  0.00    +0.004 C 
ATOM      2  C   UNL     1      -5.137   3.745  25.428  0.00  0.00    +0.019 C 
ATOM      3  C   UNL     1      -5.380   3.043  25.787  0.00  0.00    +0.004 C 
ATOM      4  C   UNL     1      -4.894   4.447  25.070  0.00  0.00    +0.004 C 
ENDBRANCH   5   2
ENDBRANCH  11   8
ENDBRANCH  14  13
TORSDOF 6
ENDMDL
