MODEL 1
REMARK VINA RESULT:      -9.8      0.000      0.000
REMARK  Name = 
REMARK  4 active torsions:
REMARK  status: ('A' for Active; 'I' for Inactive)
REMARK    1  A    between atoms: C_4  and  C_8
REMARK    2  A    between atoms: N_10  and  C_11
REMARK    3  A    between atoms: C_14  and  C_17
REMARK    4  A    between atoms: CA_23  and  C_24
REMARK                            x       y       z     vdW  Elec       q    Type
REMARK                         _______ _______ _______ _____ _____    ______ ____
ROOT
ATOM     11  C   UNL     1      -2.329   1.013  24.514  0.00  0.00    +0.074 A 
ATOM     12  C   UNL     1      -2.595   1.584  23.982  0.00  0.00    +0.016 A 
ATOM     13  C   UNL     1      -2.396   2.377  24.093  0.00  0.00    -0.001 A 
ATOM     14  C   UNL     1      -1.931   2.599  24.738  0.00  0.00    +0.006 A 
ATOM     15  C   UNL     1      -1.666   2.028  25.271  0.00  0.00    -0.001 A 
ATOM     16  C   UNL     1      -1.864   1.235  25.159  0.00  0.00    +0.016 A 
ENDROOT
BRANCH  14  17
ATOM     17  C   UNL     1      -1.733   3.392  24.849  0.00  0.00    +0.160 C 
ATOM     18  O   UNL     1      -1.027   3.688  24.542  0.00  0.00    -0.341 OA
ATOM     19  C   UNL     1      -0.829   4.481  24.653  0.00  0.00    +0.229 C 
ATOM     20  C   UNL     1      -1.337   4.977  25.073  0.00  0.00    +0.272 C 
ATOM     21  O   UNL     1      -1.139   5.771  25.185  0.00  0.00    -0.271 OA
ATOM     22  N   UNL     1      -2.043   4.682  25.381  0.00  0.00    -0.199 NA
ATOM     23  CA  UNL     1      -2.241   3.889  25.269  0.00  0.00    +0.159 C 
BRANCH  23  24
ATOM     24  C   UNL     1      -2.947   3.593  25.577  0.00  0.00    +0.206 C 
ATOM     25  O   UNL     1      -3.432   4.077  26.035  0.00  0.00    -0.218 OA
ENDBRANCH  23  24
ENDBRANCH  14  17
BRANCH  11  10
ATOM      8  C   UNL     1      -3.239  -0.073  24.701  0.00  0.00    +0.288 C 
ATOM      9  O   UNL     1      -3.752   0.427  25.110  0.00  0.00    -0.266 OA
ATOM     10  N   UNL     1      -2.528   0.221  24.403  0.00  0.00    -0.174 NA
BRANCH   8   4
ATOM      1  C   UNL     1      -3.331  -2.962  24.979  0.00  0.00    +0.153 C 
ATOM      2  N   UNL     1      -3.480  -2.194  24.717  0.00  0.00    -0.253 N 
ATOM      3  N   UNL     1      -3.129  -1.507  25.007  0.00  0.00    -0.165 NA
ATOM      4  C   UNL     1      -3.438  -0.866  24.589  0.00  0.00    +0.157 A 
ATOM      5  C   UNL     1      -3.980  -1.157  24.040  0.00  0.00    +0.040 A 
ATOM      6  C   UNL     1      -4.006  -1.979  24.119  0.00  0.00    +0.058 A 
ATOM      7  C   UNL     1      -4.476  -2.493  23.678  0.00  0.00    +0.052 C 
ENDBRANCH   8   4
ENDBRANCH  11  10
TORSDOF 4
ENDMDL
MODEL 2
REMARK VINA RESULT:      -9.2      1.377      5.596
REMARK  Name = 
REMARK  4 active torsions:
REMARK  status: ('A' for Active; 'I' for Inactive)
REMARK    1  A    between atoms: C_4  and  C_8
REMARK    2  A    between atoms: N_10  and  C_11
REMARK    3  A    between atoms: C_14  and  C_17
REMARK    4  A    between atoms: CA_23  and  C_24
REMARK                            x       y       z     vdW  Elec       q    Type
REMARK                         _______ _______ _______ _____ _____    ______ ____
ROOT
ATOM     11  C   UNL     1      -2.901   1.454  24.487  0.00  0.00    +0.074 A 
ATOM     12  C   UNL     1      -3.360   1.088  25.067  0.00  0.00    +0.016 A 
ATOM     13  C   UNL     1      -3.542   0.287  25.004  0.00  0.00    -0.001 A 
ATOM     14  C   UNL     1      -3.266  -0.151  24.361  0.00  0.00    +0.006 A 
ATOM     15  C   UNL     1      -2.806   0.215  23.781  0.00  0.00    -0.001 A 
ATOM     16  C   UNL     1      -2.624   1.017  23.844  0.00  0.00    +0.016 A 
ENDROOT
BRANCH  14  17
ATOM     17  C   UNL     1      -3.449  -0.952  24.299  0.00  0.00    +0.160 C 
ATOM     18  O   UNL     1      -4.160  -1.188  23.955  0.00  0.00    -0.341 OA
ATOM     19  C   UNL     1      -4.342  -1.991  23.892  0.00  0.00    +0.229 C 
ATOM     20  C   UNL     1      -3.813  -2.556  24.174  0.00  0.00    +0.272 C 
ATOM     21  O   UNL     1      -3.995  -3.359  24.111  0.00  0.00    -0.271 OA
ATOM     22  N   UNL     1      -3.101  -2.322  24.518  0.00  0.00    -0.199 NA
ATOM     23  CA  UNL     1      -2.919  -1.519  24.581  0.00  0.00    +0.159 C 
BRANCH  23  24
ATOM     24  C   UNL     1      -2.207  -1.283  24.925  0.00  0.00    +0.206 C 
ATOM     25  O   UNL     1      -1.642  -1.847  25.130  0.00  0.00    -0.218 OA
ENDBRANCH  23  24
ENDBRANCH  14  17
BRANCH  11  10
ATOM      8  C   UNL     1      -2.048   2.495  24.969  0.00  0.00    +0.288 C 
ATOM      9  O   UNL     1      -1.561   1.932  25.324  0.00  0.00    -0.266 OA
ATOM     10  N   UNL     1      -2.718   2.255  24.550  0.00  0.00    -0.174 NA
BRANCH   8   4
ATOM      1  C   UNL     1      -2.264   5.344  25.489  0.00  0.00    +0.153 C 
ATOM      2  N   UNL     1      -1.965   4.607  25.271  0.00  0.00    -0.253 N 
ATOM      3  N   UNL     1      -2.373   3.890  25.299  0.00  0.00    -0.165 NA
ATOM      4  C   UNL     1      -1.865   3.297  25.031  0.00  0.00    +0.157 A 
ATOM      5  C   UNL     1      -1.144   3.647  24.838  0.00  0.00    +0.040 A 
ATOM      6  C   UNL     1      -1.205   4.456  24.986  0.00  0.00    +0.058 A 
ATOM      7  C   UNL     1      -0.612   5.017  24.869  0.00  0.00    +0.052 C 
ENDBRANCH   8   4
ENDBRANCH  11  10
TORSDOF 4
ENDMDL
MODEL 3
REMARK VINA RESULT:      -8.1      2.730      4.369
REMARK  Name = 
REMARK  4 active torsions:
REMARK  status: ('A' for Active; 'I' for Inactive)
REMARK    1  A    between atoms: C_4  and  C_8
REMARK    2  A    between atoms: N_10  and  C_11
REMARK    3  A    between atoms: C_14  and  C_17
REMARK    4  A    between atoms: CA_23  and  C_24
REMARK                            x       y       z     vdW  Elec       q    Type
REMARK                         _______ _______ _______ _____ _____    ______ ____
ROOT
ATOM     11  C   UNL     1      -2.567   1.238  24.758  0.00  0.00    +0.074 A 
ATOM     12  C   UNL     1      -1.849   1.527  25.044  0.00  0.00    +0.016 A 
ATOM     13  C   UNL     1      -1.138   1.238  24.742  0.00  0.00    -0.001 A 
ATOM     14  C   UNL     1      -1.145   0.660  24.152  0.00  0.00    +0.006 A 
ATOM     15  C   UNL     1      -1.863   0.372  23.866  0.00  0.00    -0.001 A 
ATOM     16  C   UNL     1      -2.574   0.661  24.168  0.00  0.00    +0.016 A 
ENDROOT
BRANCH  14  17
ATOM     17  C   UNL     1      -0.434   0.372  23.850  0.00  0.00    +0.160 C 
ATOM     18  O   UNL     1      -0.022   0.803  23.281  0.00  0.00    -0.341 OA
ATOM     19  C   UNL     1       0.690   0.513  22.979  0.00  0.00    +0.229 C 
ATOM     20  C   UNL     1       0.988  -0.207  23.246  0.00  0.00    +0.272 C 
ATOM     21  O   UNL     1       1.700  -0.497  22.944  0.00  0.00    -0.271 OA
ATOM     22  N   UNL     1       0.577  -0.639  23.816  0.00  0.00    -0.199 NA
ATOM     23  CA  UNL     1      -0.135  -0.350  24.118  0.00  0.00    +0.159 C 
BRANCH  23  24
ATOM     24  C   UNL     1      -0.547  -0.781  24.688  0.00  0.00    +0.206 C 
ATOM     25  O   UNL     1      -0.214  -1.464  25.009  0.00  0.00    -0.218 OA
ENDBRANCH  23  24
ENDBRANCH  14  17
BRANCH  11  10
ATOM      8  C   UNL     1      -3.713   2.084  24.633  0.00  0.00    +0.288 C 
ATOM      9  O   UNL     1      -3.436   2.351  23.903  0.00  0.00    -0.266 OA
ATOM     10  N   UNL     1      -3.278   1.527  25.060  0.00  0.00    -0.174 NA
BRANCH   8   4
ATOM      1  C   UNL     1      -5.739   3.875  25.691  0.00  0.00    +0.153 C 
ATOM      2  N   UNL     1      -5.355   3.197  25.421  0.00  0.00    -0.253 N 
ATOM      3  N   UNL     1      -4.578   3.155  25.147  0.00  0.00    -0.165 NA
ATOM      4  C   UNL     1      -4.424   2.373  24.935  0.00  0.00    +0.157 A 
ATOM      5  C   UNL     1      -5.105   1.930  25.079  0.00  0.00    +0.040 A 
ATOM      6  C   UNL     1      -5.681   2.439  25.380  0.00  0.00    +0.058 A 
ATOM      7  C   UNL     1      -6.447   2.229  25.599  0.00  0.00    +0.052 C 
ENDBRANCH   8   4
ENDBRANCH  11  10
TORSDOF 4
ENDMDL
