MODEL 1
REMARK VINA RESULT:      -7.3      0.000      0.000
REMARK  Name = 
REMARK  5 active torsions:
REMARK  status: ('A' for Active; 'I' for Inactive)
REMARK    1  A    between atoms: O_2  and  C_3
REMARK    2  A    between atoms: C_3  and  C_4
REMARK    3  A    between atoms: C_4  and  N_5
REMARK    4  A    between atoms: N_9  and  C_10
REMARK    5  A    between atoms: C_10  and  C_11
REMARK                            x       y       z     vdW  Elec       q    Type
REMARK                         _______ _______ _______ _____ _____    ______ ____
ROOT
ATOM      5  N   UNL     1      -3.264   3.350  25.153  0.00  0.00    -0.260 N 
ATOM      6  C   UNL     1      -2.901   2.693  24.811  0.00  0.00    +0.116 C 
ATOM      7  C   UNL     1      -3.455   2.082  24.784  0.00  0.00    +0.113 C 
ATOM      8  C   UNL     1      -3.409   1.307  24.505  0.00  0.00    +0.094 C 
ATOM      9  N   UNL     1      -4.066   0.812  24.551  0.00  0.00    -0.264 NA
ATOM     16  C   UNL     1      -4.771   1.092  24.875  0.00  0.00    +0.094 C 
ATOM     17  C   UNL     1      -4.818   1.866  25.154  0.00  0.00    +0.112 C 
ATOM     18  N   UNL     1      -4.160   2.362  25.108  0.00  0.00    -0.261 N 
ATOM     19  C   UNL     1      -4.042   3.145  25.336  0.00  0.00    +0.307 C 
ATOM     20  O   UNL     1      -4.604   3.638  25.687  0.00  0.00    -0.252 OA
ENDROOT
BRANCH   5   4
ATOM      4  C   UNL     1      -2.911   4.084  25.287  0.00  0.00    +0.127 C 
BRANCH   4   3
ATOM      3  C   UNL     1      -2.104   4.184  25.154  0.00  0.00    +0.164 C 
BRANCH   3   2
ATOM      1  C   UNL     1      -1.011   5.091  24.999  0.00  0.00    +0.174 C 
ATOM      2  O   UNL     1      -1.741   4.903  25.333  0.00  0.00    -0.349 OA
ENDBRANCH   3   2
ENDBRANCH   4   3
ENDBRANCH   5   4
BRANCH   9  10
ATOM     10  C   UNL     1      -4.020   0.036  24.272  0.00  0.00    +0.126 C 
BRANCH  10  11
ATOM     11  C   UNL     1      -3.679  -0.551  24.739  0.00  0.00    +0.104 A 
ATOM     12  N   UNL     1      -3.960  -0.816  25.469  0.00  0.00    -0.240 NA
ATOM     13  C   UNL     1      -3.451  -1.405  25.740  0.00  0.00    +0.106 A 
ATOM     14  C   UNL     1      -2.854  -1.505  25.178  0.00  0.00    +0.057 A 
ATOM     15  S   UNL     1      -2.995  -0.977  24.560  0.00  0.00    -0.069 S 
ENDBRANCH  10  11
ENDBRANCH   9  10
TORSDOF 5
ENDMDL
MODEL 2
REMARK VINA RESULT:      -7.2      3.217      5.212
REMARK  Name = 
REMARK  5 active torsions:
REMARK  status: ('A' for Active; 'I' for Inactive)
REMARK    1  A    between atoms: O_2  and  C_3
REMARK    2  A    between atoms: C_3  and  C_4
REMARK    3  A    between atoms: C_4  and  N_5
REMARK    4  A    between atoms: N_9  and  C_10
REMARK    5  A    between atoms: C_10  and  C_11
REMARK                            x       y       z     vdW  Elec       q    Type
REMARK                         _______ _______ _______ _____ _____    ______ ____
ROOT
ATOM      5  N   UNL     1      -0.784  -0.410  24.659  0.00  0.00    -0.260 N 
ATOM      6  C   UNL     1      -1.068   0.062  25.273  0.00  0.00    +0.116 C 
ATOM      7  C   UNL     1      -0.748   0.816  25.183  0.00  0.00    +0.113 C 
ATOM      8  C   UNL     1      -0.833   1.509  25.624  0.00  0.00    +0.094 C 
ATOM      9  N   UNL     1      -0.437   2.195  25.396  0.00  0.00    -0.264 NA
ATOM     16  C   UNL     1       0.045   2.189  24.726  0.00  0.00    +0.094 C 
ATOM     17  C   UNL     1       0.131   1.497  24.285  0.00  0.00    +0.112 C 
ATOM     18  N   UNL     1      -0.266   0.811  24.514  0.00  0.00    -0.261 N 
ATOM     19  C   UNL     1      -0.288   0.053  24.190  0.00  0.00    +0.307 C 
ATOM     20  O   UNL     1       0.115  -0.199  23.515  0.00  0.00    -0.252 OA
ENDROOT
BRANCH   5   4
ATOM      4  C   UNL     1      -0.964  -1.206  24.536  0.00  0.00    +0.127 C 
BRANCH   4   3
ATOM      3  C   UNL     1      -1.715  -1.493  24.719  0.00  0.00    +0.164 C 
BRANCH   3   2
ATOM      1  C   UNL     1      -2.690  -2.523  24.546  0.00  0.00    +0.174 C 
ATOM      2  O   UNL     1      -1.901  -2.285  24.581  0.00  0.00    -0.349 OA
ENDBRANCH   3   2
ENDBRANCH   4   3
ENDBRANCH   5   4
BRANCH   9  10
ATOM     10  C   UNL     1      -0.522   2.887  25.837  0.00  0.00    +0.126 C 
BRANCH  10  11
ATOM     11  C   UNL     1      -1.109   3.432  25.641  0.00  0.00    +0.104 A 
ATOM     12  N   UNL     1      -1.897   3.403  25.881  0.00  0.00    -0.240 NA
ATOM     13  C   UNL     1      -2.286   4.055  25.559  0.00  0.00    +0.106 A 
ATOM     14  C   UNL     1      -1.738   4.488  25.119  0.00  0.00    +0.057 A 
ATOM     15  S   UNL     1      -1.010   4.102  25.169  0.00  0.00    -0.069 S 
ENDBRANCH  10  11
ENDBRANCH   9  10
TORSDOF 5
ENDMDL
MODEL 3
REMARK VINA RESULT:      -7.1      2.555      3.739
REMARK  Name = 
REMARK  5 active torsions:
REMARK  status: ('A' for Active; 'I' for Inactive)
REMARK    1  A    between atoms: O_2  and  C_3
REMARK    2  A    between atoms: C_3  and  C_4
REMARK    3  A    between atoms: C_4  and  N_5
REMARK    4  A    between atoms: N_9  and  C_10
REMARK    5  A    between atoms: C_10  and  C_11
REMARK                            x       y       z     vdW  Elec       q    Type
REMARK                         _______ _______ _______ _____ _____    ______ ____
ROOT
ATOM      5  N   UNL     1      -0.747   2.035  24.563  0.00  0.00    -0.260 N 
ATOM      6  C   UNL     1      -1.446   2.054  24.124  0.00  0.00    +0.116 C 
ATOM      7  C   UNL     1      -1.970   2.566  24.502  0.00  0.00    +0.113 C 
ATOM      8  C   UNL     1      -2.740   2.800  24.322  0.00  0.00    +0.094 C 
ATOM      9  N   UNL     1      -3.136   3.331  24.813  0.00  0.00    -0.264 NA
ATOM     16  C   UNL     1      -2.762   3.629  25.485  0.00  0.00    +0.094 C 
ATOM     17  C   UNL     1      -1.992   3.395  25.666  0.00  0.00    +0.112 C 
ATOM     18  N   UNL     1      -1.596   2.863  25.174  0.00  0.00    -0.261 N 
ATOM     19  C   UNL     1      -0.840   2.535  25.212  0.00  0.00    +0.307 C 
ATOM     20  O   UNL     1      -0.276   2.682  25.796  0.00  0.00    -0.252 OA
ENDROOT
BRANCH   5   4
ATOM      4  C   UNL     1      -0.074   1.593  24.384  0.00  0.00    +0.127 C 
BRANCH   4   3
ATOM      3  C   UNL     1      -0.128   0.946  23.875  0.00  0.00    +0.164 C 
BRANCH   3   2
ATOM      1  C   UNL     1       0.545  -0.188  23.325  0.00  0.00    +0.174 C 
ATOM      2  O   UNL     1       0.557   0.598  23.575  0.00  0.00    -0.349 OA
ENDBRANCH   3   2
ENDBRANCH   4   3
ENDBRANCH   5   4
BRANCH   9  10
ATOM     10  C   UNL     1      -3.906   3.566  24.632  0.00  0.00    +0.126 C 
BRANCH  10  11
ATOM     11  C   UNL     1      -4.547   3.134  24.919  0.00  0.00    +0.104 A 
ATOM     12  N   UNL     1      -4.860   2.448  24.584  0.00  0.00    -0.240 NA
ATOM     13  C   UNL     1      -5.495   2.203  25.050  0.00  0.00    +0.106 A 
ATOM     14  C   UNL     1      -5.574   2.737  25.675  0.00  0.00    +0.057 A 
ATOM     15  S   UNL     1      -4.989   3.312  25.594  0.00  0.00    -0.069 S 
ENDBRANCH  10  11
ENDBRANCH   9  10
TORSDOF 5
ENDMDL
MODEL 4
REMARK VINA RESULT:      -7.0      2.624      3.813
REMARK  Name = 
REMARK  5 active torsions:
REMARK  status: ('A' for Active; 'I' for Inactive)
REMARK    1  A    between atoms: O_2  and  C_3
REMARK    2  A    between atoms: C_3  and  C_4
REMARK    3  A    between atoms: C_4  and  N_5
REMARK    4  A    between atoms: N_9  and  C_10
REMARK    5  A    between atoms: C_10  and  C_11
REMARK                            x       y       z     vdW  Elec       q    Type
REMARK                         _______ _______ _______ _____ _____    ______ ____
ROOT
ATOM      5  N   UNL     1      -1.572   0.031  24.546  0.00  0.00    -0.260 N 
ATOM      6  C   UNL     1      -1.887   0.727  24.233  0.00  0.00    +0.116 C 
ATOM      7  C   UNL     1      -2.691   0.747  24.415  0.00  0.00    +0.113 C 
ATOM      8  C   UNL     1      -3.281   1.299  24.249  0.00  0.00    +0.094 C 
ATOM      9  N   UNL     1      -4.053   1.169  24.507  0.00  0.00    -0.264 NA
ATOM     16  C   UNL     1      -4.235   0.486  24.932  0.00  0.00    +0.094 C 
ATOM     17  C   UNL     1      -3.646  -0.067  25.099  0.00  0.00    +0.112 C 
ATOM     18  N   UNL     1      -2.873   0.064  24.840  0.00  0.00    -0.261 N 
ATOM     19  C   UNL     1      -2.182  -0.378  24.921  0.00  0.00    +0.307 C 
ATOM     20  O   UNL     1      -2.113  -1.104  25.309  0.00  0.00    -0.252 OA
ENDROOT
BRANCH   5   4
ATOM      4  C   UNL     1      -0.786  -0.213  24.493  0.00  0.00    +0.127 C 
BRANCH   4   3
ATOM      3  C   UNL     1      -0.316   0.043  23.865  0.00  0.00    +0.164 C 
BRANCH   3   2
ATOM      1  C   UNL     1       0.871  -0.081  23.079  0.00  0.00    +0.174 C 
ATOM      2  O   UNL     1       0.429  -0.291  23.744  0.00  0.00    -0.349 OA
ENDBRANCH   3   2
ENDBRANCH   4   3
ENDBRANCH   5   4
BRANCH   9  10
ATOM     10  C   UNL     1      -4.643   1.721  24.341  0.00  0.00    +0.126 C 
BRANCH  10  11
ATOM     11  C   UNL     1      -4.847   2.289  24.903  0.00  0.00    +0.104 A 
ATOM     12  N   UNL     1      -4.422   2.975  25.076  0.00  0.00    -0.240 NA
ATOM     13  C   UNL     1      -4.824   3.381  25.671  0.00  0.00    +0.106 A 
ATOM     14  C   UNL     1      -5.499   2.947  25.865  0.00  0.00    +0.057 A 
ATOM     15  S   UNL     1      -5.513   2.272  25.390  0.00  0.00    -0.069 S 
ENDBRANCH  10  11
ENDBRANCH   9  10
TORSDOF 5
ENDMDL
MODEL 5
REMARK VINA RESULT:      -7.0      2.451      3.931
REMARK  Name = 
REMARK  5 active torsions:
REMARK  status: ('A' for Active; 'I' for Inactive)
REMARK    1  A    between atoms: O_2  and  C_3
REMARK    2  A    between atoms: C_3  and  C_4
REMARK    3  A    between atoms: C_4  and  N_5
REMARK    4  A    between atoms: N_9  and  C_10
REMARK    5  A    between atoms: C_10  and  C_11
REMARK                            x       y       z     vdW  Elec       q    Type
REMARK                         _______ _______ _______ _____ _____    ______ ____
ROOT
ATOM      5  N   UNL     1      -1.159   0.964  24.906  0.00  0.00    -0.260 N 
ATOM      6  C   UNL     1      -1.892   0.958  24.526  0.00  0.00    +0.116 C 
ATOM      7  C   UNL     1      -2.252   1.689  24.656  0.00  0.00    +0.113 C 
ATOM      8  C   UNL     1      -2.978   1.998  24.416  0.00  0.00    +0.094 C 
ATOM      9  N   UNL     1      -3.194   2.762  24.634  0.00  0.00    -0.264 NA
ATOM     16  C   UNL     1      -2.684   3.220  25.094  0.00  0.00    +0.094 C 
ATOM     17  C   UNL     1      -1.958   2.912  25.335  0.00  0.00    +0.112 C 
ATOM     18  N   UNL     1      -1.741   2.146  25.116  0.00  0.00    -0.261 N 
ATOM     19  C   UNL     1      -1.067   1.698  25.270  0.00  0.00    +0.307 C 
ATOM     20  O   UNL     1      -0.413   1.941  25.711  0.00  0.00    -0.252 OA
ENDROOT
BRANCH   5   4
ATOM      4  C   UNL     1      -0.615   0.344  24.918  0.00  0.00    +0.127 C 
BRANCH   4   3
ATOM      3  C   UNL     1      -0.879  -0.438  24.907  0.00  0.00    +0.164 C 
BRANCH   3   2
ATOM      1  C   UNL     1      -0.566  -1.798  25.211  0.00  0.00    +0.174 C 
ATOM      2  O   UNL     1      -0.335  -1.058  24.929  0.00  0.00    -0.349 OA
ENDBRANCH   3   2
ENDBRANCH   4   3
ENDBRANCH   5   4
BRANCH   9  10
ATOM     10  C   UNL     1      -3.921   3.071  24.394  0.00  0.00    +0.126 C 
BRANCH  10  11
ATOM     11  C   UNL     1      -4.600   2.920  24.835  0.00  0.00    +0.104 A 
ATOM     12  N   UNL     1      -5.095   2.265  24.755  0.00  0.00    -0.240 NA
ATOM     13  C   UNL     1      -5.706   2.338  25.305  0.00  0.00    +0.106 A 
ATOM     14  C   UNL     1      -5.588   3.038  25.726  0.00  0.00    +0.057 A 
ATOM     15  S   UNL     1      -4.905   3.398  25.435  0.00  0.00    -0.069 S 
ENDBRANCH  10  11
ENDBRANCH   9  10
TORSDOF 5
ENDMDL
MODEL 6
REMARK VINA RESULT:      -7.0      2.129      2.793
REMARK  Name = 
REMARK  5 active torsions:
REMARK  status: ('A' for Active; 'I' for Inactive)
REMARK    1  A    between atoms: O_2  and  C_3
REMARK    2  A    between atoms: C_3  and  C_4
REMARK    3  A    between atoms: C_4  and  N_5
REMARK    4  A    between atoms: N_9  and  C_10
REMARK    5  A    between atoms: C_10  and  C_11
REMARK                            x       y       z     vdW  Elec       q    Type
REMARK                         _______ _______ _______ _____ _____    ______ ____
ROOT
ATOM      5  N   UNL     1      -0.943   1.684  24.519  0.00  0.00    -0.260 N 
ATOM      6  C   UNL     1      -1.689   1.496  24.819  0.00  0.00    +0.116 C 
ATOM      7  C   UNL     1      -1.735   0.677  24.891  0.00  0.00    +0.113 C 
ATOM      8  C   UNL     1      -2.338   0.179  25.156  0.00  0.00    +0.094 C 
ATOM      9  N   UNL     1      -2.224  -0.638  25.166  0.00  0.00    -0.264 NA
ATOM     16  C   UNL     1      -1.508  -0.958  24.912  0.00  0.00    +0.094 C 
ATOM     17  C   UNL     1      -0.905  -0.461  24.647  0.00  0.00    +0.112 C 
ATOM     18  N   UNL     1      -1.019   0.357  24.637  0.00  0.00    -0.261 N 
ATOM     19  C   UNL     1      -0.529   0.979  24.407  0.00  0.00    +0.307 C 
ATOM     20  O   UNL     1       0.240   0.909  24.116  0.00  0.00    -0.252 OA
ENDROOT
BRANCH   5   4
ATOM      4  C   UNL     1      -0.660   2.442  24.361  0.00  0.00    +0.127 C 
BRANCH   4   3
ATOM      3  C   UNL     1      -1.003   3.096  24.729  0.00  0.00    +0.164 C 
BRANCH   3   2
ATOM      1  C   UNL     1      -0.978   4.491  25.035  0.00  0.00    +0.174 C 
ATOM      2  O   UNL     1      -0.703   3.852  24.592  0.00  0.00    -0.349 OA
ENDBRANCH   3   2
ENDBRANCH   4   3
ENDBRANCH   5   4
BRANCH   9  10
ATOM     10  C   UNL     1      -2.827  -1.136  25.431  0.00  0.00    +0.126 C 
BRANCH  10  11
ATOM     11  C   UNL     1      -3.306  -1.529  24.888  0.00  0.00    +0.104 A 
ATOM     12  N   UNL     1      -3.893  -1.187  24.421  0.00  0.00    -0.240 NA
ATOM     13  C   UNL     1      -4.232  -1.781  23.960  0.00  0.00    +0.106 A 
ATOM     14  C   UNL     1      -3.854  -2.492  24.143  0.00  0.00    +0.057 A 
ATOM     15  S   UNL     1      -3.282  -2.336  24.716  0.00  0.00    -0.069 S 
ENDBRANCH  10  11
ENDBRANCH   9  10
TORSDOF 5
ENDMDL
MODEL 7
REMARK VINA RESULT:      -6.9      2.230      4.227
REMARK  Name = 
REMARK  5 active torsions:
REMARK  status: ('A' for Active; 'I' for Inactive)
REMARK    1  A    between atoms: O_2  and  C_3
REMARK    2  A    between atoms: C_3  and  C_4
REMARK    3  A    between atoms: C_4  and  N_5
REMARK    4  A    between atoms: N_9  and  C_10
REMARK    5  A    between atoms: C_10  and  C_11
REMARK                            x       y       z     vdW  Elec       q    Type
REMARK                         _______ _______ _______ _____ _____    ______ ____
ROOT
ATOM      5  N   UNL     1      -3.952   0.107  24.373  0.00  0.00    -0.260 N 
ATOM      6  C   UNL     1      -3.155   0.237  24.200  0.00  0.00    +0.116 C 
ATOM      7  C   UNL     1      -2.981   1.023  24.376  0.00  0.00    +0.113 C 
ATOM      8  C   UNL     1      -2.284   1.461  24.317  0.00  0.00    +0.094 C 
ATOM      9  N   UNL     1      -2.276   2.255  24.540  0.00  0.00    -0.264 NA
ATOM     16  C   UNL     1      -2.964   2.611  24.822  0.00  0.00    +0.094 C 
ATOM     17  C   UNL     1      -3.661   2.174  24.882  0.00  0.00    +0.112 C 
ATOM     18  N   UNL     1      -3.669   1.379  24.659  0.00  0.00    -0.261 N 
ATOM     19  C   UNL     1      -4.269   0.814  24.656  0.00  0.00    +0.307 C 
ATOM     20  O   UNL     1      -5.050   0.933  24.896  0.00  0.00    -0.252 OA
ENDROOT
BRANCH   5   4
ATOM      4  C   UNL     1      -4.359  -0.604  24.279  0.00  0.00    +0.127 C 
BRANCH   4   3
ATOM      3  C   UNL     1      -3.944  -1.299  24.119  0.00  0.00    +0.164 C 
BRANCH   3   2
ATOM      1  C   UNL     1      -4.005  -2.726  24.066  0.00  0.00    +0.174 C 
ATOM      2  O   UNL     1      -4.354  -1.990  23.930  0.00  0.00    -0.349 OA
ENDBRANCH   3   2
ENDBRANCH   4   3
ENDBRANCH   5   4
BRANCH   9  10
ATOM     10  C   UNL     1      -1.579   2.693  24.480  0.00  0.00    +0.126 C 
BRANCH  10  11
ATOM     11  C   UNL     1      -0.997   2.624  25.060  0.00  0.00    +0.104 A 
ATOM     12  N   UNL     1      -1.050   2.898  25.836  0.00  0.00    -0.240 NA
ATOM     13  C   UNL     1      -0.345   2.712  26.222  0.00  0.00    +0.106 A 
ATOM     14  C   UNL     1       0.145   2.323  25.683  0.00  0.00    +0.057 A 
ATOM     15  S   UNL     1      -0.258   2.269  24.965  0.00  0.00    -0.069 S 
ENDBRANCH  10  11
ENDBRANCH   9  10
TORSDOF 5
ENDMDL
MODEL 8
REMARK VINA RESULT:      -6.7      2.069      2.767
REMARK  Name = 
REMARK  5 active torsions:
REMARK  status: ('A' for Active; 'I' for Inactive)
REMARK    1  A    between atoms: O_2  and  C_3
REMARK    2  A    between atoms: C_3  and  C_4
REMARK    3  A    between atoms: C_4  and  N_5
REMARK    4  A    between atoms: N_9  and  C_10
REMARK    5  A    between atoms: C_10  and  C_11
REMARK                            x       y       z     vdW  Elec       q    Type
REMARK                         _______ _______ _______ _____ _____    ______ ____
ROOT
ATOM      5  N   UNL     1      -3.375   2.872  24.450  0.00  0.00    -0.260 N 
ATOM      6  C   UNL     1      -2.882   2.553  25.030  0.00  0.00    +0.116 C 
ATOM      7  C   UNL     1      -2.313   2.090  24.653  0.00  0.00    +0.113 C 
ATOM      8  C   UNL     1      -1.684   1.642  24.944  0.00  0.00    +0.094 C 
ATOM      9  N   UNL     1      -1.197   1.227  24.423  0.00  0.00    -0.264 NA
ATOM     16  C   UNL     1      -1.339   1.260  23.611  0.00  0.00    +0.094 C 
ATOM     17  C   UNL     1      -1.968   1.707  23.319  0.00  0.00    +0.112 C 
ATOM     18  N   UNL     1      -2.455   2.122  23.841  0.00  0.00    -0.261 N 
ATOM     19  C   UNL     1      -3.111   2.606  23.716  0.00  0.00    +0.307 C 
ATOM     20  O   UNL     1      -3.445   2.791  22.984  0.00  0.00    -0.252 OA
ENDROOT
BRANCH   5   4
ATOM      4  C   UNL     1      -4.019   3.370  24.583  0.00  0.00    +0.127 C 
BRANCH   4   3
ATOM      3  C   UNL     1      -4.496   3.260  25.247  0.00  0.00    +0.164 C 
BRANCH   3   2
ATOM      1  C   UNL     1      -5.820   3.468  25.743  0.00  0.00    +0.174 C 
ATOM      2  O   UNL     1      -5.139   3.760  25.381  0.00  0.00    -0.349 OA
ENDBRANCH   3   2
ENDBRANCH   4   3
ENDBRANCH   5   4
BRANCH   9  10
ATOM     10  C   UNL     1      -0.568   0.779  24.714  0.00  0.00    +0.126 C 
BRANCH  10  11
ATOM     11  C   UNL     1      -0.670  -0.024  24.871  0.00  0.00    +0.104 A 
ATOM     12  N   UNL     1      -1.037  -0.346  25.536  0.00  0.00    -0.240 NA
ATOM     13  C   UNL     1      -1.017  -1.168  25.466  0.00  0.00    +0.106 A 
ATOM     14  C   UNL     1      -0.638  -1.354  24.756  0.00  0.00    +0.057 A 
ATOM     15  S   UNL     1      -0.424  -0.647  24.389  0.00  0.00    -0.069 S 
ENDBRANCH  10  11
ENDBRANCH   9  10
TORSDOF 5
ENDMDL
