MODEL 1
REMARK VINA RESULT:     -10.0      0.000      0.000
REMARK  Name = 
REMARK  5 active torsions:
REMARK  status: ('A' for Active; 'I' for Inactive)
REMARK    1  A    between atoms: O_2  and  C_3
REMARK    2  A    between atoms: C_6  and  C_9
REMARK    3  A    between atoms: C_12  and  C_14
REMARK    4  A    between atoms: N_18  and  C_19
REMARK    5  A    between atoms: C_19  and  C_20
REMARK                            x       y       z     vdW  Elec       q    Type
REMARK                         _______ _______ _______ _____ _____    ______ ____
ROOT
ATOM      9  C   UNL     1      -3.894   0.490  24.509  0.00  0.00    +0.205 A 
ATOM     10  N   UNL     1      -3.684   0.876  23.811  0.00  0.00    -0.056 NA
ATOM     11  O   UNL     1      -3.864   1.676  23.898  0.00  0.00    -0.336 OA
ATOM     12  C   UNL     1      -4.186   1.785  24.650  0.00  0.00    +0.251 A 
ATOM     13  N   UNL     1      -4.204   1.052  25.028  0.00  0.00    -0.190 NA
ENDROOT
BRANCH   9   6
ATOM      3  C   UNL     1      -3.640  -1.929  24.968  0.00  0.00    +0.225 A 
ATOM      4  N   UNL     1      -3.329  -1.375  25.493  0.00  0.00    -0.210 NA
ATOM      5  C   UNL     1      -3.414  -0.569  25.340  0.00  0.00    +0.105 A 
ATOM      6  C   UNL     1      -3.810  -0.317  24.662  0.00  0.00    +0.058 A 
ATOM      7  C   UNL     1      -4.121  -0.872  24.136  0.00  0.00    +0.010 A 
ATOM      8  C   UNL     1      -4.036  -1.678  24.289  0.00  0.00    +0.058 A 
BRANCH   3   2
ATOM      1  C   UNL     1      -3.260  -3.238  24.536  0.00  0.00    +0.254 C 
ATOM      2  O   UNL     1      -3.556  -2.735  25.121  0.00  0.00    -0.456 OA
ENDBRANCH   3   2
ENDBRANCH   9   6
BRANCH  12  14
ATOM     14  C   UNL     1      -4.443   2.501  24.968  0.00  0.00    +0.138 C 
ATOM     15  C   UNL     1      -5.228   2.727  25.079  0.00  0.00    +0.027 C 
ATOM     16  C   UNL     1      -5.231   3.483  25.411  0.00  0.00    +0.019 C 
ATOM     17  C   UNL     1      -4.447   3.723  25.505  0.00  0.00    +0.073 C 
ATOM     18  N   UNL     1      -3.961   3.116  25.232  0.00  0.00    -0.266 NA
BRANCH  18  19
ATOM     19  C   UNL     1      -3.136   3.124  25.223  0.00  0.00    +0.072 C 
BRANCH  19  20
ATOM     20  C   UNL     1      -2.726   3.777  25.515  0.00  0.00    +0.016 C 
ATOM     21  C   UNL     1      -2.587   3.848  26.325  0.00  0.00    +0.001 C 
ATOM     22  C   UNL     1      -2.455   4.360  24.998  0.00  0.00    +0.001 C 
ENDBRANCH  19  20
ENDBRANCH  18  19
ENDBRANCH  12  14
TORSDOF 5
ENDMDL
MODEL 2
REMARK VINA RESULT:      -9.4      1.424      4.508
REMARK  Name = 
REMARK  5 active torsions:
REMARK  status: ('A' for Active; 'I' for Inactive)
REMARK    1  A    between atoms: O_2  and  C_3
REMARK    2  A    between atoms: C_6  and  C_9
REMARK    3  A    between atoms: C_12  and  C_14
REMARK    4  A    between atoms: N_18  and  C_19
REMARK    5  A    between atoms: C_19  and  C_20
REMARK                            x       y       z     vdW  Elec       q    Type
REMARK                         _______ _______ _______ _____ _____    ______ ____
ROOT
ATOM      9  C   UNL     1      -4.166   0.861  24.517  0.00  0.00    +0.205 A 
ATOM     10  N   UNL     1      -3.832   0.846  23.763  0.00  0.00    -0.056 NA
ATOM     11  O   UNL     1      -3.509   0.096  23.643  0.00  0.00    -0.336 OA
ATOM     12  C   UNL     1      -3.644  -0.352  24.322  0.00  0.00    +0.251 A 
ATOM     13  N   UNL     1      -4.050   0.121  24.863  0.00  0.00    -0.190 NA
ENDROOT
BRANCH   9   6
ATOM      3  C   UNL     1      -5.315   2.790  25.560  0.00  0.00    +0.225 A 
ATOM      4  N   UNL     1      -4.505   2.822  25.414  0.00  0.00    -0.210 NA
ATOM      5  C   UNL     1      -4.121   2.180  25.067  0.00  0.00    +0.105 A 
ATOM      6  C   UNL     1      -4.549   1.504  24.865  0.00  0.00    +0.058 A 
ATOM      7  C   UNL     1      -5.361   1.471  25.010  0.00  0.00    +0.010 A 
ATOM      8  C   UNL     1      -5.744   2.114  25.358  0.00  0.00    +0.058 A 
BRANCH   3   2
ATOM      1  C   UNL     1      -5.671   4.174  25.546  0.00  0.00    +0.254 C 
ATOM      2  O   UNL     1      -5.698   3.432  25.907  0.00  0.00    -0.456 OA
ENDBRANCH   3   2
ENDBRANCH   9   6
BRANCH  12  14
ATOM     14  C   UNL     1      -3.413  -1.135  24.441  0.00  0.00    +0.138 C 
ATOM     15  C   UNL     1      -3.900  -1.798  24.379  0.00  0.00    +0.027 C 
ATOM     16  C   UNL     1      -3.443  -2.465  24.542  0.00  0.00    +0.019 C 
ATOM     17  C   UNL     1      -2.674  -2.215  24.705  0.00  0.00    +0.073 C 
ATOM     18  N   UNL     1      -2.656  -1.393  24.642  0.00  0.00    -0.266 NA
BRANCH  18  19
ATOM     19  C   UNL     1      -1.996  -0.913  24.761  0.00  0.00    +0.072 C 
BRANCH  19  20
ATOM     20  C   UNL     1      -1.278  -1.247  24.991  0.00  0.00    +0.016 C 
ATOM     21  C   UNL     1      -1.075  -1.278  25.790  0.00  0.00    +0.001 C 
ATOM     22  C   UNL     1      -0.763  -1.551  24.422  0.00  0.00    +0.001 C 
ENDBRANCH  19  20
ENDBRANCH  18  19
ENDBRANCH  12  14
TORSDOF 5
ENDMDL
MODEL 3
REMARK VINA RESULT:      -9.1      1.813      2.496
REMARK  Name = 
REMARK  5 active torsions:
REMARK  status: ('A' for Active; 'I' for Inactive)
REMARK    1  A    between atoms: O_2  and  C_3
REMARK    2  A    between atoms: C_6  and  C_9
REMARK    3  A    between atoms: C_12  and  C_14
REMARK    4  A    between atoms: N_18  and  C_19
REMARK    5  A    between atoms: C_19  and  C_20
REMARK                            x       y       z     vdW  Elec       q    Type
REMARK                         _______ _______ _______ _____ _____    ______ ____
ROOT
ATOM      9  C   UNL     1      -1.950   0.360  24.688  0.00  0.00    +0.205 A 
ATOM     10  N   UNL     1      -1.757   0.746  23.985  0.00  0.00    -0.056 NA
ATOM     11  O   UNL     1      -1.335   1.428  24.176  0.00  0.00    -0.336 OA
ATOM     12  C   UNL     1      -1.266   1.465  24.997  0.00  0.00    +0.251 A 
ATOM     13  N   UNL     1      -1.647   0.805  25.314  0.00  0.00    -0.190 NA
ENDROOT
BRANCH   9   6
ATOM      3  C   UNL     1      -3.216  -1.757  24.888  0.00  0.00    +0.225 A 
ATOM      4  N   UNL     1      -2.398  -1.774  24.794  0.00  0.00    -0.210 NA
ATOM      5  C   UNL     1      -1.976  -1.068  24.728  0.00  0.00    +0.105 A 
ATOM      6  C   UNL     1      -2.372  -0.345  24.755  0.00  0.00    +0.058 A 
ATOM      7  C   UNL     1      -3.193  -0.329  24.848  0.00  0.00    +0.010 A 
ATOM      8  C   UNL     1      -3.615  -1.035  24.915  0.00  0.00    +0.058 A 
BRANCH   3   2
ATOM      1  C   UNL     1      -3.879  -2.865  24.275  0.00  0.00    +0.254 C 
ATOM      2  O   UNL     1      -3.638  -2.463  24.954  0.00  0.00    -0.456 OA
ENDBRANCH   3   2
ENDBRANCH   9   6
BRANCH  12  14
ATOM     14  C   UNL     1      -0.885   2.057  25.426  0.00  0.00    +0.138 C 
ATOM     15  C   UNL     1      -0.152   1.990  25.798  0.00  0.00    +0.027 C 
ATOM     16  C   UNL     1       0.016   2.712  26.160  0.00  0.00    +0.019 C 
ATOM     17  C   UNL     1      -0.613   3.225  26.012  0.00  0.00    +0.073 C 
ATOM     18  N   UNL     1      -1.170   2.820  25.559  0.00  0.00    -0.266 NA
BRANCH  18  19
ATOM     19  C   UNL     1      -1.886   3.125  25.285  0.00  0.00    +0.072 C 
BRANCH  19  20
ATOM     20  C   UNL     1      -2.121   3.885  25.503  0.00  0.00    +0.016 C 
ATOM     21  C   UNL     1      -1.796   4.542  25.125  0.00  0.00    +0.001 C 
ATOM     22  C   UNL     1      -2.681   3.988  26.101  0.00  0.00    +0.001 C 
ENDBRANCH  19  20
ENDBRANCH  18  19
ENDBRANCH  12  14
TORSDOF 5
ENDMDL
MODEL 4
REMARK VINA RESULT:      -9.1      2.065      5.240
REMARK  Name = 
REMARK  5 active torsions:
REMARK  status: ('A' for Active; 'I' for Inactive)
REMARK    1  A    between atoms: O_2  and  C_3
REMARK    2  A    between atoms: C_6  and  C_9
REMARK    3  A    between atoms: C_12  and  C_14
REMARK    4  A    between atoms: N_18  and  C_19
REMARK    5  A    between atoms: C_19  and  C_20
REMARK                            x       y       z     vdW  Elec       q    Type
REMARK                         _______ _______ _______ _____ _____    ______ ____
ROOT
ATOM      9  C   UNL     1      -1.513   1.755  24.471  0.00  0.00    +0.205 A 
ATOM     10  N   UNL     1      -1.538   1.498  23.688  0.00  0.00    -0.056 NA
ATOM     11  O   UNL     1      -1.469   0.676  23.687  0.00  0.00    -0.336 OA
ATOM     12  C   UNL     1      -1.401   0.425  24.470  0.00  0.00    +0.251 A 
ATOM     13  N   UNL     1      -1.428   1.092  24.955  0.00  0.00    -0.190 NA
ENDROOT
BRANCH   9   6
ATOM      3  C   UNL     1      -1.665   4.104  25.237  0.00  0.00    +0.225 A 
ATOM      4  N   UNL     1      -2.352   3.680  25.068  0.00  0.00    -0.210 NA
ATOM      5  C   UNL     1      -2.301   2.897  24.813  0.00  0.00    +0.105 A 
ATOM      6  C   UNL     1      -1.564   2.538  24.726  0.00  0.00    +0.058 A 
ATOM      7  C   UNL     1      -0.876   2.963  24.896  0.00  0.00    +0.010 A 
ATOM      8  C   UNL     1      -0.927   3.746  25.151  0.00  0.00    +0.058 A 
BRANCH   3   2
ATOM      1  C   UNL     1      -1.358   5.488  25.054  0.00  0.00    +0.254 C 
ATOM      2  O   UNL     1      -1.716   4.887  25.493  0.00  0.00    -0.456 OA
ENDBRANCH   3   2
ENDBRANCH   9   6
BRANCH  12  14
ATOM     14  C   UNL     1      -1.320  -0.356  24.724  0.00  0.00    +0.138 C 
ATOM     15  C   UNL     1      -0.611  -0.734  24.909  0.00  0.00    +0.027 C 
ATOM     16  C   UNL     1      -0.787  -1.508  25.136  0.00  0.00    +0.019 C 
ATOM     17  C   UNL     1      -1.605  -1.607  25.092  0.00  0.00    +0.073 C 
ATOM     18  N   UNL     1      -1.934  -0.895  24.837  0.00  0.00    -0.266 NA
BRANCH  18  19
ATOM     19  C   UNL     1      -2.737  -0.749  24.717  0.00  0.00    +0.072 C 
BRANCH  19  20
ATOM     20  C   UNL     1      -3.296  -1.315  24.931  0.00  0.00    +0.016 C 
ATOM     21  C   UNL     1      -3.546  -1.877  24.381  0.00  0.00    +0.001 C 
ATOM     22  C   UNL     1      -3.607  -1.320  25.696  0.00  0.00    +0.001 C 
ENDBRANCH  19  20
ENDBRANCH  18  19
ENDBRANCH  12  14
TORSDOF 5
ENDMDL
