MODEL 1
REMARK VINA RESULT:     -13.7      0.000      0.000
REMARK  Name = 
REMARK  6 active torsions:
REMARK  status: ('A' for Active; 'I' for Inactive)
REMARK    1  A    between atoms: C_5  and  C_6
REMARK    2  A    between atoms: C_6  and  C_7
REMARK    3  A    between atoms: C_10  and  C_12
REMARK    4  A    between atoms: C_20  and  C_21
REMARK    5  A    between atoms: C_21  and  N_22
REMARK    6  A    between atoms: C_23  and  C_25
REMARK                            x       y       z     vdW  Elec       q    Type
REMARK                         _______ _______ _______ _____ _____    ______ ____
ROOT
ATOM      1  O   UNL     1      -1.081   3.898  25.767  0.00  0.00    -0.220 OA
ATOM      2  C   UNL     1      -0.961   3.121  25.519  0.00  0.00    +0.181 C 
ATOM      3  C   UNL     1      -0.267   2.725  25.724  0.00  0.00    +0.038 C 
ATOM      4  C   UNL     1      -0.148   1.946  25.475  0.00  0.00    +0.033 C 
ATOM      5  C   UNL     1      -0.722   1.566  25.023  0.00  0.00    +0.121 C 
ATOM     19  O   UNL     1      -1.417   1.962  24.818  0.00  0.00    -0.354 OA
ATOM     20  C   UNL     1      -1.536   2.739  25.066  0.00  0.00    +0.167 C 
ENDROOT
BRANCH   5   6
ATOM      6  C   UNL     1      -0.603   0.787  24.774  0.00  0.00    +0.079 C 
BRANCH   6   7
ATOM      7  C   UNL     1      -1.106   0.188  25.036  0.00  0.00    +0.103 A 
ATOM      8  N   UNL     1      -1.162  -0.094  25.810  0.00  0.00    -0.081 NA
ATOM      9  O   UNL     1      -1.732  -0.690  25.822  0.00  0.00    -0.354 OA
ATOM     10  C   UNL     1      -2.029  -0.775  25.057  0.00  0.00    +0.177 A 
ATOM     11  C   UNL     1      -1.642  -0.233  24.571  0.00  0.00    +0.058 A 
BRANCH  10  12
ATOM     12  C   UNL     1      -2.611  -1.310  24.819  0.00  0.00    +0.037 A 
ATOM     13  C   UNL     1      -3.381  -1.049  24.684  0.00  0.00    +0.005 A 
ATOM     14  C   UNL     1      -3.963  -1.584  24.446  0.00  0.00    +0.030 A 
ATOM     15  C   UNL     1      -3.774  -2.380  24.344  0.00  0.00    +0.140 A 
ATOM     16  F   UNL     1      -4.354  -2.915  24.106  0.00  0.00    -0.204 F 
ATOM     17  C   UNL     1      -3.002  -2.642  24.479  0.00  0.00    +0.030 A 
ATOM     18  C   UNL     1      -2.421  -2.107  24.717  0.00  0.00    +0.005 A 
ENDBRANCH  10  12
ENDBRANCH   6   7
ENDBRANCH   5   6
BRANCH  20  21
ATOM     21  C   UNL     1      -2.230   3.135  24.862  0.00  0.00    +0.147 C 
BRANCH  21  22
ATOM     22  N   UNL     1      -2.964   2.807  25.051  0.00  0.00    -0.199 NA
ATOM     23  C   UNL     1      -3.654   3.135  24.741  0.00  0.00    +0.265 C 
ATOM     24  O   UNL     1      -3.611   3.791  24.243  0.00  0.00    -0.268 OA
BRANCH  23  25
ATOM     25  C   UNL     1      -4.387   2.808  24.930  0.00  0.00    +0.055 A 
ATOM     26  C   UNL     1      -4.703   2.207  24.461  0.00  0.00    +0.007 A 
ATOM     27  C   UNL     1      -5.437   1.879  24.651  0.00  0.00    +0.030 A 
ATOM     28  C   UNL     1      -5.853   2.152  25.309  0.00  0.00    +0.140 A 
ATOM     29  F   UNL     1      -6.586   1.823  25.497  0.00  0.00    -0.204 F 
ATOM     30  C   UNL     1      -5.536   2.752  25.778  0.00  0.00    +0.030 A 
ATOM     31  C   UNL     1      -4.804   3.080  25.589  0.00  0.00    +0.007 A 
ENDBRANCH  23  25
ENDBRANCH  21  22
ENDBRANCH  20  21
TORSDOF 6
ENDMDL
MODEL 2
REMARK VINA RESULT:     -13.6      1.923      3.513
REMARK  Name = 
REMARK  6 active torsions:
REMARK  status: ('A' for Active; 'I' for Inactive)
REMARK    1  A    between atoms: C_5  and  C_6
REMARK    2  A    between atoms: C_6  and  C_7
REMARK    3  A    between atoms: C_10  and  C_12
REMARK    4  A    between atoms: C_20  and  C_21
REMARK    5  A    between atoms: C_21  and  N_22
REMARK    6  A    between atoms: C_23  and  C_25
REMARK                            x       y       z     vdW  Elec       q    Type
REMARK                         _______ _______ _______ _____ _____    ______ ____
ROOT
ATOM      1  O   UNL     1      -5.661   3.238  26.388  0.00  0.00    -0.220 OA
ATOM      2  C   UNL     1      -5.355   2.787  25.770  0.00  0.00    +0.181 C 
ATOM      3  C   UNL     1      -5.821   2.208  25.411  0.00  0.00    +0.038 C 
ATOM      4  C   UNL     1      -5.514   1.756  24.793  0.00  0.00    +0.033 C 
ATOM      5  C   UNL     1      -4.741   1.882  24.534  0.00  0.00    +0.121 C 
ATOM     19  O   UNL     1      -4.275   2.461  24.893  0.00  0.00    -0.354 OA
ATOM     20  C   UNL     1      -4.582   2.912  25.510  0.00  0.00    +0.167 C 
ENDROOT
BRANCH   5   6
ATOM      6  C   UNL     1      -4.435   1.430  23.915  0.00  0.00    +0.079 C 
BRANCH   6   7
ATOM      7  C   UNL     1      -3.961   0.774  24.079  0.00  0.00    +0.103 A 
ATOM      8  N   UNL     1      -3.138   0.774  24.140  0.00  0.00    -0.081 NA
ATOM      9  O   UNL     1      -2.896   0.004  24.309  0.00  0.00    -0.354 OA
ATOM     10  C   UNL     1      -3.569  -0.471  24.352  0.00  0.00    +0.177 A 
ATOM     11  C   UNL     1      -4.227   0.005  24.210  0.00  0.00    +0.058 A 
BRANCH  10  12
ATOM     12  C   UNL     1      -3.581  -1.281  24.509  0.00  0.00    +0.037 A 
ATOM     13  C   UNL     1      -3.268  -1.569  25.216  0.00  0.00    +0.005 A 
ATOM     14  C   UNL     1      -3.280  -2.379  25.374  0.00  0.00    +0.030 A 
ATOM     15  C   UNL     1      -3.605  -2.901  24.824  0.00  0.00    +0.140 A 
ATOM     16  F   UNL     1      -3.618  -3.711  24.981  0.00  0.00    -0.204 F 
ATOM     17  C   UNL     1      -3.918  -2.614  24.117  0.00  0.00    +0.030 A 
ATOM     18  C   UNL     1      -3.906  -1.804  23.959  0.00  0.00    +0.005 A 
ENDBRANCH  10  12
ENDBRANCH   6   7
ENDBRANCH   5   6
BRANCH  20  21
ATOM     21  C   UNL     1      -4.116   3.491  25.869  0.00  0.00    +0.147 C 
BRANCH  21  22
ATOM     22  N   UNL     1      -3.415   3.738  25.509  0.00  0.00    -0.199 NA
ATOM     23  C   UNL     1      -2.849   4.150  25.947  0.00  0.00    +0.265 C 
ATOM     24  O   UNL     1      -2.984   4.314  26.744  0.00  0.00    -0.268 OA
BRANCH  23  25
ATOM     25  C   UNL     1      -2.150   4.397  25.587  0.00  0.00    +0.055 A 
ATOM     26  C   UNL     1      -1.526   3.866  25.489  0.00  0.00    +0.007 A 
ATOM     27  C   UNL     1      -0.826   4.114  25.129  0.00  0.00    +0.030 A 
ATOM     28  C   UNL     1      -0.751   4.892  24.867  0.00  0.00    +0.140 A 
ATOM     29  F   UNL     1      -0.051   5.139  24.507  0.00  0.00    -0.204 F 
ATOM     30  C   UNL     1      -1.374   5.423  24.964  0.00  0.00    +0.030 A 
ATOM     31  C   UNL     1      -2.074   5.176  25.324  0.00  0.00    +0.007 A 
ENDBRANCH  23  25
ENDBRANCH  21  22
ENDBRANCH  20  21
TORSDOF 6
ENDMDL
MODEL 3
REMARK VINA RESULT:     -13.4      1.776      4.157
REMARK  Name = 
REMARK  6 active torsions:
REMARK  status: ('A' for Active; 'I' for Inactive)
REMARK    1  A    between atoms: C_5  and  C_6
REMARK    2  A    between atoms: C_6  and  C_7
REMARK    3  A    between atoms: C_10  and  C_12
REMARK    4  A    between atoms: C_20  and  C_21
REMARK    5  A    between atoms: C_21  and  N_22
REMARK    6  A    between atoms: C_23  and  C_25
REMARK                            x       y       z     vdW  Elec       q    Type
REMARK                         _______ _______ _______ _____ _____    ______ ____
ROOT
ATOM      1  O   UNL     1      -2.367  -1.839  25.147  0.00  0.00    -0.220 OA
ATOM      2  C   UNL     1      -1.886  -1.191  24.976  0.00  0.00    +0.181 C 
ATOM      3  C   UNL     1      -1.068  -1.248  25.068  0.00  0.00    +0.038 C 
ATOM      4  C   UNL     1      -0.587  -0.600  24.897  0.00  0.00    +0.033 C 
ATOM      5  C   UNL     1      -0.924   0.105  24.633  0.00  0.00    +0.121 C 
ATOM     19  O   UNL     1      -1.742   0.162  24.540  0.00  0.00    -0.354 OA
ATOM     20  C   UNL     1      -2.222  -0.485  24.711  0.00  0.00    +0.167 C 
ENDROOT
BRANCH   5   6
ATOM      6  C   UNL     1      -0.443   0.753  24.461  0.00  0.00    +0.079 C 
BRANCH   6   7
ATOM      7  C   UNL     1      -0.505   1.443  24.909  0.00  0.00    +0.103 A 
ATOM      8  N   UNL     1      -0.277   1.532  25.698  0.00  0.00    -0.081 NA
ATOM      9  O   UNL     1      -0.437   2.309  25.923  0.00  0.00    -0.354 OA
ATOM     10  C   UNL     1      -0.763   2.700  25.274  0.00  0.00    +0.177 A 
ATOM     11  C   UNL     1      -0.805   2.166  24.648  0.00  0.00    +0.058 A 
BRANCH  10  12
ATOM     12  C   UNL     1      -1.005   3.489  25.256  0.00  0.00    +0.037 A 
ATOM     13  C   UNL     1      -1.722   3.709  25.598  0.00  0.00    +0.005 A 
ATOM     14  C   UNL     1      -1.964   4.498  25.580  0.00  0.00    +0.030 A 
ATOM     15  C   UNL     1      -1.488   5.067  25.218  0.00  0.00    +0.140 A 
ATOM     16  F   UNL     1      -1.730   5.855  25.199  0.00  0.00    -0.204 F 
ATOM     17  C   UNL     1      -0.771   4.847  24.875  0.00  0.00    +0.030 A 
ATOM     18  C   UNL     1      -0.529   4.058  24.894  0.00  0.00    +0.005 A 
ENDBRANCH  10  12
ENDBRANCH   6   7
ENDBRANCH   5   6
BRANCH  20  21
ATOM     21  C   UNL     1      -3.040  -0.428  24.618  0.00  0.00    +0.147 C 
BRANCH  21  22
ATOM     22  N   UNL     1      -3.426   0.283  24.785  0.00  0.00    -0.199 NA
ATOM     23  C   UNL     1      -4.223   0.374  24.593  0.00  0.00    +0.265 C 
ATOM     24  O   UNL     1      -4.635  -0.245  24.236  0.00  0.00    -0.268 OA
BRANCH  23  25
ATOM     25  C   UNL     1      -4.608   1.084  24.760  0.00  0.00    +0.055 A 
ATOM     26  C   UNL     1      -5.132   1.130  25.395  0.00  0.00    +0.007 A 
ATOM     27  C   UNL     1      -5.517   1.841  25.562  0.00  0.00    +0.030 A 
ATOM     28  C   UNL     1      -5.379   2.505  25.093  0.00  0.00    +0.140 A 
ATOM     29  F   UNL     1      -5.764   3.214  25.260  0.00  0.00    -0.204 F 
ATOM     30  C   UNL     1      -4.855   2.459  24.457  0.00  0.00    +0.030 A 
ATOM     31  C   UNL     1      -4.470   1.749  24.291  0.00  0.00    +0.007 A 
ENDBRANCH  23  25
ENDBRANCH  21  22
ENDBRANCH  20  21
TORSDOF 6
ENDMDL
MODEL 4
REMARK VINA RESULT:     -13.3      1.631      3.604
REMARK  Name = 
REMARK  6 active torsions:
REMARK  status: ('A' for Active; 'I' for Inactive)
REMARK    1  A    between atoms: C_5  and  C_6
REMARK    2  A    between atoms: C_6  and  C_7
REMARK    3  A    between atoms: C_10  and  C_12
REMARK    4  A    between atoms: C_20  and  C_21
REMARK    5  A    between atoms: C_21  and  N_22
REMARK    6  A    between atoms: C_23  and  C_25
REMARK                            x       y       z     vdW  Elec       q    Type
REMARK                         _______ _______ _______ _____ _____    ______ ____
ROOT
ATOM      1  O   UNL     1      -2.186   4.260  25.779  0.00  0.00    -0.220 OA
ATOM      2  C   UNL     1      -2.739   3.751  25.439  0.00  0.00    +0.181 C 
ATOM      3  C   UNL     1      -3.539   3.951  25.441  0.00  0.00    +0.038 C 
ATOM      4  C   UNL     1      -4.093   3.441  25.101  0.00  0.00    +0.033 C 
ATOM      5  C   UNL     1      -3.845   2.733  24.758  0.00  0.00    +0.121 C 
ATOM     19  O   UNL     1      -3.044   2.534  24.756  0.00  0.00    -0.354 OA
ATOM     20  C   UNL     1      -2.492   3.043  25.096  0.00  0.00    +0.167 C 
ENDROOT
BRANCH   5   6
ATOM      6  C   UNL     1      -4.398   2.224  24.418  0.00  0.00    +0.079 C 
BRANCH   6   7
ATOM      7  C   UNL     1      -4.489   1.458  24.710  0.00  0.00    +0.103 A 
ATOM      8  N   UNL     1      -4.955   1.237  25.354  0.00  0.00    -0.081 NA
ATOM      9  O   UNL     1      -4.883   0.421  25.452  0.00  0.00    -0.354 OA
ATOM     10  C   UNL     1      -4.373   0.138  24.869  0.00  0.00    +0.177 A 
ATOM     11  C   UNL     1      -4.129   0.779  24.411  0.00  0.00    +0.058 A 
BRANCH  10  12
ATOM     12  C   UNL     1      -4.146  -0.648  24.763  0.00  0.00    +0.037 A 
ATOM     13  C   UNL     1      -4.304  -1.031  24.050  0.00  0.00    +0.005 A 
ATOM     14  C   UNL     1      -4.078  -1.817  23.944  0.00  0.00    +0.030 A 
ATOM     15  C   UNL     1      -3.693  -2.221  24.551  0.00  0.00    +0.140 A 
ATOM     16  F   UNL     1      -3.466  -3.007  24.446  0.00  0.00    -0.204 F 
ATOM     17  C   UNL     1      -3.534  -1.838  25.266  0.00  0.00    +0.030 A 
ATOM     18  C   UNL     1      -3.761  -1.052  25.372  0.00  0.00    +0.005 A 
ENDBRANCH  10  12
ENDBRANCH   6   7
ENDBRANCH   5   6
BRANCH  20  21
ATOM     21  C   UNL     1      -1.691   2.843  25.093  0.00  0.00    +0.147 C 
BRANCH  21  22
ATOM     22  N   UNL     1      -1.446   2.122  24.774  0.00  0.00    -0.199 NA
ATOM     23  C   UNL     1      -0.674   1.858  24.897  0.00  0.00    +0.265 C 
ATOM     24  O   UNL     1      -0.147   2.315  25.338  0.00  0.00    -0.268 OA
BRANCH  23  25
ATOM     25  C   UNL     1      -0.430   1.137  24.579  0.00  0.00    +0.055 A 
ATOM     26  C   UNL     1      -0.055   1.117  23.844  0.00  0.00    +0.007 A 
ATOM     27  C   UNL     1       0.190   0.396  23.526  0.00  0.00    +0.030 A 
ATOM     28  C   UNL     1       0.059  -0.304  23.942  0.00  0.00    +0.140 A 
ATOM     29  F   UNL     1       0.303  -1.024  23.623  0.00  0.00    -0.204 F 
ATOM     30  C   UNL     1      -0.316  -0.284  24.677  0.00  0.00    +0.030 A 
ATOM     31  C   UNL     1      -0.560   0.437  24.995  0.00  0.00    +0.007 A 
ENDBRANCH  23  25
ENDBRANCH  21  22
ENDBRANCH  20  21
TORSDOF 6
ENDMDL
MODEL 5
REMARK VINA RESULT:     -13.3      0.788      3.956
REMARK  Name = 
REMARK  6 active torsions:
REMARK  status: ('A' for Active; 'I' for Inactive)
REMARK    1  A    between atoms: C_5  and  C_6
REMARK    2  A    between atoms: C_6  and  C_7
REMARK    3  A    between atoms: C_10  and  C_12
REMARK    4  A    between atoms: C_20  and  C_21
REMARK    5  A    between atoms: C_21  and  N_22
REMARK    6  A    between atoms: C_23  and  C_25
REMARK                            x       y       z     vdW  Elec       q    Type
REMARK                         _______ _______ _______ _____ _____    ______ ____
ROOT
ATOM      1  O   UNL     1       0.553   1.600  24.480  0.00  0.00    -0.220 OA
ATOM      2  C   UNL     1      -0.039   2.088  24.783  0.00  0.00    +0.181 C 
ATOM      3  C   UNL     1       0.002   2.904  24.672  0.00  0.00    +0.038 C 
ATOM      4  C   UNL     1      -0.591   3.392  24.975  0.00  0.00    +0.033 C 
ATOM      5  C   UNL     1      -1.223   3.063  25.390  0.00  0.00    +0.121 C 
ATOM     19  O   UNL     1      -1.264   2.247  25.501  0.00  0.00    -0.354 OA
ATOM     20  C   UNL     1      -0.672   1.760  25.198  0.00  0.00    +0.167 C 
ENDROOT
BRANCH   5   6
ATOM      6  C   UNL     1      -1.816   3.551  25.693  0.00  0.00    +0.079 C 
BRANCH   6   7
ATOM      7  C   UNL     1      -2.571   3.541  25.359  0.00  0.00    +0.103 A 
ATOM      8  N   UNL     1      -2.844   4.040  24.762  0.00  0.00    -0.081 NA
ATOM      9  O   UNL     1      -3.626   3.837  24.598  0.00  0.00    -0.354 OA
ATOM     10  C   UNL     1      -3.836   3.212  25.094  0.00  0.00    +0.177 A 
ATOM     11  C   UNL     1      -3.184   3.029  25.564  0.00  0.00    +0.058 A 
BRANCH  10  12
ATOM     12  C   UNL     1      -4.571   2.836  25.115  0.00  0.00    +0.037 A 
ATOM     13  C   UNL     1      -5.154   3.100  25.634  0.00  0.00    +0.005 A 
ATOM     14  C   UNL     1      -5.889   2.724  25.655  0.00  0.00    +0.030 A 
ATOM     15  C   UNL     1      -6.039   2.084  25.157  0.00  0.00    +0.140 A 
ATOM     16  F   UNL     1      -6.773   1.708  25.178  0.00  0.00    -0.204 F 
ATOM     17  C   UNL     1      -5.455   1.820  24.638  0.00  0.00    +0.030 A 
ATOM     18  C   UNL     1      -4.720   2.196  24.616  0.00  0.00    +0.005 A 
ENDBRANCH  10  12
ENDBRANCH   6   7
ENDBRANCH   5   6
BRANCH  20  21
ATOM     21  C   UNL     1      -0.713   0.943  25.310  0.00  0.00    +0.147 C 
BRANCH  21  22
ATOM     22  N   UNL     1      -1.418   0.541  25.161  0.00  0.00    -0.199 NA
ATOM     23  C   UNL     1      -1.507  -0.241  25.408  0.00  0.00    +0.265 C 
ATOM     24  O   UNL     1      -0.891  -0.621  25.804  0.00  0.00    -0.268 OA
BRANCH  23  25
ATOM     25  C   UNL     1      -2.212  -0.643  25.259  0.00  0.00    +0.055 A 
ATOM     26  C   UNL     1      -2.744  -0.784  25.874  0.00  0.00    +0.007 A 
ATOM     27  C   UNL     1      -3.449  -1.186  25.726  0.00  0.00    +0.030 A 
ATOM     28  C   UNL     1      -3.622  -1.447  24.962  0.00  0.00    +0.140 A 
ATOM     29  F   UNL     1      -4.327  -1.848  24.814  0.00  0.00    -0.204 F 
ATOM     30  C   UNL     1      -3.090  -1.306  24.348  0.00  0.00    +0.030 A 
ATOM     31  C   UNL     1      -2.386  -0.904  24.496  0.00  0.00    +0.007 A 
ENDBRANCH  23  25
ENDBRANCH  21  22
ENDBRANCH  20  21
TORSDOF 6
ENDMDL
MODEL 6
REMARK VINA RESULT:     -13.3      1.817      4.049
REMARK  Name = 
REMARK  6 active torsions:
REMARK  status: ('A' for Active; 'I' for Inactive)
REMARK    1  A    between atoms: C_5  and  C_6
REMARK    2  A    between atoms: C_6  and  C_7
REMARK    3  A    between atoms: C_10  and  C_12
REMARK    4  A    between atoms: C_20  and  C_21
REMARK    5  A    between atoms: C_21  and  N_22
REMARK    6  A    between atoms: C_23  and  C_25
REMARK                            x       y       z     vdW  Elec       q    Type
REMARK                         _______ _______ _______ _____ _____    ______ ____
ROOT
ATOM      1  O   UNL     1       0.135  -0.717  24.184  0.00  0.00    -0.220 OA
ATOM      2  C   UNL     1      -0.628  -0.757  24.493  0.00  0.00    +0.181 C 
ATOM      3  C   UNL     1      -1.082  -1.437  24.384  0.00  0.00    +0.038 C 
ATOM      4  C   UNL     1      -1.847  -1.478  24.693  0.00  0.00    +0.033 C 
ATOM      5  C   UNL     1      -2.156  -0.837  25.112  0.00  0.00    +0.121 C 
ATOM     19  O   UNL     1      -1.702  -0.157  25.221  0.00  0.00    -0.354 OA
ATOM     20  C   UNL     1      -0.939  -0.117  24.912  0.00  0.00    +0.167 C 
ENDROOT
BRANCH   5   6
ATOM      6  C   UNL     1      -2.920  -0.878  25.421  0.00  0.00    +0.079 C 
BRANCH   6   7
ATOM      7  C   UNL     1      -3.517  -0.399  25.112  0.00  0.00    +0.103 A 
ATOM      8  N   UNL     1      -3.981  -0.569  24.451  0.00  0.00    -0.081 NA
ATOM      9  O   UNL     1      -4.504   0.058  24.339  0.00  0.00    -0.354 OA
ATOM     10  C   UNL     1      -4.364   0.616  24.931  0.00  0.00    +0.177 A 
ATOM     11  C   UNL     1      -3.754   0.333  25.408  0.00  0.00    +0.058 A 
BRANCH  10  12
ATOM     12  C   UNL     1      -4.764   1.331  25.029  0.00  0.00    +0.037 A 
ATOM     13  C   UNL     1      -5.410   1.376  25.539  0.00  0.00    +0.005 A 
ATOM     14  C   UNL     1      -5.810   2.091  25.636  0.00  0.00    +0.030 A 
ATOM     15  C   UNL     1      -5.564   2.761  25.223  0.00  0.00    +0.140 A 
ATOM     16  F   UNL     1      -5.964   3.476  25.320  0.00  0.00    -0.204 F 
ATOM     17  C   UNL     1      -4.918   2.716  24.712  0.00  0.00    +0.030 A 
ATOM     18  C   UNL     1      -4.517   2.001  24.614  0.00  0.00    +0.005 A 
ENDBRANCH  10  12
ENDBRANCH   6   7
ENDBRANCH   5   6
BRANCH  20  21
ATOM     21  C   UNL     1      -0.485   0.563  25.021  0.00  0.00    +0.147 C 
BRANCH  21  22
ATOM     22  N   UNL     1      -0.850   1.303  25.052  0.00  0.00    -0.199 NA
ATOM     23  C   UNL     1      -0.410   1.972  25.250  0.00  0.00    +0.265 C 
ATOM     24  O   UNL     1       0.395   1.901  25.417  0.00  0.00    -0.268 OA
BRANCH  23  25
ATOM     25  C   UNL     1      -0.775   2.710  25.281  0.00  0.00    +0.055 A 
ATOM     26  C   UNL     1      -1.198   2.933  25.953  0.00  0.00    +0.007 A 
ATOM     27  C   UNL     1      -1.564   3.673  25.984  0.00  0.00    +0.030 A 
ATOM     28  C   UNL     1      -1.506   4.189  25.343  0.00  0.00    +0.140 A 
ATOM     29  F   UNL     1      -1.871   4.927  25.375  0.00  0.00    -0.204 F 
ATOM     30  C   UNL     1      -1.082   3.966  24.671  0.00  0.00    +0.030 A 
ATOM     31  C   UNL     1      -0.717   3.227  24.640  0.00  0.00    +0.007 A 
ENDBRANCH  23  25
ENDBRANCH  21  22
ENDBRANCH  20  21
TORSDOF 6
ENDMDL
MODEL 7
REMARK VINA RESULT:     -13.2      2.011      3.973
REMARK  Name = 
REMARK  6 active torsions:
REMARK  status: ('A' for Active; 'I' for Inactive)
REMARK    1  A    between atoms: C_5  and  C_6
REMARK    2  A    between atoms: C_6  and  C_7
REMARK    3  A    between atoms: C_10  and  C_12
REMARK    4  A    between atoms: C_20  and  C_21
REMARK    5  A    between atoms: C_21  and  N_22
REMARK    6  A    between atoms: C_23  and  C_25
REMARK                            x       y       z     vdW  Elec       q    Type
REMARK                         _______ _______ _______ _____ _____    ______ ____
ROOT
ATOM      1  O   UNL     1      -4.593  -1.636  23.967  0.00  0.00    -0.220 OA
ATOM      2  C   UNL     1      -3.883  -1.493  24.361  0.00  0.00    +0.181 C 
ATOM      3  C   UNL     1      -3.310  -2.085  24.406  0.00  0.00    +0.038 C 
ATOM      4  C   UNL     1      -2.598  -1.942  24.800  0.00  0.00    +0.033 C 
ATOM      5  C   UNL     1      -2.461  -1.207  25.148  0.00  0.00    +0.121 C 
ATOM     19  O   UNL     1      -3.034  -0.615  25.103  0.00  0.00    -0.354 OA
ATOM     20  C   UNL     1      -3.744  -0.758  24.709  0.00  0.00    +0.167 C 
ENDROOT
BRANCH   5   6
ATOM      6  C   UNL     1      -1.749  -1.065  25.542  0.00  0.00    +0.079 C 
BRANCH   6   7
ATOM      7  C   UNL     1      -1.259  -0.448  25.297  0.00  0.00    +0.103 A 
ATOM      8  N   UNL     1      -0.605  -0.518  24.797  0.00  0.00    -0.081 NA
ATOM      9  O   UNL     1      -0.278   0.232  24.700  0.00  0.00    -0.354 OA
ATOM     10  C   UNL     1      -0.728   0.766  25.140  0.00  0.00    +0.177 A 
ATOM     11  C   UNL     1      -1.334   0.345  25.508  0.00  0.00    +0.058 A 
BRANCH  10  12
ATOM     12  C   UNL     1      -0.596   1.578  25.200  0.00  0.00    +0.037 A 
ATOM     13  C   UNL     1      -0.601   1.943  25.939  0.00  0.00    +0.005 A 
ATOM     14  C   UNL     1      -0.468   2.756  25.999  0.00  0.00    +0.030 A 
ATOM     15  C   UNL     1      -0.330   3.203  25.320  0.00  0.00    +0.140 A 
ATOM     16  F   UNL     1      -0.198   4.014  25.379  0.00  0.00    -0.204 F 
ATOM     17  C   UNL     1      -0.325   2.837  24.579  0.00  0.00    +0.030 A 
ATOM     18  C   UNL     1      -0.458   2.025  24.519  0.00  0.00    +0.005 A 
ENDBRANCH  10  12
ENDBRANCH   6   7
ENDBRANCH   5   6
BRANCH  20  21
ATOM     21  C   UNL     1      -4.317  -0.166  24.664  0.00  0.00    +0.147 C 
BRANCH  21  22
ATOM     22  N   UNL     1      -4.089   0.623  24.575  0.00  0.00    -0.199 NA
ATOM     23  C   UNL     1      -4.637   1.227  24.702  0.00  0.00    +0.265 C 
ATOM     24  O   UNL     1      -5.412   1.042  24.917  0.00  0.00    -0.268 OA
BRANCH  23  25
ATOM     25  C   UNL     1      -4.409   2.014  24.613  0.00  0.00    +0.055 A 
ATOM     26  C   UNL     1      -4.166   2.292  23.875  0.00  0.00    +0.007 A 
ATOM     27  C   UNL     1      -3.938   3.081  23.786  0.00  0.00    +0.030 A 
ATOM     28  C   UNL     1      -3.954   3.590  24.435  0.00  0.00    +0.140 A 
ATOM     29  F   UNL     1      -3.726   4.378  24.345  0.00  0.00    -0.204 F 
ATOM     30  C   UNL     1      -4.197   3.312  25.172  0.00  0.00    +0.030 A 
ATOM     31  C   UNL     1      -4.424   2.524  25.261  0.00  0.00    +0.007 A 
ENDBRANCH  23  25
ENDBRANCH  21  22
ENDBRANCH  20  21
TORSDOF 6
ENDMDL
