MODEL 1
REMARK VINA RESULT:      -6.9      0.000      0.000
REMARK  Name = 
REMARK  6 active torsions:
REMARK  status: ('A' for Active; 'I' for Inactive)
REMARK    1  A    between atoms: C_4  and  C_8
REMARK    2  A    between atoms: N_13  and  C_14
REMARK    3  A    between atoms: C_18  and  N_22
REMARK    4  A    between atoms: N_25  and  C_26
REMARK    5  A    between atoms: C_29  and  O_30
REMARK    6  A    between atoms: O_30  and  C_31
REMARK                            x       y       z     vdW  Elec       q    Type
REMARK                         _______ _______ _______ _____ _____    ______ ____
ROOT
ATOM     14  C   UNL     1      16.728  -5.542  25.811  0.00  0.00    +0.154 C 
ATOM     15  C   UNL     1      17.403  -5.557  26.283  0.00  0.00    +0.166 C 
ATOM     16  O   UNL     1      17.253  -6.050  26.927  0.00  0.00    -0.350 OA
ATOM     17  C   UNL     1      16.485  -6.339  26.853  0.00  0.00    +0.166 C 
ATOM     18  C   UNL     1      15.916  -6.823  27.203  0.00  0.00    +0.156 C 
ATOM     19  C   UNL     1      15.240  -6.808  26.731  0.00  0.00    +0.166 C 
ATOM     20  O   UNL     1      15.391  -6.315  26.087  0.00  0.00    -0.350 OA
ATOM     21  C   UNL     1      16.160  -6.025  26.162  0.00  0.00    +0.166 C 
ENDROOT
BRANCH  14  13
ATOM      8  C   UNL     1      16.824  -3.066  24.384  0.00  0.00    +0.086 A 
ATOM      9  C   UNL     1      17.056  -2.678  25.074  0.00  0.00    +0.040 A 
ATOM     10  C   UNL     1      17.148  -3.103  25.776  0.00  0.00    +0.103 A 
ATOM     11  N   UNL     1      17.008  -3.916  25.788  0.00  0.00    -0.211 NA
ATOM     12  C   UNL     1      16.776  -4.304  25.097  0.00  0.00    +0.237 A 
ATOM     13  N   UNL     1      16.636  -5.117  25.109  0.00  0.00    -0.200 NA
ATOM     39  N   UNL     1      16.684  -3.879  24.396  0.00  0.00    -0.212 NA
BRANCH   8   4
ATOM      1  F   UNL     1      15.137  -1.753  22.488  0.00  0.00    -0.204 F 
ATOM      2  C   UNL     1      15.889  -1.985  22.735  0.00  0.00    +0.140 A 
ATOM      3  C   UNL     1      15.981  -2.410  23.436  0.00  0.00    +0.031 A 
ATOM      4  C   UNL     1      16.733  -2.642  23.683  0.00  0.00    +0.020 A 
ATOM      5  C   UNL     1      17.394  -2.450  23.229  0.00  0.00    +0.002 A 
ATOM      6  C   UNL     1      17.303  -2.025  22.527  0.00  0.00    +0.002 A 
ATOM      7  C   UNL     1      16.550  -1.792  22.280  0.00  0.00    +0.030 A 
ENDBRANCH   8   4
ENDBRANCH  14  13
BRANCH  18  22
ATOM     22  N   UNL     1      16.007  -7.248  27.905  0.00  0.00    -0.184 NA
ATOM     23  C   UNL     1      15.506  -7.103  28.544  0.00  0.00    +0.344 C 
ATOM     24  O   UNL     1      14.912  -6.534  28.481  0.00  0.00    -0.249 OA
ATOM     25  N   UNL     1      15.597  -7.527  29.245  0.00  0.00    -0.161 NA
BRANCH  25  26
ATOM     26  C   UNL     1      15.095  -7.382  29.884  0.00  0.00    +0.075 A 
ATOM     27  C   UNL     1      14.346  -7.726  29.907  0.00  0.00    +0.020 A 
ATOM     28  C   UNL     1      13.845  -7.582  30.545  0.00  0.00    +0.039 A 
ATOM     29  C   UNL     1      14.092  -7.092  31.162  0.00  0.00    +0.145 A 
ATOM     37  C   UNL     1      14.842  -6.748  31.139  0.00  0.00    +0.039 A 
ATOM     38  C   UNL     1      15.343  -6.893  30.500  0.00  0.00    +0.020 A 
BRANCH  29  30
ATOM     30  O   UNL     1      13.592  -6.947  31.800  0.00  0.00    -0.453 OA
BRANCH  30  31
ATOM     31  C   UNL     1      13.159  -6.245  31.833  0.00  0.00    +0.145 A 
ATOM     32  C   UNL     1      13.439  -5.609  32.278  0.00  0.00    +0.037 A 
ATOM     33  C   UNL     1      13.006  -4.907  32.312  0.00  0.00    +0.003 A 
ATOM     34  C   UNL     1      12.294  -4.842  31.900  0.00  0.00    +0.000 A 
ATOM     35  C   UNL     1      12.014  -5.478  31.456  0.00  0.00    +0.003 A 
ATOM     36  C   UNL     1      12.447  -6.179  31.422  0.00  0.00    +0.037 A 
ENDBRANCH  30  31
ENDBRANCH  29  30
ENDBRANCH  25  26
ENDBRANCH  18  22
TORSDOF 6
ENDMDL
MODEL 2
REMARK VINA RESULT:      -6.8     25.905     27.639
REMARK  Name = 
REMARK  6 active torsions:
REMARK  status: ('A' for Active; 'I' for Inactive)
REMARK    1  A    between atoms: C_4  and  C_8
REMARK    2  A    between atoms: N_13  and  C_14
REMARK    3  A    between atoms: C_18  and  N_22
REMARK    4  A    between atoms: N_25  and  C_26
REMARK    5  A    between atoms: C_29  and  O_30
REMARK    6  A    between atoms: O_30  and  C_31
REMARK                            x       y       z     vdW  Elec       q    Type
REMARK                         _______ _______ _______ _____ _____    ______ ____
ROOT
ATOM     14  C   UNL     1      -4.569 -10.350  12.188  0.00  0.00    +0.154 C 
ATOM     15  C   UNL     1      -4.231 -10.775  11.567  0.00  0.00    +0.166 C 
ATOM     16  O   UNL     1      -4.679 -10.636  10.889  0.00  0.00    -0.350 OA
ATOM     17  C   UNL     1      -5.294 -10.125  11.090  0.00  0.00    +0.166 C 
ATOM     18  C   UNL     1      -5.952  -9.723  10.797  0.00  0.00    +0.156 C 
ATOM     19  C   UNL     1      -6.290  -9.298  11.418  0.00  0.00    +0.166 C 
ATOM     20  O   UNL     1      -5.842  -9.437  12.096  0.00  0.00    -0.350 OA
ATOM     21  C   UNL     1      -5.226  -9.949  11.893  0.00  0.00    +0.166 C 
ENDROOT
BRANCH  14  13
ATOM      8  C   UNL     1      -2.414 -10.476  14.062  0.00  0.00    +0.086 A 
ATOM      9  C   UNL     1      -1.880 -10.577  13.441  0.00  0.00    +0.040 A 
ATOM     10  C   UNL     1      -2.152 -10.597  12.662  0.00  0.00    +0.103 A 
ATOM     11  N   UNL     1      -2.958 -10.515  12.504  0.00  0.00    -0.211 NA
ATOM     12  C   UNL     1      -3.491 -10.413  13.125  0.00  0.00    +0.237 A 
ATOM     13  N   UNL     1      -4.297 -10.331  12.967  0.00  0.00    -0.200 NA
ATOM     39  N   UNL     1      -3.220 -10.394  13.903  0.00  0.00    -0.212 NA
BRANCH   8   4
ATOM      1  F   UNL     1      -0.250 -10.388  15.926  0.00  0.00    -0.204 F 
ATOM      2  C   UNL     1      -1.060 -10.413  15.772  0.00  0.00    +0.140 A 
ATOM      3  C   UNL     1      -1.332 -10.432  14.994  0.00  0.00    +0.031 A 
ATOM      4  C   UNL     1      -2.142 -10.456  14.840  0.00  0.00    +0.020 A 
ATOM      5  C   UNL     1      -2.681 -10.461  15.465  0.00  0.00    +0.002 A 
ATOM      6  C   UNL     1      -2.409 -10.442  16.244  0.00  0.00    +0.002 A 
ATOM      7  C   UNL     1      -1.599 -10.418  16.398  0.00  0.00    +0.030 A 
ENDBRANCH   8   4
ENDBRANCH  14  13
BRANCH  18  22
ATOM     22  N   UNL     1      -6.224  -9.742  10.018  0.00  0.00    -0.184 NA
ATOM     23  C   UNL     1      -6.873  -9.284   9.796  0.00  0.00    +0.344 C 
ATOM     24  O   UNL     1      -7.250  -8.806  10.352  0.00  0.00    -0.249 OA
ATOM     25  N   UNL     1      -7.145  -9.303   9.017  0.00  0.00    -0.161 NA
BRANCH  25  26
ATOM     26  C   UNL     1      -7.794  -8.845   8.795  0.00  0.00    +0.075 A 
ATOM     27  C   UNL     1      -7.680  -8.142   8.379  0.00  0.00    +0.020 A 
ATOM     28  C   UNL     1      -8.329  -7.684   8.157  0.00  0.00    +0.039 A 
ATOM     29  C   UNL     1      -9.093  -7.930   8.351  0.00  0.00    +0.145 A 
ATOM     37  C   UNL     1      -9.207  -8.633   8.767  0.00  0.00    +0.039 A 
ATOM     38  C   UNL     1      -8.557  -9.091   8.989  0.00  0.00    +0.020 A 
BRANCH  29  30
ATOM     30  O   UNL     1      -9.742  -7.473   8.129  0.00  0.00    -0.453 OA
BRANCH  30  31
ATOM     31  C   UNL     1      -9.915  -6.777   8.538  0.00  0.00    +0.145 A 
ATOM     32  C   UNL     1     -10.546  -6.756   9.068  0.00  0.00    +0.037 A 
ATOM     33  C   UNL     1     -10.720  -6.060   9.477  0.00  0.00    +0.003 A 
ATOM     34  C   UNL     1     -10.261  -5.385   9.354  0.00  0.00    +0.000 A 
ATOM     35  C   UNL     1      -9.629  -5.406   8.824  0.00  0.00    +0.003 A 
ATOM     36  C   UNL     1      -9.457  -6.101   8.416  0.00  0.00    +0.037 A 
ENDBRANCH  30  31
ENDBRANCH  29  30
ENDBRANCH  25  26
ENDBRANCH  18  22
TORSDOF 6
ENDMDL
MODEL 3
REMARK VINA RESULT:      -6.8     16.624     18.003
REMARK  Name = 
REMARK  6 active torsions:
REMARK  status: ('A' for Active; 'I' for Inactive)
REMARK    1  A    between atoms: C_4  and  C_8
REMARK    2  A    between atoms: N_13  and  C_14
REMARK    3  A    between atoms: C_18  and  N_22
REMARK    4  A    between atoms: N_25  and  C_26
REMARK    5  A    between atoms: C_29  and  O_30
REMARK    6  A    between atoms: O_30  and  C_31
REMARK                            x       y       z     vdW  Elec       q    Type
REMARK                         _______ _______ _______ _____ _____    ______ ____
ROOT
ATOM     14  C   UNL     1       0.477  -0.703  23.851  0.00  0.00    +0.154 C 
ATOM     15  C   UNL     1       0.114  -0.631  23.114  0.00  0.00    +0.166 C 
ATOM     16  O   UNL     1      -0.694  -0.763  23.215  0.00  0.00    -0.350 OA
ATOM     17  C   UNL     1      -0.830  -0.915  24.014  0.00  0.00    +0.166 C 
ATOM     18  C   UNL     1      -1.413  -1.091  24.571  0.00  0.00    +0.156 C 
ATOM     19  C   UNL     1      -1.049  -1.162  25.308  0.00  0.00    +0.166 C 
ATOM     20  O   UNL     1      -0.241  -1.031  25.206  0.00  0.00    -0.350 OA
ATOM     21  C   UNL     1      -0.106  -0.878  24.407  0.00  0.00    +0.166 C 
ENDROOT
BRANCH  14  13
ATOM      8  C   UNL     1       3.107  -0.020  22.961  0.00  0.00    +0.086 A 
ATOM      9  C   UNL     1       2.810   0.143  22.209  0.00  0.00    +0.040 A 
ATOM     10  C   UNL     1       2.003   0.055  22.055  0.00  0.00    +0.103 A 
ATOM     11  N   UNL     1       1.494  -0.198  22.654  0.00  0.00    -0.211 NA
ATOM     12  C   UNL     1       1.792  -0.362  23.406  0.00  0.00    +0.237 A 
ATOM     13  N   UNL     1       1.283  -0.614  24.004  0.00  0.00    -0.200 NA
ATOM     39  N   UNL     1       2.598  -0.273  23.559  0.00  0.00    -0.212 NA
BRANCH   8   4
ATOM      1  F   UNL     1       5.567  -1.075  23.962  0.00  0.00    -0.204 F 
ATOM      2  C   UNL     1       5.142  -0.459  23.615  0.00  0.00    +0.140 A 
ATOM      3  C   UNL     1       4.337  -0.548  23.462  0.00  0.00    +0.031 A 
ATOM      4  C   UNL     1       3.912   0.068  23.114  0.00  0.00    +0.020 A 
ATOM      5  C   UNL     1       4.293   0.773  22.920  0.00  0.00    +0.002 A 
ATOM      6  C   UNL     1       5.099   0.863  23.073  0.00  0.00    +0.002 A 
ATOM      7  C   UNL     1       5.524   0.246  23.420  0.00  0.00    +0.030 A 
ENDBRANCH   8   4
ENDBRANCH  14  13
BRANCH  18  22
ATOM     22  N   UNL     1      -2.219  -1.180  24.417  0.00  0.00    -0.184 NA
ATOM     23  C   UNL     1      -2.737  -0.552  24.553  0.00  0.00    +0.344 C 
ATOM     24  O   UNL     1      -2.448   0.165  24.843  0.00  0.00    -0.249 OA
ATOM     25  N   UNL     1      -3.542  -0.640  24.400  0.00  0.00    -0.161 NA
BRANCH  25  26
ATOM     26  C   UNL     1      -4.060  -0.012  24.536  0.00  0.00    +0.075 A 
ATOM     27  C   UNL     1      -4.462   0.043  25.254  0.00  0.00    +0.020 A 
ATOM     28  C   UNL     1      -4.979   0.670  25.390  0.00  0.00    +0.039 A 
ATOM     29  C   UNL     1      -5.095   1.244  24.807  0.00  0.00    +0.145 A 
ATOM     37  C   UNL     1      -4.692   1.189  24.089  0.00  0.00    +0.039 A 
ATOM     38  C   UNL     1      -4.175   0.560  23.954  0.00  0.00    +0.020 A 
BRANCH  29  30
ATOM     30  O   UNL     1      -5.612   1.871  24.942  0.00  0.00    -0.453 OA
BRANCH  30  31
ATOM     31  C   UNL     1      -5.317   2.604  25.182  0.00  0.00    +0.145 A 
ATOM     32  C   UNL     1      -4.916   3.083  24.644  0.00  0.00    +0.037 A 
ATOM     33  C   UNL     1      -4.621   3.816  24.884  0.00  0.00    +0.003 A 
ATOM     34  C   UNL     1      -4.728   4.068  25.662  0.00  0.00    +0.000 A 
ATOM     35  C   UNL     1      -5.130   3.589  26.200  0.00  0.00    +0.003 A 
ATOM     36  C   UNL     1      -5.424   2.857  25.960  0.00  0.00    +0.037 A 
ENDBRANCH  30  31
ENDBRANCH  29  30
ENDBRANCH  25  26
ENDBRANCH  18  22
TORSDOF 6
ENDMDL
MODEL 4
REMARK VINA RESULT:      -6.4     16.623     18.625
REMARK  Name = 
REMARK  6 active torsions:
REMARK  status: ('A' for Active; 'I' for Inactive)
REMARK    1  A    between atoms: C_4  and  C_8
REMARK    2  A    between atoms: N_13  and  C_14
REMARK    3  A    between atoms: C_18  and  N_22
REMARK    4  A    between atoms: N_25  and  C_26
REMARK    5  A    between atoms: C_29  and  O_30
REMARK    6  A    between atoms: O_30  and  C_31
REMARK                            x       y       z     vdW  Elec       q    Type
REMARK                         _______ _______ _______ _____ _____    ______ ____
ROOT
ATOM     14  C   UNL     1      -2.014   0.627  24.663  0.00  0.00    +0.154 C 
ATOM     15  C   UNL     1      -2.020  -0.197  24.702  0.00  0.00    +0.166 C 
ATOM     16  O   UNL     1      -1.391  -0.477  24.248  0.00  0.00    -0.350 OA
ATOM     17  C   UNL     1      -0.997   0.173  23.928  0.00  0.00    +0.166 C 
ATOM     18  C   UNL     1      -0.365   0.402  23.450  0.00  0.00    +0.156 C 
ATOM     19  C   UNL     1      -0.359   1.226  23.412  0.00  0.00    +0.166 C 
ATOM     20  O   UNL     1      -0.988   1.506  23.866  0.00  0.00    -0.350 OA
ATOM     21  C   UNL     1      -1.382   0.855  24.185  0.00  0.00    +0.166 C 
ENDROOT
BRANCH  14  13
ATOM      8  C   UNL     1      -4.690   1.552  25.057  0.00  0.00    +0.086 A 
ATOM      9  C   UNL     1      -4.962   1.001  24.507  0.00  0.00    +0.040 A 
ATOM     10  C   UNL     1      -4.428   0.494  24.133  0.00  0.00    +0.103 A 
ATOM     11  N   UNL     1      -3.623   0.538  24.309  0.00  0.00    -0.211 NA
ATOM     12  C   UNL     1      -3.352   1.090  24.861  0.00  0.00    +0.237 A 
ATOM     13  N   UNL     1      -2.548   1.134  25.037  0.00  0.00    -0.200 NA
ATOM     39  N   UNL     1      -3.885   1.596  25.234  0.00  0.00    -0.212 NA
BRANCH   8   4
ATOM      1  F   UNL     1      -5.681   4.190  25.531  0.00  0.00    -0.204 F 
ATOM      2  C   UNL     1      -5.719   3.377  25.668  0.00  0.00    +0.140 A 
ATOM      3  C   UNL     1      -5.186   2.871  25.294  0.00  0.00    +0.031 A 
ATOM      4  C   UNL     1      -5.223   2.058  25.431  0.00  0.00    +0.020 A 
ATOM      5  C   UNL     1      -5.794   1.751  25.941  0.00  0.00    +0.002 A 
ATOM      6  C   UNL     1      -6.328   2.258  26.315  0.00  0.00    +0.002 A 
ATOM      7  C   UNL     1      -6.291   3.071  26.179  0.00  0.00    +0.030 A 
ENDBRANCH   8   4
ENDBRANCH  14  13
BRANCH  18  22
ATOM     22  N   UNL     1       0.168  -0.105  23.076  0.00  0.00    -0.184 NA
ATOM     23  C   UNL     1       0.972   0.082  23.059  0.00  0.00    +0.344 C 
ATOM     24  O   UNL     1       1.242   0.775  23.415  0.00  0.00    -0.249 OA
ATOM     25  N   UNL     1       1.505  -0.424  22.685  0.00  0.00    -0.161 NA
BRANCH  25  26
ATOM     26  C   UNL     1       2.309  -0.238  22.667  0.00  0.00    +0.075 A 
ATOM     27  C   UNL     1       2.858  -0.746  23.012  0.00  0.00    +0.020 A 
ATOM     28  C   UNL     1       3.661  -0.560  22.994  0.00  0.00    +0.039 A 
ATOM     29  C   UNL     1       3.915   0.136  22.631  0.00  0.00    +0.145 A 
ATOM     37  C   UNL     1       3.365   0.645  22.285  0.00  0.00    +0.039 A 
ATOM     38  C   UNL     1       2.562   0.458  22.304  0.00  0.00    +0.020 A 
BRANCH  29  30
ATOM     30  O   UNL     1       4.718   0.323  22.613  0.00  0.00    -0.453 OA
BRANCH  30  31
ATOM     31  C   UNL     1       5.184   0.204  23.283  0.00  0.00    +0.145 A 
ATOM     32  C   UNL     1       5.579  -0.513  23.390  0.00  0.00    +0.037 A 
ATOM     33  C   UNL     1       6.045  -0.631  24.060  0.00  0.00    +0.003 A 
ATOM     34  C   UNL     1       6.116  -0.033  24.624  0.00  0.00    +0.000 A 
ATOM     35  C   UNL     1       5.722   0.683  24.517  0.00  0.00    +0.003 A 
ATOM     36  C   UNL     1       5.256   0.802  23.847  0.00  0.00    +0.037 A 
ENDBRANCH  30  31
ENDBRANCH  29  30
ENDBRANCH  25  26
ENDBRANCH  18  22
TORSDOF 6
ENDMDL
MODEL 5
REMARK VINA RESULT:      -6.4     27.124     28.855
REMARK  Name = 
REMARK  6 active torsions:
REMARK  status: ('A' for Active; 'I' for Inactive)
REMARK    1  A    between atoms: C_4  and  C_8
REMARK    2  A    between atoms: N_13  and  C_14
REMARK    3  A    between atoms: C_18  and  N_22
REMARK    4  A    between atoms: N_25  and  C_26
REMARK    5  A    between atoms: C_29  and  O_30
REMARK    6  A    between atoms: O_30  and  C_31
REMARK                            x       y       z     vdW  Elec       q    Type
REMARK                         _______ _______ _______ _____ _____    ______ ____
ROOT
ATOM     14  C   UNL     1      -5.772 -10.356  10.571  0.00  0.00    +0.154 C 
ATOM     15  C   UNL     1      -5.923 -10.674   9.825  0.00  0.00    +0.166 C 
ATOM     16  O   UNL     1      -6.715 -10.533   9.644  0.00  0.00    -0.350 OA
ATOM     17  C   UNL     1      -7.054 -10.129  10.276  0.00  0.00    +0.166 C 
ATOM     18  C   UNL     1      -7.753  -9.791  10.557  0.00  0.00    +0.156 C 
ATOM     19  C   UNL     1      -7.602  -9.473  11.303  0.00  0.00    +0.166 C 
ATOM     20  O   UNL     1      -6.810  -9.614  11.484  0.00  0.00    -0.350 OA
ATOM     21  C   UNL     1      -6.471 -10.019  10.850  0.00  0.00    +0.166 C 
ENDROOT
BRANCH  14  13
ATOM      8  C   UNL     1      -3.021  -9.598  10.736  0.00  0.00    +0.086 A 
ATOM      9  C   UNL     1      -3.092  -9.186  10.025  0.00  0.00    +0.040 A 
ATOM     10  C   UNL     1      -3.816  -9.169   9.628  0.00  0.00    +0.103 A 
ATOM     11  N   UNL     1      -4.468  -9.565   9.942  0.00  0.00    -0.211 NA
ATOM     12  C   UNL     1      -4.397  -9.977  10.654  0.00  0.00    +0.237 A 
ATOM     13  N   UNL     1      -5.049 -10.373  10.968  0.00  0.00    -0.200 NA
ATOM     39  N   UNL     1      -3.674  -9.993  11.050  0.00  0.00    -0.212 NA
BRANCH   8   4
ATOM      1  F   UNL     1      -1.429 -10.465  12.945  0.00  0.00    -0.204 F 
ATOM      2  C   UNL     1      -1.503 -10.048  12.237  0.00  0.00    +0.140 A 
ATOM      3  C   UNL     1      -2.225 -10.031  11.841  0.00  0.00    +0.031 A 
ATOM      4  C   UNL     1      -2.299  -9.614  11.133  0.00  0.00    +0.020 A 
ATOM      5  C   UNL     1      -1.649  -9.212  10.822  0.00  0.00    +0.002 A 
ATOM      6  C   UNL     1      -0.925  -9.228  11.219  0.00  0.00    +0.002 A 
ATOM      7  C   UNL     1      -0.852  -9.646  11.926  0.00  0.00    +0.030 A 
ENDBRANCH   8   4
ENDBRANCH  14  13
BRANCH  18  22
ATOM     22  N   UNL     1      -8.476  -9.775  10.160  0.00  0.00    -0.184 NA
ATOM     23  C   UNL     1      -8.777  -9.059   9.880  0.00  0.00    +0.344 C 
ATOM     24  O   UNL     1      -8.355  -8.360   9.997  0.00  0.00    -0.249 OA
ATOM     25  N   UNL     1      -9.500  -9.043   9.483  0.00  0.00    -0.161 NA
BRANCH  25  26
ATOM     26  C   UNL     1      -9.801  -8.327   9.203  0.00  0.00    +0.075 A 
ATOM     27  C   UNL     1      -9.491  -7.989   8.518  0.00  0.00    +0.020 A 
ATOM     28  C   UNL     1      -9.792  -7.274   8.238  0.00  0.00    +0.039 A 
ATOM     29  C   UNL     1     -10.404  -6.897   8.644  0.00  0.00    +0.145 A 
ATOM     37  C   UNL     1     -10.714  -7.235   9.329  0.00  0.00    +0.039 A 
ATOM     38  C   UNL     1     -10.412  -7.951   9.609  0.00  0.00    +0.020 A 
BRANCH  29  30
ATOM     30  O   UNL     1     -10.705  -6.182   8.365  0.00  0.00    -0.453 OA
BRANCH  30  31
ATOM     31  C   UNL     1     -10.314  -5.476   8.534  0.00  0.00    +0.145 A 
ATOM     32  C   UNL     1     -10.720  -4.857   8.898  0.00  0.00    +0.037 A 
ATOM     33  C   UNL     1     -10.328  -4.150   9.067  0.00  0.00    +0.003 A 
ATOM     34  C   UNL     1      -9.532  -4.063   8.872  0.00  0.00    +0.000 A 
ATOM     35  C   UNL     1      -9.126  -4.682   8.507  0.00  0.00    +0.003 A 
ATOM     36  C   UNL     1      -9.517  -5.388   8.339  0.00  0.00    +0.037 A 
ENDBRANCH  30  31
ENDBRANCH  29  30
ENDBRANCH  25  26
ENDBRANCH  18  22
TORSDOF 6
ENDMDL
MODEL 6
REMARK VINA RESULT:      -6.1      2.293      2.811
REMARK  Name = 
REMARK  6 active torsions:
REMARK  status: ('A' for Active; 'I' for Inactive)
REMARK    1  A    between atoms: C_4  and  C_8
REMARK    2  A    between atoms: N_13  and  C_14
REMARK    3  A    between atoms: C_18  and  N_22
REMARK    4  A    between atoms: N_25  and  C_26
REMARK    5  A    between atoms: C_29  and  O_30
REMARK    6  A    between atoms: O_30  and  C_31
REMARK                            x       y       z     vdW  Elec       q    Type
REMARK                         _______ _______ _______ _____ _____    ______ ____
ROOT
ATOM     14  C   UNL     1      17.023  -5.718  25.271  0.00  0.00    +0.154 C 
ATOM     15  C   UNL     1      17.405  -6.253  24.773  0.00  0.00    +0.166 C 
ATOM     16  O   UNL     1      17.260  -7.013  25.057  0.00  0.00    -0.350 OA
ATOM     17  C   UNL     1      16.788  -6.949  25.730  0.00  0.00    +0.166 C 
ATOM     18  C   UNL     1      16.406  -7.378  26.322  0.00  0.00    +0.156 C 
ATOM     19  C   UNL     1      16.023  -6.843  26.819  0.00  0.00    +0.166 C 
ATOM     20  O   UNL     1      16.169  -6.083  26.535  0.00  0.00    -0.350 OA
ATOM     21  C   UNL     1      16.641  -6.148  25.862  0.00  0.00    +0.166 C 
ENDROOT
BRANCH  14  13
ATOM      8  C   UNL     1      17.193  -3.391  23.619  0.00  0.00    +0.086 A 
ATOM      9  C   UNL     1      17.279  -3.870  22.953  0.00  0.00    +0.040 A 
ATOM     10  C   UNL     1      17.280  -4.692  23.033  0.00  0.00    +0.103 A 
ATOM     11  N   UNL     1      17.194  -5.034  23.779  0.00  0.00    -0.211 NA
ATOM     12  C   UNL     1      17.108  -4.554  24.445  0.00  0.00    +0.237 A 
ATOM     13  N   UNL     1      17.022  -4.897  25.191  0.00  0.00    -0.200 NA
ATOM     39  N   UNL     1      17.107  -3.734  24.365  0.00  0.00    -0.212 NA
BRANCH   8   4
ATOM      1  F   UNL     1      16.810  -0.794  24.749  0.00  0.00    -0.204 F 
ATOM      2  C   UNL     1      17.001  -1.272  24.104  0.00  0.00    +0.140 A 
ATOM      3  C   UNL     1      17.001  -2.093  24.184  0.00  0.00    +0.031 A 
ATOM      4  C   UNL     1      17.192  -2.571  23.539  0.00  0.00    +0.020 A 
ATOM      5  C   UNL     1      17.383  -2.227  22.814  0.00  0.00    +0.002 A 
ATOM      6  C   UNL     1      17.382  -1.406  22.733  0.00  0.00    +0.002 A 
ATOM      7  C   UNL     1      17.191  -0.928  23.378  0.00  0.00    +0.030 A 
ENDBRANCH   8   4
ENDBRANCH  14  13
BRANCH  18  22
ATOM     22  N   UNL     1      16.407  -8.200  26.402  0.00  0.00    -0.184 NA
ATOM     23  C   UNL     1      16.051  -8.551  27.058  0.00  0.00    +0.344 C 
ATOM     24  O   UNL     1      15.695  -8.081  27.635  0.00  0.00    -0.249 OA
ATOM     25  N   UNL     1      16.052  -9.371  27.138  0.00  0.00    -0.161 NA
BRANCH  25  26
ATOM     26  C   UNL     1      15.696  -9.723  27.795  0.00  0.00    +0.075 A 
ATOM     27  C   UNL     1      16.082  -9.722  28.523  0.00  0.00    +0.020 A 
ATOM     28  C   UNL     1      15.728 -10.073  29.179  0.00  0.00    +0.039 A 
ATOM     29  C   UNL     1      14.985 -10.425  29.107  0.00  0.00    +0.145 A 
ATOM     37  C   UNL     1      14.598 -10.427  28.378  0.00  0.00    +0.039 A 
ATOM     38  C   UNL     1      14.954 -10.075  27.722  0.00  0.00    +0.020 A 
BRANCH  29  30
ATOM     30  O   UNL     1      14.629 -10.776  29.763  0.00  0.00    -0.453 OA
BRANCH  30  31
ATOM     31  C   UNL     1      14.069 -10.358  30.201  0.00  0.00    +0.145 A 
ATOM     32  C   UNL     1      14.312  -9.824  30.780  0.00  0.00    +0.037 A 
ATOM     33  C   UNL     1      13.752  -9.406  31.218  0.00  0.00    +0.003 A 
ATOM     34  C   UNL     1      12.948  -9.523  31.077  0.00  0.00    +0.000 A 
ATOM     35  C   UNL     1      12.704 -10.057  30.498  0.00  0.00    +0.003 A 
ATOM     36  C   UNL     1      13.264 -10.475  30.060  0.00  0.00    +0.037 A 
ENDBRANCH  30  31
ENDBRANCH  29  30
ENDBRANCH  25  26
ENDBRANCH  18  22
TORSDOF 6
ENDMDL
MODEL 7
REMARK VINA RESULT:      -5.7     25.267     27.032
REMARK  Name = 
REMARK  6 active torsions:
REMARK  status: ('A' for Active; 'I' for Inactive)
REMARK    1  A    between atoms: C_4  and  C_8
REMARK    2  A    between atoms: N_13  and  C_14
REMARK    3  A    between atoms: C_18  and  N_22
REMARK    4  A    between atoms: N_25  and  C_26
REMARK    5  A    between atoms: C_29  and  O_30
REMARK    6  A    between atoms: O_30  and  C_31
REMARK                            x       y       z     vdW  Elec       q    Type
REMARK                         _______ _______ _______ _____ _____    ______ ____
ROOT
ATOM     14  C   UNL     1      -8.086  -9.818  13.236  0.00  0.00    +0.154 C 
ATOM     15  C   UNL     1      -8.143 -10.596  12.971  0.00  0.00    +0.166 C 
ATOM     16  O   UNL     1      -7.558 -10.715  12.403  0.00  0.00    -0.350 OA
ATOM     17  C   UNL     1      -7.139 -10.010  12.316  0.00  0.00    +0.166 C 
ATOM     18  C   UNL     1      -6.519  -9.646  11.912  0.00  0.00    +0.156 C 
ATOM     19  C   UNL     1      -6.462  -8.868  12.177  0.00  0.00    +0.166 C 
ATOM     20  O   UNL     1      -7.047  -8.749  12.746  0.00  0.00    -0.350 OA
ATOM     21  C   UNL     1      -7.466  -9.455  12.832  0.00  0.00    +0.166 C 
ENDROOT
BRANCH  14  13
ATOM      8  C   UNL     1      -9.078  -9.706  15.915  0.00  0.00    +0.086 A 
ATOM      9  C   UNL     1      -8.614 -10.358  16.114  0.00  0.00    +0.040 A 
ATOM     10  C   UNL     1      -8.134 -10.713  15.543  0.00  0.00    +0.103 A 
ATOM     11  N   UNL     1      -8.118 -10.415  14.774  0.00  0.00    -0.211 NA
ATOM     12  C   UNL     1      -8.582  -9.761  14.576  0.00  0.00    +0.237 A 
ATOM     13  N   UNL     1      -8.566  -9.463  13.807  0.00  0.00    -0.200 NA
ATOM     39  N   UNL     1      -9.062  -9.408  15.146  0.00  0.00    -0.212 NA
BRANCH   8   4
ATOM      1  F   UNL     1      -9.633  -7.523  17.673  0.00  0.00    -0.204 F 
ATOM      2  C   UNL     1      -9.835  -8.260  17.364  0.00  0.00    +0.140 A 
ATOM      3  C   UNL     1      -9.355  -8.614  16.794  0.00  0.00    +0.031 A 
ATOM      4  C   UNL     1      -9.557  -9.352  16.485  0.00  0.00    +0.020 A 
ATOM      5  C   UNL     1     -10.239  -9.736  16.746  0.00  0.00    +0.002 A 
ATOM      6  C   UNL     1     -10.719  -9.382  17.317  0.00  0.00    +0.002 A 
ATOM      7  C   UNL     1     -10.517  -8.644  17.626  0.00  0.00    +0.030 A 
ENDBRANCH   8   4
ENDBRANCH  14  13
BRANCH  18  22
ATOM     22  N   UNL     1      -6.039 -10.001  11.342  0.00  0.00    -0.184 NA
ATOM     23  C   UNL     1      -5.217  -9.968  11.415  0.00  0.00    +0.344 C 
ATOM     24  O   UNL     1      -4.876  -9.581  12.058  0.00  0.00    -0.249 OA
ATOM     25  N   UNL     1      -4.738 -10.322  10.845  0.00  0.00    -0.161 NA
BRANCH  25  26
ATOM     26  C   UNL     1      -3.917 -10.289  10.918  0.00  0.00    +0.075 A 
ATOM     27  C   UNL     1      -3.481  -9.765  10.454  0.00  0.00    +0.020 A 
ATOM     28  C   UNL     1      -2.661  -9.732  10.527  0.00  0.00    +0.039 A 
ATOM     29  C   UNL     1      -2.274 -10.224  11.065  0.00  0.00    +0.145 A 
ATOM     37  C   UNL     1      -2.710 -10.749  11.530  0.00  0.00    +0.039 A 
ATOM     38  C   UNL     1      -3.531 -10.781  11.456  0.00  0.00    +0.020 A 
BRANCH  29  30
ATOM     30  O   UNL     1      -1.454 -10.192  11.139  0.00  0.00    -0.453 OA
BRANCH  30  31
ATOM     31  C   UNL     1      -1.098  -9.543  11.505  0.00  0.00    +0.145 A 
ATOM     32  C   UNL     1      -0.676  -8.996  11.055  0.00  0.00    +0.037 A 
ATOM     33  C   UNL     1      -0.320  -8.348  11.421  0.00  0.00    +0.003 A 
ATOM     34  C   UNL     1      -0.387  -8.247  12.237  0.00  0.00    +0.000 A 
ATOM     35  C   UNL     1      -0.809  -8.795  12.687  0.00  0.00    +0.003 A 
ATOM     36  C   UNL     1      -1.165  -9.442  12.321  0.00  0.00    +0.037 A 
ENDBRANCH  30  31
ENDBRANCH  29  30
ENDBRANCH  25  26
ENDBRANCH  18  22
TORSDOF 6
ENDMDL
MODEL 8
REMARK VINA RESULT:      -5.6     16.056     17.475
REMARK  Name = 
REMARK  6 active torsions:
REMARK  status: ('A' for Active; 'I' for Inactive)
REMARK    1  A    between atoms: C_4  and  C_8
REMARK    2  A    between atoms: N_13  and  C_14
REMARK    3  A    between atoms: C_18  and  N_22
REMARK    4  A    between atoms: N_25  and  C_26
REMARK    5  A    between atoms: C_29  and  O_30
REMARK    6  A    between atoms: O_30  and  C_31
REMARK                            x       y       z     vdW  Elec       q    Type
REMARK                         _______ _______ _______ _____ _____    ______ ____
ROOT
ATOM     14  C   UNL     1       1.108   1.705  23.859  0.00  0.00    +0.154 C 
ATOM     15  C   UNL     1       0.657   1.601  23.176  0.00  0.00    +0.166 C 
ATOM     16  O   UNL     1      -0.132   1.747  23.369  0.00  0.00    -0.350 OA
ATOM     17  C   UNL     1      -0.169   1.940  24.169  0.00  0.00    +0.166 C 
ATOM     18  C   UNL     1      -0.678   2.150  24.783  0.00  0.00    +0.156 C 
ATOM     19  C   UNL     1      -0.226   2.253  25.466  0.00  0.00    +0.166 C 
ATOM     20  O   UNL     1       0.562   2.108  25.274  0.00  0.00    -0.350 OA
ATOM     21  C   UNL     1       0.598   1.914  24.472  0.00  0.00    +0.166 C 
ENDROOT
BRANCH  14  13
ATOM      8  C   UNL     1       3.496   0.283  23.189  0.00  0.00    +0.086 A 
ATOM      9  C   UNL     1       3.053  -0.247  22.737  0.00  0.00    +0.040 A 
ATOM     10  C   UNL     1       2.235  -0.156  22.678  0.00  0.00    +0.103 A 
ATOM     11  N   UNL     1       1.859   0.464  23.072  0.00  0.00    -0.211 NA
ATOM     12  C   UNL     1       2.302   0.994  23.524  0.00  0.00    +0.237 A 
ATOM     13  N   UNL     1       1.926   1.614  23.917  0.00  0.00    -0.200 NA
ATOM     39  N   UNL     1       3.120   0.903  23.582  0.00  0.00    -0.212 NA
BRANCH   8   4
ATOM      1  F   UNL     1       5.781  -0.737  24.569  0.00  0.00    -0.204 F 
ATOM      2  C   UNL     1       5.456  -0.317  23.937  0.00  0.00    +0.140 A 
ATOM      3  C   UNL     1       4.638  -0.227  23.879  0.00  0.00    +0.031 A 
ATOM      4  C   UNL     1       4.313   0.193  23.247  0.00  0.00    +0.020 A 
ATOM      5  C   UNL     1       4.806   0.522  22.673  0.00  0.00    +0.002 A 
ATOM      6  C   UNL     1       5.624   0.431  22.731  0.00  0.00    +0.002 A 
ATOM      7  C   UNL     1       5.950   0.012  23.363  0.00  0.00    +0.030 A 
ENDBRANCH   8   4
ENDBRANCH  14  13
BRANCH  18  22
ATOM     22  N   UNL     1      -1.496   2.241  24.725  0.00  0.00    -0.184 NA
ATOM     23  C   UNL     1      -1.983   1.576  24.687  0.00  0.00    +0.344 C 
ATOM     24  O   UNL     1      -1.652   0.820  24.708  0.00  0.00    -0.249 OA
ATOM     25  N   UNL     1      -2.801   1.666  24.629  0.00  0.00    -0.161 NA
BRANCH  25  26
ATOM     26  C   UNL     1      -3.288   1.001  24.591  0.00  0.00    +0.075 A 
ATOM     27  C   UNL     1      -3.576   0.660  25.284  0.00  0.00    +0.020 A 
ATOM     28  C   UNL     1      -4.062  -0.004  25.247  0.00  0.00    +0.039 A 
ATOM     29  C   UNL     1      -4.262  -0.329  24.514  0.00  0.00    +0.145 A 
ATOM     37  C   UNL     1      -3.974   0.012  23.820  0.00  0.00    +0.039 A 
ATOM     38  C   UNL     1      -3.487   0.677  23.859  0.00  0.00    +0.020 A 
BRANCH  29  30
ATOM     30  O   UNL     1      -4.749  -0.992  24.476  0.00  0.00    -0.453 OA
BRANCH  30  31
ATOM     31  C   UNL     1      -4.417  -1.741  24.366  0.00  0.00    +0.145 A 
ATOM     32  C   UNL     1      -4.546  -2.150  23.662  0.00  0.00    +0.037 A 
ATOM     33  C   UNL     1      -4.215  -2.898  23.552  0.00  0.00    +0.003 A 
ATOM     34  C   UNL     1      -3.755  -3.236  24.148  0.00  0.00    +0.000 A 
ATOM     35  C   UNL     1      -3.626  -2.827  24.853  0.00  0.00    +0.003 A 
ATOM     36  C   UNL     1      -3.957  -2.079  24.962  0.00  0.00    +0.037 A 
ENDBRANCH  30  31
ENDBRANCH  29  30
ENDBRANCH  25  26
ENDBRANCH  18  22
TORSDOF 6
ENDMDL
MODEL 9
REMARK VINA RESULT:      -5.5     26.623     28.426
REMARK  Name = 
REMARK  6 active torsions:
REMARK  status: ('A' for Active; 'I' for Inactive)
REMARK    1  A    between atoms: C_4  and  C_8
REMARK    2  A    between atoms: N_13  and  C_14
REMARK    3  A    between atoms: C_18  and  N_22
REMARK    4  A    between atoms: N_25  and  C_26
REMARK    5  A    between atoms: C_29  and  O_30
REMARK    6  A    between atoms: O_30  and  C_31
REMARK                            x       y       z     vdW  Elec       q    Type
REMARK                         _______ _______ _______ _____ _____    ______ ____
ROOT
ATOM     14  C   UNL     1      -6.919  -9.950  14.385  0.00  0.00    +0.154 C 
ATOM     15  C   UNL     1      -6.204  -9.612  14.153  0.00  0.00    +0.166 C 
ATOM     16  O   UNL     1      -6.199  -9.569  13.329  0.00  0.00    -0.350 OA
ATOM     17  C   UNL     1      -6.910  -9.880  13.052  0.00  0.00    +0.166 C 
ATOM     18  C   UNL     1      -7.347 -10.047  12.373  0.00  0.00    +0.156 C 
ATOM     19  C   UNL     1      -8.062 -10.385  12.605  0.00  0.00    +0.166 C 
ATOM     20  O   UNL     1      -8.068 -10.427  13.429  0.00  0.00    -0.350 OA
ATOM     21  C   UNL     1      -7.356 -10.116  13.705  0.00  0.00    +0.166 C 
ENDROOT
BRANCH  14  13
ATOM      8  C   UNL     1      -6.277 -10.269  17.152  0.00  0.00    +0.086 A 
ATOM      9  C   UNL     1      -5.480 -10.136  16.982  0.00  0.00    +0.040 A 
ATOM     10  C   UNL     1      -5.243  -9.990  16.206  0.00  0.00    +0.103 A 
ATOM     11  N   UNL     1      -5.802  -9.976  15.598  0.00  0.00    -0.211 NA
ATOM     12  C   UNL     1      -6.598 -10.109  15.769  0.00  0.00    +0.237 A 
ATOM     13  N   UNL     1      -7.157 -10.096  15.162  0.00  0.00    -0.200 NA
ATOM     39  N   UNL     1      -6.835 -10.256  16.545  0.00  0.00    -0.212 NA
BRANCH   8   4
ATOM      1  F   UNL     1      -8.356 -10.680  19.069  0.00  0.00    -0.204 F 
ATOM      2  C   UNL     1      -7.553 -10.621  18.887  0.00  0.00    +0.140 A 
ATOM      3  C   UNL     1      -7.316 -10.475  18.111  0.00  0.00    +0.031 A 
ATOM      4  C   UNL     1      -6.514 -10.415  17.928  0.00  0.00    +0.020 A 
ATOM      5  C   UNL     1      -5.948 -10.502  18.522  0.00  0.00    +0.002 A 
ATOM      6  C   UNL     1      -6.185 -10.649  19.299  0.00  0.00    +0.002 A 
ATOM      7  C   UNL     1      -6.988 -10.708  19.482  0.00  0.00    +0.030 A 
ENDBRANCH   8   4
ENDBRANCH  14  13
BRANCH  18  22
ATOM     22  N   UNL     1      -7.109  -9.900  11.596  0.00  0.00    -0.184 NA
ATOM     23  C   UNL     1      -7.594  -9.462  11.092  0.00  0.00    +0.344 C 
ATOM     24  O   UNL     1      -8.315  -9.170  11.365  0.00  0.00    -0.249 OA
ATOM     25  N   UNL     1      -7.357  -9.316  10.316  0.00  0.00    -0.161 NA
BRANCH  25  26
ATOM     26  C   UNL     1      -7.841  -8.877   9.812  0.00  0.00    +0.075 A 
ATOM     27  C   UNL     1      -8.657  -8.866   9.930  0.00  0.00    +0.020 A 
ATOM     28  C   UNL     1      -9.140  -8.428   9.426  0.00  0.00    +0.039 A 
ATOM     29  C   UNL     1      -8.808  -8.000   8.803  0.00  0.00    +0.145 A 
ATOM     37  C   UNL     1      -7.991  -8.011   8.685  0.00  0.00    +0.039 A 
ATOM     38  C   UNL     1      -7.508  -8.450   9.189  0.00  0.00    +0.020 A 
BRANCH  29  30
ATOM     30  O   UNL     1      -9.291  -7.562   8.299  0.00  0.00    -0.453 OA
BRANCH  30  31
ATOM     31  C   UNL     1      -9.469  -6.777   8.479  0.00  0.00    +0.145 A 
ATOM     32  C   UNL     1     -10.185  -6.589   8.843  0.00  0.00    +0.037 A 
ATOM     33  C   UNL     1     -10.364  -5.803   9.023  0.00  0.00    +0.003 A 
ATOM     34  C   UNL     1      -9.826  -5.206   8.838  0.00  0.00    +0.000 A 
ATOM     35  C   UNL     1      -9.110  -5.394   8.473  0.00  0.00    +0.003 A 
ATOM     36  C   UNL     1      -8.932  -6.178   8.294  0.00  0.00    +0.037 A 
ENDBRANCH  30  31
ENDBRANCH  29  30
ENDBRANCH  25  26
ENDBRANCH  18  22
TORSDOF 6
ENDMDL
MODEL 10
REMARK VINA RESULT:      -4.7     25.266     26.259
REMARK  Name = 
REMARK  6 active torsions:
REMARK  status: ('A' for Active; 'I' for Inactive)
REMARK    1  A    between atoms: C_4  and  C_8
REMARK    2  A    between atoms: N_13  and  C_14
REMARK    3  A    between atoms: C_18  and  N_22
REMARK    4  A    between atoms: N_25  and  C_26
REMARK    5  A    between atoms: C_29  and  O_30
REMARK    6  A    between atoms: O_30  and  C_31
REMARK                            x       y       z     vdW  Elec       q    Type
REMARK                         _______ _______ _______ _____ _____    ______ ____
ROOT
ATOM     14  C   UNL     1      -4.424 -10.363  12.119  0.00  0.00    +0.154 C 
ATOM     15  C   UNL     1      -4.790 -10.580  11.413  0.00  0.00    +0.166 C 
ATOM     16  O   UNL     1      -5.588 -10.718  11.573  0.00  0.00    -0.350 OA
ATOM     17  C   UNL     1      -5.714 -10.588  12.377  0.00  0.00    +0.166 C 
ATOM     18  C   UNL     1      -6.284 -10.592  12.973  0.00  0.00    +0.156 C 
ATOM     19  C   UNL     1      -5.917 -10.376  13.679  0.00  0.00    +0.166 C 
ATOM     20  O   UNL     1      -5.120 -10.237  13.520  0.00  0.00    -0.350 OA
ATOM     21  C   UNL     1      -4.994 -10.368  12.715  0.00  0.00    +0.166 C 
ENDROOT
BRANCH  14  13
ATOM      8  C   UNL     1      -2.008  -9.237  11.087  0.00  0.00    +0.086 A 
ATOM      9  C   UNL     1      -2.395  -9.051  10.383  0.00  0.00    +0.040 A 
ATOM     10  C   UNL     1      -3.193  -9.239  10.289  0.00  0.00    +0.103 A 
ATOM     11  N   UNL     1      -3.604  -9.614  10.899  0.00  0.00    -0.211 NA
ATOM     12  C   UNL     1      -3.215  -9.800  11.603  0.00  0.00    +0.237 A 
ATOM     13  N   UNL     1      -3.626 -10.174  12.213  0.00  0.00    -0.200 NA
ATOM     39  N   UNL     1      -2.418  -9.611  11.697  0.00  0.00    -0.212 NA
BRANCH   8   4
ATOM      1  F   UNL     1       0.057  -7.832  12.477  0.00  0.00    -0.204 F 
ATOM      2  C   UNL     1      -0.178  -8.346  11.876  0.00  0.00    +0.140 A 
ATOM      3  C   UNL     1      -0.976  -8.534  11.782  0.00  0.00    +0.031 A 
ATOM      4  C   UNL     1      -1.211  -9.048  11.181  0.00  0.00    +0.020 A 
ATOM      5  C   UNL     1      -0.648  -9.373  10.673  0.00  0.00    +0.002 A 
ATOM      6  C   UNL     1       0.150  -9.185  10.766  0.00  0.00    +0.002 A 
ATOM      7  C   UNL     1       0.385  -8.671  11.368  0.00  0.00    +0.030 A 
ENDBRANCH   8   4
ENDBRANCH  14  13
BRANCH  18  22
ATOM     22  N   UNL     1      -7.082 -10.781  12.879  0.00  0.00    -0.184 NA
ATOM     23  C   UNL     1      -7.650 -10.422  13.358  0.00  0.00    +0.344 C 
ATOM     24  O   UNL     1      -7.420  -9.875  13.931  0.00  0.00    -0.249 OA
ATOM     25  N   UNL     1      -8.447 -10.610  13.264  0.00  0.00    -0.161 NA
BRANCH  25  26
ATOM     26  C   UNL     1      -9.015 -10.251  13.743  0.00  0.00    +0.075 A 
ATOM     27  C   UNL     1      -9.527  -9.688  13.425  0.00  0.00    +0.020 A 
ATOM     28  C   UNL     1     -10.095  -9.330  13.903  0.00  0.00    +0.039 A 
ATOM     29  C   UNL     1     -10.152  -9.534  14.701  0.00  0.00    +0.145 A 
ATOM     37  C   UNL     1      -9.639 -10.098  15.019  0.00  0.00    +0.039 A 
ATOM     38  C   UNL     1      -9.072 -10.456  14.540  0.00  0.00    +0.020 A 
BRANCH  29  30
ATOM     30  O   UNL     1     -10.719  -9.176  15.179  0.00  0.00    -0.453 OA
BRANCH  30  31
ATOM     31  C   UNL     1     -10.526  -8.500  15.612  0.00  0.00    +0.145 A 
ATOM     32  C   UNL     1     -10.271  -8.569  16.393  0.00  0.00    +0.037 A 
ATOM     33  C   UNL     1     -10.078  -7.893  16.825  0.00  0.00    +0.003 A 
ATOM     34  C   UNL     1     -10.142  -7.148  16.476  0.00  0.00    +0.000 A 
ATOM     35  C   UNL     1     -10.397  -7.079  15.694  0.00  0.00    +0.003 A 
ATOM     36  C   UNL     1     -10.589  -7.755  15.263  0.00  0.00    +0.037 A 
ENDBRANCH  30  31
ENDBRANCH  29  30
ENDBRANCH  25  26
ENDBRANCH  18  22
TORSDOF 6
ENDMDL
