MODEL 1
REMARK VINA RESULT:      -9.3      0.000      0.000
REMARK  Name = 
REMARK  9 active torsions:
REMARK  status: ('A' for Active; 'I' for Inactive)
REMARK    1  A    between atoms: C_2  and  C_3
REMARK    2  A    between atoms: C_3  and  C_4
REMARK    3  A    between atoms: C_4  and  C_5
REMARK    4  A    between atoms: N_7  and  C_8
REMARK    5  A    between atoms: C_8  and  C_9
REMARK    6  A    between atoms: C_16  and  C_17
REMARK    7  A    between atoms: N_19  and  C_20
REMARK    8  A    between atoms: C_20  and  C_21
REMARK    9  A    between atoms: C_21  and  N_22
REMARK                            x       y       z     vdW  Elec       q    Type
REMARK                         _______ _______ _______ _____ _____    ______ ____
ROOT
ATOM      9  C   UNL     1      -0.345   2.063  25.300  0.00  0.00    +0.082 C 
ATOM     10  C   UNL     1      -0.210   1.703  24.624  0.00  0.00    +0.019 C 
ATOM     11  C   UNL     1      -0.322   0.914  24.480  0.00  0.00    +0.013 C 
ATOM     12  C   UNL     1      -0.109   0.695  23.637  0.00  0.00    +0.018 C 
ATOM     13  C   UNL     1      -0.184   1.096  24.146  0.00  0.00    +0.072 C 
ATOM     14  N   UNL     1      -0.457   1.260  25.145  0.00  0.00    -0.272 NA
ATOM     15  C   UNL     1      -0.752   0.573  25.669  0.00  0.00    +0.081 C 
ATOM     16  C   UNL     1      -0.607   0.258  24.989  0.00  0.00    +0.094 C 
ENDROOT
BRANCH  16  17
ATOM     17  C   UNL     1      -0.699  -0.535  24.776  0.00  0.00    +0.242 C 
ATOM     18  O   UNL     1      -0.045  -0.975  24.534  0.00  0.00    -0.273 OA
ATOM     19  N   UNL     1      -1.445  -0.885  24.807  0.00  0.00    -0.203 NA
BRANCH  19  20
ATOM     20  C   UNL     1      -1.537  -1.678  24.595  0.00  0.00    +0.138 C 
BRANCH  20  21
ATOM     21  C   UNL     1      -2.226  -2.082  24.800  0.00  0.00    +0.138 C 
BRANCH  21  22
ATOM     22  N   UNL     1      -2.843  -2.147  24.257  0.00  0.00    -0.204 NA
ATOM     23  C   UNL     1      -3.530  -2.557  24.458  0.00  0.00    +0.242 C 
ATOM     24  C   UNL     1      -4.147  -2.622  23.915  0.00  0.00    +0.096 C 
ATOM     25  O   UNL     1      -3.600  -2.902  25.204  0.00  0.00    -0.273 OA
ENDBRANCH  21  22
ENDBRANCH  20  21
ENDBRANCH  19  20
ENDBRANCH  16  17
BRANCH   9   8
ATOM      8  C   UNL     1      -0.363   2.727  25.789  0.00  0.00    +0.145 C 
BRANCH   8   7
ATOM      5  C   UNL     1      -2.076   3.997  25.698  0.00  0.00    +0.101 A 
ATOM      6  C   UNL     1      -1.706   3.304  25.949  0.00  0.00    +0.113 A 
ATOM      7  N   UNL     1      -0.931   3.314  25.667  0.00  0.00    -0.229 N 
ATOM     26  N   UNL     1      -0.822   4.013  25.244  0.00  0.00    -0.064 NA
ATOM     27  N   UNL     1      -1.530   4.435  25.263  0.00  0.00    -0.133 NA
BRANCH   5   4
ATOM      4  C   UNL     1      -2.857   4.213  25.857  0.00  0.00    +0.049 C 
BRANCH   4   3
ATOM      3  C   UNL     1      -3.479   3.791  25.516  0.00  0.00    +0.006 C 
BRANCH   3   2
ATOM      1  C   UNL     1      -4.883   3.567  25.373  0.00  0.00    +0.000 C 
ATOM      2  C   UNL     1      -4.252   3.912  25.777  0.00  0.00    +0.000 C 
ENDBRANCH   3   2
ENDBRANCH   4   3
ENDBRANCH   5   4
ENDBRANCH   8   7
ENDBRANCH   9   8
TORSDOF 9
ENDMDL
MODEL 2
REMARK VINA RESULT:      -8.8      2.439      5.956
REMARK  Name = 
REMARK  9 active torsions:
REMARK  status: ('A' for Active; 'I' for Inactive)
REMARK    1  A    between atoms: C_2  and  C_3
REMARK    2  A    between atoms: C_3  and  C_4
REMARK    3  A    between atoms: C_4  and  C_5
REMARK    4  A    between atoms: N_7  and  C_8
REMARK    5  A    between atoms: C_8  and  C_9
REMARK    6  A    between atoms: C_16  and  C_17
REMARK    7  A    between atoms: N_19  and  C_20
REMARK    8  A    between atoms: C_20  and  C_21
REMARK    9  A    between atoms: C_21  and  N_22
REMARK                            x       y       z     vdW  Elec       q    Type
REMARK                         _______ _______ _______ _____ _____    ______ ____
ROOT
ATOM      9  C   UNL     1      -4.412  -0.226  24.261  0.00  0.00    +0.082 C 
ATOM     10  C   UNL     1      -4.720   0.265  24.780  0.00  0.00    +0.019 C 
ATOM     11  C   UNL     1      -4.554   1.056  24.837  0.00  0.00    +0.013 C 
ATOM     12  C   UNL     1      -5.013   1.447  25.501  0.00  0.00    +0.018 C 
ATOM     13  C   UNL     1      -4.823   0.951  25.120  0.00  0.00    +0.072 C 
ATOM     14  N   UNL     1      -4.248   0.580  24.325  0.00  0.00    -0.272 NA
ATOM     15  C   UNL     1      -3.695   1.130  23.851  0.00  0.00    +0.081 C 
ATOM     16  C   UNL     1      -4.020   1.579  24.377  0.00  0.00    +0.094 C 
ENDROOT
BRANCH  16  17
ATOM     17  C   UNL     1      -3.896   2.387  24.488  0.00  0.00    +0.242 C 
ATOM     18  O   UNL     1      -4.511   2.921  24.356  0.00  0.00    -0.273 OA
ATOM     19  N   UNL     1      -3.157   2.661  24.731  0.00  0.00    -0.203 NA
BRANCH  19  20
ATOM     20  C   UNL     1      -3.032   3.469  24.843  0.00  0.00    +0.138 C 
BRANCH  20  21
ATOM     21  C   UNL     1      -2.292   3.743  25.081  0.00  0.00    +0.138 C 
BRANCH  21  22
ATOM     22  N   UNL     1      -2.099   4.540  24.993  0.00  0.00    -0.204 NA
ATOM     23  C   UNL     1      -1.315   4.787  25.073  0.00  0.00    +0.242 C 
ATOM     24  C   UNL     1      -1.122   5.584  24.986  0.00  0.00    +0.096 C 
ATOM     25  O   UNL     1      -0.725   4.236  25.241  0.00  0.00    -0.273 OA
ENDBRANCH  21  22
ENDBRANCH  20  21
ENDBRANCH  19  20
ENDBRANCH  16  17
BRANCH   9   8
ATOM      8  C   UNL     1      -4.321  -0.970  23.917  0.00  0.00    +0.145 C 
BRANCH   8   7
ATOM      5  C   UNL     1      -2.754  -2.243  24.610  0.00  0.00    +0.101 A 
ATOM      6  C   UNL     1      -3.020  -1.615  24.146  0.00  0.00    +0.113 A 
ATOM      7  N   UNL     1      -3.831  -1.531  24.271  0.00  0.00    -0.229 N 
ATOM     26  N   UNL     1      -4.066  -2.108  24.812  0.00  0.00    -0.064 NA
ATOM     27  N   UNL     1      -3.400  -2.547  25.022  0.00  0.00    -0.133 NA
BRANCH   5   4
ATOM      4  C   UNL     1      -1.977  -2.517  24.655  0.00  0.00    +0.049 C 
BRANCH   4   3
ATOM      3  C   UNL     1      -1.383  -2.028  24.952  0.00  0.00    +0.006 C 
BRANCH   3   2
ATOM      1  C   UNL     1      -0.015  -1.820  25.310  0.00  0.00    +0.000 C 
ATOM      2  C   UNL     1      -0.603  -2.295  24.979  0.00  0.00    +0.000 C 
ENDBRANCH   3   2
ENDBRANCH   4   3
ENDBRANCH   5   4
ENDBRANCH   8   7
ENDBRANCH   9   8
TORSDOF 9
ENDMDL
MODEL 3
REMARK VINA RESULT:      -8.7      1.964      4.835
REMARK  Name = 
REMARK  9 active torsions:
REMARK  status: ('A' for Active; 'I' for Inactive)
REMARK    1  A    between atoms: C_2  and  C_3
REMARK    2  A    between atoms: C_3  and  C_4
REMARK    3  A    between atoms: C_4  and  C_5
REMARK    4  A    between atoms: N_7  and  C_8
REMARK    5  A    between atoms: C_8  and  C_9
REMARK    6  A    between atoms: C_16  and  C_17
REMARK    7  A    between atoms: N_19  and  C_20
REMARK    8  A    between atoms: C_20  and  C_21
REMARK    9  A    between atoms: C_21  and  N_22
REMARK                            x       y       z     vdW  Elec       q    Type
REMARK                         _______ _______ _______ _____ _____    ______ ____
ROOT
ATOM      9  C   UNL     1      -0.547   0.726  24.655  0.00  0.00    +0.082 C 
ATOM     10  C   UNL     1      -0.471   1.214  25.256  0.00  0.00    +0.019 C 
ATOM     11  C   UNL     1      -0.884   1.903  25.360  0.00  0.00    +0.013 C 
ATOM     12  C   UNL     1      -0.650   2.323  26.116  0.00  0.00    +0.018 C 
ATOM     13  C   UNL     1      -0.629   1.848  25.668  0.00  0.00    +0.072 C 
ATOM     14  N   UNL     1      -0.965   1.429  24.768  0.00  0.00    -0.272 NA
ATOM     15  C   UNL     1      -1.607   1.843  24.270  0.00  0.00    +0.081 C 
ATOM     16  C   UNL     1      -1.502   2.296  24.876  0.00  0.00    +0.094 C 
ENDROOT
BRANCH  16  17
ATOM     17  C   UNL     1      -1.888   3.007  25.041  0.00  0.00    +0.242 C 
ATOM     18  O   UNL     1      -1.461   3.713  25.061  0.00  0.00    -0.273 OA
ATOM     19  N   UNL     1      -2.700   3.011  25.185  0.00  0.00    -0.203 NA
BRANCH  19  20
ATOM     20  C   UNL     1      -3.086   3.721  25.350  0.00  0.00    +0.138 C 
BRANCH  20  21
ATOM     21  C   UNL     1      -3.904   3.777  25.259  0.00  0.00    +0.138 C 
BRANCH  21  22
ATOM     22  N   UNL     1      -4.398   3.229  25.627  0.00  0.00    -0.204 NA
ATOM     23  C   UNL     1      -5.212   3.358  25.654  0.00  0.00    +0.242 C 
ATOM     24  C   UNL     1      -5.706   2.810  26.022  0.00  0.00    +0.096 C 
ATOM     25  O   UNL     1      -5.533   4.036  25.311  0.00  0.00    -0.273 OA
ENDBRANCH  21  22
ENDBRANCH  20  21
ENDBRANCH  19  20
ENDBRANCH  16  17
BRANCH   9   8
ATOM      8  C   UNL     1      -0.359   0.042  24.235  0.00  0.00    +0.145 C 
BRANCH   8   7
ATOM      5  C   UNL     1      -1.395  -1.787  24.608  0.00  0.00    +0.101 A 
ATOM      6  C   UNL     1      -1.315  -1.075  24.200  0.00  0.00    +0.113 A 
ATOM      7  N   UNL     1      -0.645  -0.690  24.488  0.00  0.00    -0.229 N 
ATOM     26  N   UNL     1      -0.310  -1.165  25.074  0.00  0.00    -0.064 NA
ATOM     27  N   UNL     1      -0.774  -1.843  25.148  0.00  0.00    -0.133 NA
BRANCH   5   4
ATOM      4  C   UNL     1      -1.991  -2.346  24.495  0.00  0.00    +0.049 C 
BRANCH   4   3
ATOM      3  C   UNL     1      -2.783  -2.120  24.546  0.00  0.00    +0.006 C 
BRANCH   3   2
ATOM      1  C   UNL     1      -4.094  -2.528  24.150  0.00  0.00    +0.000 C 
ATOM      2  C   UNL     1      -3.378  -2.691  24.525  0.00  0.00    +0.000 C 
ENDBRANCH   3   2
ENDBRANCH   4   3
ENDBRANCH   5   4
ENDBRANCH   8   7
ENDBRANCH   9   8
TORSDOF 9
ENDMDL
MODEL 4
REMARK VINA RESULT:      -8.6      1.170      2.113
REMARK  Name = 
REMARK  9 active torsions:
REMARK  status: ('A' for Active; 'I' for Inactive)
REMARK    1  A    between atoms: C_2  and  C_3
REMARK    2  A    between atoms: C_3  and  C_4
REMARK    3  A    between atoms: C_4  and  C_5
REMARK    4  A    between atoms: N_7  and  C_8
REMARK    5  A    between atoms: C_8  and  C_9
REMARK    6  A    between atoms: C_16  and  C_17
REMARK    7  A    between atoms: N_19  and  C_20
REMARK    8  A    between atoms: C_20  and  C_21
REMARK    9  A    between atoms: C_21  and  N_22
REMARK                            x       y       z     vdW  Elec       q    Type
REMARK                         _______ _______ _______ _____ _____    ______ ____
ROOT
ATOM      9  C   UNL     1      -1.453   3.524  25.119  0.00  0.00    +0.082 C 
ATOM     10  C   UNL     1      -0.860   3.167  25.474  0.00  0.00    +0.019 C 
ATOM     11  C   UNL     1      -0.510   2.478  25.231  0.00  0.00    +0.013 C 
ATOM     12  C   UNL     1       0.157   2.232  25.778  0.00  0.00    +0.018 C 
ATOM     13  C   UNL     1      -0.331   2.612  25.569  0.00  0.00    +0.072 C 
ATOM     14  N   UNL     1      -1.091   2.822  24.877  0.00  0.00    -0.272 NA
ATOM     15  C   UNL     1      -1.245   2.268  24.169  0.00  0.00    +0.081 C 
ATOM     16  C   UNL     1      -0.664   1.949  24.548  0.00  0.00    +0.094 C 
ENDROOT
BRANCH  16  17
ATOM     17  C   UNL     1      -0.264   1.253  24.356  0.00  0.00    +0.242 C 
ATOM     18  O   UNL     1       0.510   1.288  24.072  0.00  0.00    -0.273 OA
ATOM     19  N   UNL     1      -0.639   0.525  24.447  0.00  0.00    -0.203 NA
BRANCH  19  20
ATOM     20  C   UNL     1      -0.239  -0.171  24.255  0.00  0.00    +0.138 C 
BRANCH  20  21
ATOM     21  C   UNL     1      -0.451  -0.882  24.616  0.00  0.00    +0.138 C 
BRANCH  21  22
ATOM     22  N   UNL     1      -1.068  -1.334  24.307  0.00  0.00    -0.204 NA
ATOM     23  C   UNL     1      -1.283  -2.043  24.670  0.00  0.00    +0.242 C 
ATOM     24  C   UNL     1      -1.900  -2.495  24.361  0.00  0.00    +0.096 C 
ATOM     25  O   UNL     1      -0.880  -2.301  25.342  0.00  0.00    -0.273 OA
ENDBRANCH  21  22
ENDBRANCH  20  21
ENDBRANCH  19  20
ENDBRANCH  16  17
BRANCH   9   8
ATOM      8  C   UNL     1      -2.008   4.128  25.042  0.00  0.00    +0.145 C 
BRANCH   8   7
ATOM      5  C   UNL     1      -4.044   3.814  25.601  0.00  0.00    +0.101 A 
ATOM      6  C   UNL     1      -3.441   3.798  25.038  0.00  0.00    +0.113 A 
ATOM      7  N   UNL     1      -2.748   4.058  25.402  0.00  0.00    -0.229 N 
ATOM     26  N   UNL     1      -2.922   4.234  26.189  0.00  0.00    -0.064 NA
ATOM     27  N   UNL     1      -3.724   4.084  26.311  0.00  0.00    -0.133 NA
BRANCH   5   4
ATOM      4  C   UNL     1      -4.831   3.598  25.473  0.00  0.00    +0.049 C 
BRANCH   4   3
ATOM      3  C   UNL     1      -5.035   2.801  25.413  0.00  0.00    +0.006 C 
BRANCH   3   2
ATOM      1  C   UNL     1      -6.033   1.816  25.138  0.00  0.00    +0.000 C 
ATOM      2  C   UNL     1      -5.828   2.580  25.371  0.00  0.00    +0.000 C 
ENDBRANCH   3   2
ENDBRANCH   4   3
ENDBRANCH   5   4
ENDBRANCH   8   7
ENDBRANCH   9   8
TORSDOF 9
ENDMDL
MODEL 5
REMARK VINA RESULT:      -8.5      2.284      3.722
REMARK  Name = 
REMARK  9 active torsions:
REMARK  status: ('A' for Active; 'I' for Inactive)
REMARK    1  A    between atoms: C_2  and  C_3
REMARK    2  A    between atoms: C_3  and  C_4
REMARK    3  A    between atoms: C_4  and  C_5
REMARK    4  A    between atoms: N_7  and  C_8
REMARK    5  A    between atoms: C_8  and  C_9
REMARK    6  A    between atoms: C_16  and  C_17
REMARK    7  A    between atoms: N_19  and  C_20
REMARK    8  A    between atoms: C_20  and  C_21
REMARK    9  A    between atoms: C_21  and  N_22
REMARK                            x       y       z     vdW  Elec       q    Type
REMARK                         _______ _______ _______ _____ _____    ______ ____
ROOT
ATOM      9  C   UNL     1      -4.598   0.528  24.959  0.00  0.00    +0.082 C 
ATOM     10  C   UNL     1      -4.296  -0.059  25.372  0.00  0.00    +0.019 C 
ATOM     11  C   UNL     1      -3.599  -0.438  25.211  0.00  0.00    +0.013 C 
ATOM     12  C   UNL     1      -3.428  -1.088  25.805  0.00  0.00    +0.018 C 
ATOM     13  C   UNL     1      -3.771  -0.599  25.540  0.00  0.00    +0.072 C 
ATOM     14  N   UNL     1      -3.889   0.136  24.802  0.00  0.00    -0.272 NA
ATOM     15  C   UNL     1      -3.264   0.245  24.146  0.00  0.00    +0.081 C 
ATOM     16  C   UNL     1      -3.002  -0.328  24.577  0.00  0.00    +0.094 C 
ENDROOT
BRANCH  16  17
ATOM     17  C   UNL     1      -2.304  -0.755  24.469  0.00  0.00    +0.242 C 
ATOM     18  O   UNL     1      -2.324  -1.580  24.452  0.00  0.00    -0.273 OA
ATOM     19  N   UNL     1      -1.588  -0.358  24.379  0.00  0.00    -0.203 NA
BRANCH  19  20
ATOM     20  C   UNL     1      -0.890  -0.785  24.272  0.00  0.00    +0.138 C 
BRANCH  20  21
ATOM     21  C   UNL     1      -0.177  -0.386  24.155  0.00  0.00    +0.138 C 
BRANCH  21  22
ATOM     22  N   UNL     1       0.297  -0.571  23.506  0.00  0.00    -0.204 NA
ATOM     23  C   UNL     1       0.854  -0.027  23.232  0.00  0.00    +0.242 C 
ATOM     24  C   UNL     1       1.328  -0.211  22.583  0.00  0.00    +0.096 C 
ATOM     25  O   UNL     1       0.936   0.703  23.609  0.00  0.00    -0.273 OA
ENDBRANCH  21  22
ENDBRANCH  20  21
ENDBRANCH  19  20
ENDBRANCH  16  17
BRANCH   9   8
ATOM      8  C   UNL     1      -5.174   1.097  24.802  0.00  0.00    +0.145 C 
BRANCH   8   7
ATOM      5  C   UNL     1      -4.820   3.041  25.609  0.00  0.00    +0.101 A 
ATOM      6  C   UNL     1      -4.625   2.429  25.091  0.00  0.00    +0.113 A 
ATOM      7  N   UNL     1      -5.165   1.817  25.206  0.00  0.00    -0.229 N 
ATOM     26  N   UNL     1      -5.693   2.049  25.795  0.00  0.00    -0.064 NA
ATOM     27  N   UNL     1      -5.480   2.806  26.044  0.00  0.00    -0.133 NA
BRANCH   5   4
ATOM      4  C   UNL     1      -4.424   3.761  25.679  0.00  0.00    +0.049 C 
BRANCH   4   3
ATOM      3  C   UNL     1      -3.606   3.773  25.783  0.00  0.00    +0.006 C 
BRANCH   3   2
ATOM      1  C   UNL     1      -2.387   4.519  25.795  0.00  0.00    +0.000 C 
ATOM      2  C   UNL     1      -3.209   4.493  25.852  0.00  0.00    +0.000 C 
ENDBRANCH   3   2
ENDBRANCH   4   3
ENDBRANCH   5   4
ENDBRANCH   8   7
ENDBRANCH   9   8
TORSDOF 9
ENDMDL
MODEL 6
REMARK VINA RESULT:      -8.4      2.424      4.742
REMARK  Name = 
REMARK  9 active torsions:
REMARK  status: ('A' for Active; 'I' for Inactive)
REMARK    1  A    between atoms: C_2  and  C_3
REMARK    2  A    between atoms: C_3  and  C_4
REMARK    3  A    between atoms: C_4  and  C_5
REMARK    4  A    between atoms: N_7  and  C_8
REMARK    5  A    between atoms: C_8  and  C_9
REMARK    6  A    between atoms: C_16  and  C_17
REMARK    7  A    between atoms: N_19  and  C_20
REMARK    8  A    between atoms: C_20  and  C_21
REMARK    9  A    between atoms: C_21  and  N_22
REMARK                            x       y       z     vdW  Elec       q    Type
REMARK                         _______ _______ _______ _____ _____    ______ ____
ROOT
ATOM      9  C   UNL     1      -2.589   1.783  24.536  0.00  0.00    +0.082 C 
ATOM     10  C   UNL     1      -2.059   1.886  25.097  0.00  0.00    +0.019 C 
ATOM     11  C   UNL     1      -1.260   1.947  24.984  0.00  0.00    +0.013 C 
ATOM     12  C   UNL     1      -0.822   2.064  25.758  0.00  0.00    +0.018 C 
ATOM     13  C   UNL     1      -1.346   1.979  25.378  0.00  0.00    +0.072 C 
ATOM     14  N   UNL     1      -1.773   1.846  24.430  0.00  0.00    -0.272 NA
ATOM     15  C   UNL     1      -1.251   1.819  23.682  0.00  0.00    +0.081 C 
ATOM     16  C   UNL     1      -0.764   1.920  24.261  0.00  0.00    +0.094 C 
ENDROOT
BRANCH  16  17
ATOM     17  C   UNL     1       0.057   1.990  24.216  0.00  0.00    +0.242 C 
ATOM     18  O   UNL     1       0.432   2.656  24.526  0.00  0.00    -0.273 OA
ATOM     19  N   UNL     1       0.502   1.394  23.860  0.00  0.00    -0.203 NA
BRANCH  19  20
ATOM     20  C   UNL     1       1.324   1.464  23.815  0.00  0.00    +0.138 C 
BRANCH  20  21
ATOM     21  C   UNL     1       1.757   0.937  23.351  0.00  0.00    +0.138 C 
BRANCH  21  22
ATOM     22  N   UNL     1       2.573   1.029  23.275  0.00  0.00    -0.204 NA
ATOM     23  C   UNL     1       2.991   0.576  22.727  0.00  0.00    +0.242 C 
ATOM     24  C   UNL     1       3.807   0.668  22.650  0.00  0.00    +0.096 C 
ATOM     25  O   UNL     1       2.592   0.030  22.254  0.00  0.00    -0.273 OA
ENDBRANCH  21  22
ENDBRANCH  20  21
ENDBRANCH  19  20
ENDBRANCH  16  17
BRANCH   9   8
ATOM      8  C   UNL     1      -3.361   1.686  24.263  0.00  0.00    +0.145 C 
BRANCH   8   7
ATOM      5  C   UNL     1      -4.270  -0.240  24.411  0.00  0.00    +0.101 A 
ATOM      6  C   UNL     1      -3.769   0.293  24.029  0.00  0.00    +0.113 A 
ATOM      7  N   UNL     1      -3.783   1.002  24.450  0.00  0.00    -0.229 N 
ATOM     26  N   UNL     1      -4.292   0.908  25.093  0.00  0.00    -0.064 NA
ATOM     27  N   UNL     1      -4.593   0.140  25.068  0.00  0.00    -0.133 NA
BRANCH   5   4
ATOM      4  C   UNL     1      -4.420  -1.016  24.176  0.00  0.00    +0.049 C 
BRANCH   4   3
ATOM      3  C   UNL     1      -3.891  -1.617  24.376  0.00  0.00    +0.006 C 
BRANCH   3   2
ATOM      1  C   UNL     1      -3.546  -3.004  24.377  0.00  0.00    +0.000 C 
ATOM      2  C   UNL     1      -4.017  -2.385  24.103  0.00  0.00    +0.000 C 
ENDBRANCH   3   2
ENDBRANCH   4   3
ENDBRANCH   5   4
ENDBRANCH   8   7
ENDBRANCH   9   8
TORSDOF 9
ENDMDL
MODEL 7
REMARK VINA RESULT:      -8.4      2.003      3.533
REMARK  Name = 
REMARK  9 active torsions:
REMARK  status: ('A' for Active; 'I' for Inactive)
REMARK    1  A    between atoms: C_2  and  C_3
REMARK    2  A    between atoms: C_3  and  C_4
REMARK    3  A    between atoms: C_4  and  C_5
REMARK    4  A    between atoms: N_7  and  C_8
REMARK    5  A    between atoms: C_8  and  C_9
REMARK    6  A    between atoms: C_16  and  C_17
REMARK    7  A    between atoms: N_19  and  C_20
REMARK    8  A    between atoms: C_20  and  C_21
REMARK    9  A    between atoms: C_21  and  N_22
REMARK                            x       y       z     vdW  Elec       q    Type
REMARK                         _______ _______ _______ _____ _____    ______ ____
ROOT
ATOM      9  C   UNL     1      -4.083   3.359  24.705  0.00  0.00    +0.082 C 
ATOM     10  C   UNL     1      -4.650   3.015  25.112  0.00  0.00    +0.019 C 
ATOM     11  C   UNL     1      -4.855   2.233  25.065  0.00  0.00    +0.013 C 
ATOM     12  C   UNL     1      -5.535   2.033  25.615  0.00  0.00    +0.018 C 
ATOM     13  C   UNL     1      -5.092   2.422  25.333  0.00  0.00    +0.072 C 
ATOM     14  N   UNL     1      -4.298   2.563  24.664  0.00  0.00    -0.272 NA
ATOM     15  C   UNL     1      -3.974   1.868  24.169  0.00  0.00    +0.081 C 
ATOM     16  C   UNL     1      -4.539   1.569  24.587  0.00  0.00    +0.094 C 
ENDROOT
BRANCH  16  17
ATOM     17  C   UNL     1      -4.797   0.785  24.587  0.00  0.00    +0.242 C 
ATOM     18  O   UNL     1      -5.605   0.618  24.587  0.00  0.00    -0.273 OA
ATOM     19  N   UNL     1      -4.248   0.170  24.589  0.00  0.00    -0.203 NA
BRANCH  19  20
ATOM     20  C   UNL     1      -4.507  -0.614  24.590  0.00  0.00    +0.138 C 
BRANCH  20  21
ATOM     21  C   UNL     1      -3.979  -1.222  24.770  0.00  0.00    +0.138 C 
BRANCH  21  22
ATOM     22  N   UNL     1      -3.971  -1.910  24.316  0.00  0.00    -0.204 NA
ATOM     23  C   UNL     1      -3.611  -2.593  24.605  0.00  0.00    +0.242 C 
ATOM     24  C   UNL     1      -3.604  -3.281  24.151  0.00  0.00    +0.096 C 
ATOM     25  O   UNL     1      -3.258  -2.588  25.351  0.00  0.00    -0.273 OA
ENDBRANCH  21  22
ENDBRANCH  20  21
ENDBRANCH  19  20
ENDBRANCH  16  17
BRANCH   9   8
ATOM      8  C   UNL     1      -3.625   4.009  24.487  0.00  0.00    +0.145 C 
BRANCH   8   7
ATOM      5  C   UNL     1      -1.654   4.123  25.299  0.00  0.00    +0.101 A 
ATOM      6  C   UNL     1      -2.205   3.780  24.789  0.00  0.00    +0.113 A 
ATOM      7  N   UNL     1      -2.923   4.173  24.888  0.00  0.00    -0.229 N 
ATOM     26  N   UNL     1      -2.817   4.759  25.460  0.00  0.00    -0.064 NA
ATOM     27  N   UNL     1      -2.032   4.728  25.713  0.00  0.00    -0.133 NA
BRANCH   5   4
ATOM      4  C   UNL     1      -0.864   3.900  25.380  0.00  0.00    +0.049 C 
BRANCH   4   3
ATOM      3  C   UNL     1      -0.673   3.183  25.742  0.00  0.00    +0.006 C 
BRANCH   3   2
ATOM      1  C   UNL     1       0.332   2.388  26.373  0.00  0.00    +0.000 C 
ATOM      2  C   UNL     1       0.116   2.955  25.815  0.00  0.00    +0.000 C 
ENDBRANCH   3   2
ENDBRANCH   4   3
ENDBRANCH   5   4
ENDBRANCH   8   7
ENDBRANCH   9   8
TORSDOF 9
ENDMDL
MODEL 8
REMARK VINA RESULT:      -8.2      2.216      3.375
REMARK  Name = 
REMARK  9 active torsions:
REMARK  status: ('A' for Active; 'I' for Inactive)
REMARK    1  A    between atoms: C_2  and  C_3
REMARK    2  A    between atoms: C_3  and  C_4
REMARK    3  A    between atoms: C_4  and  C_5
REMARK    4  A    between atoms: N_7  and  C_8
REMARK    5  A    between atoms: C_8  and  C_9
REMARK    6  A    between atoms: C_16  and  C_17
REMARK    7  A    between atoms: N_19  and  C_20
REMARK    8  A    between atoms: C_20  and  C_21
REMARK    9  A    between atoms: C_21  and  N_22
REMARK                            x       y       z     vdW  Elec       q    Type
REMARK                         _______ _______ _______ _____ _____    ______ ____
ROOT
ATOM      9  C   UNL     1      -1.661   3.246  25.127  0.00  0.00    +0.082 C 
ATOM     10  C   UNL     1      -1.115   2.883  25.546  0.00  0.00    +0.019 C 
ATOM     11  C   UNL     1      -0.740   2.196  25.339  0.00  0.00    +0.013 C 
ATOM     12  C   UNL     1      -0.144   1.941  25.958  0.00  0.00    +0.018 C 
ATOM     13  C   UNL     1      -0.602   2.326  25.696  0.00  0.00    +0.072 C 
ATOM     14  N   UNL     1      -1.274   2.547  24.922  0.00  0.00    -0.272 NA
ATOM     15  C   UNL     1      -1.343   2.001  24.194  0.00  0.00    +0.081 C 
ATOM     16  C   UNL     1      -0.812   1.676  24.635  0.00  0.00    +0.094 C 
ENDROOT
BRANCH  16  17
ATOM     17  C   UNL     1      -0.394   0.981  24.484  0.00  0.00    +0.242 C 
ATOM     18  O   UNL     1      -0.499   0.322  24.970  0.00  0.00    -0.273 OA
ATOM     19  N   UNL     1       0.128   0.945  23.847  0.00  0.00    -0.203 NA
BRANCH  19  20
ATOM     20  C   UNL     1       0.546   0.250  23.695  0.00  0.00    +0.138 C 
BRANCH  20  21
ATOM     21  C   UNL     1       0.990   0.179  23.003  0.00  0.00    +0.138 C 
BRANCH  21  22
ATOM     22  N   UNL     1       1.810   0.260  23.029  0.00  0.00    -0.204 NA
ATOM     23  C   UNL     1       2.265   0.077  22.365  0.00  0.00    +0.242 C 
ATOM     24  C   UNL     1       3.085   0.158  22.390  0.00  0.00    +0.096 C 
ATOM     25  O   UNL     1       1.898  -0.187  21.674  0.00  0.00    -0.273 OA
ENDBRANCH  21  22
ENDBRANCH  20  21
ENDBRANCH  19  20
ENDBRANCH  16  17
BRANCH   9   8
ATOM      8  C   UNL     1      -2.202   3.854  24.991  0.00  0.00    +0.145 C 
BRANCH   8   7
ATOM      5  C   UNL     1      -4.243   3.631  25.573  0.00  0.00    +0.101 A 
ATOM      6  C   UNL     1      -3.638   3.542  25.020  0.00  0.00    +0.113 A 
ATOM      7  N   UNL     1      -2.943   3.834  25.354  0.00  0.00    -0.229 N 
ATOM     26  N   UNL     1      -3.118   4.104  26.113  0.00  0.00    -0.064 NA
ATOM     27  N   UNL     1      -3.922   3.978  26.249  0.00  0.00    -0.133 NA
BRANCH   5   4
ATOM      4  C   UNL     1      -5.032   3.411  25.469  0.00  0.00    +0.049 C 
BRANCH   4   3
ATOM      3  C   UNL     1      -5.234   2.612  25.425  0.00  0.00    +0.006 C 
BRANCH   3   2
ATOM      1  C   UNL     1      -6.220   1.603  25.193  0.00  0.00    +0.000 C 
ATOM      2  C   UNL     1      -6.025   2.391  25.341  0.00  0.00    +0.000 C 
ENDBRANCH   3   2
ENDBRANCH   4   3
ENDBRANCH   5   4
ENDBRANCH   8   7
ENDBRANCH   9   8
TORSDOF 9
ENDMDL
MODEL 9
REMARK VINA RESULT:      -8.2      1.866      5.046
REMARK  Name = 
REMARK  9 active torsions:
REMARK  status: ('A' for Active; 'I' for Inactive)
REMARK    1  A    between atoms: C_2  and  C_3
REMARK    2  A    between atoms: C_3  and  C_4
REMARK    3  A    between atoms: C_4  and  C_5
REMARK    4  A    between atoms: N_7  and  C_8
REMARK    5  A    between atoms: C_8  and  C_9
REMARK    6  A    between atoms: C_16  and  C_17
REMARK    7  A    between atoms: N_19  and  C_20
REMARK    8  A    between atoms: C_20  and  C_21
REMARK    9  A    between atoms: C_21  and  N_22
REMARK                            x       y       z     vdW  Elec       q    Type
REMARK                         _______ _______ _______ _____ _____    ______ ____
ROOT
ATOM      9  C   UNL     1      -0.570  -0.921  24.723  0.00  0.00    +0.082 C 
ATOM     10  C   UNL     1      -0.254  -0.502  24.148  0.00  0.00    +0.019 C 
ATOM     11  C   UNL     1      -0.108   0.294  24.171  0.00  0.00    +0.013 C 
ATOM     12  C   UNL     1       0.260   0.587  23.407  0.00  0.00    +0.018 C 
ATOM     13  C   UNL     1       0.008   0.142  23.814  0.00  0.00    +0.072 C 
ATOM     14  N   UNL     1      -0.418  -0.110  24.738  0.00  0.00    -0.272 NA
ATOM     15  C   UNL     1      -0.554   0.525  25.379  0.00  0.00    +0.081 C 
ATOM     16  C   UNL     1      -0.242   0.899  24.792  0.00  0.00    +0.094 C 
ENDROOT
BRANCH  16  17
ATOM     17  C   UNL     1      -0.067   1.705  24.750  0.00  0.00    +0.242 C 
ATOM     18  O   UNL     1       0.691   1.951  24.536  0.00  0.00    -0.273 OA
ATOM     19  N   UNL     1      -0.649   2.262  24.921  0.00  0.00    -0.203 NA
BRANCH  19  20
ATOM     20  C   UNL     1      -0.475   3.068  24.879  0.00  0.00    +0.138 C 
BRANCH  20  21
ATOM     21  C   UNL     1      -1.004   3.621  25.187  0.00  0.00    +0.138 C 
BRANCH  21  22
ATOM     22  N   UNL     1      -0.951   4.412  24.960  0.00  0.00    -0.204 NA
ATOM     23  C   UNL     1      -1.530   4.950  25.199  0.00  0.00    +0.242 C 
ATOM     24  C   UNL     1      -1.478   5.741  24.972  0.00  0.00    +0.096 C 
ATOM     25  O   UNL     1      -2.161   4.695  25.665  0.00  0.00    -0.273 OA
ENDBRANCH  21  22
ENDBRANCH  20  21
ENDBRANCH  19  20
ENDBRANCH  16  17
BRANCH   9   8
ATOM      8  C   UNL     1      -0.843  -1.624  25.056  0.00  0.00    +0.145 C 
BRANCH   8   7
ATOM      5  C   UNL     1      -2.808  -2.236  24.487  0.00  0.00    +0.101 A 
ATOM      6  C   UNL     1      -2.300  -1.714  24.874  0.00  0.00    +0.113 A 
ATOM      7  N   UNL     1      -1.527  -1.982  24.763  0.00  0.00    -0.229 N 
ATOM     26  N   UNL     1      -1.558  -2.669  24.308  0.00  0.00    -0.064 NA
ATOM     27  N   UNL     1      -2.350  -2.826  24.137  0.00  0.00    -0.133 NA
BRANCH   5   4
ATOM      4  C   UNL     1      -3.630  -2.178  24.456  0.00  0.00    +0.049 C 
BRANCH   4   3
ATOM      3  C   UNL     1      -3.986  -1.615  23.969  0.00  0.00    +0.006 C 
BRANCH   3   2
ATOM      1  C   UNL     1      -4.769  -0.441  24.193  0.00  0.00    +0.000 C 
ATOM      2  C   UNL     1      -4.696  -1.262  24.196  0.00  0.00    +0.000 C 
ENDBRANCH   3   2
ENDBRANCH   4   3
ENDBRANCH   5   4
ENDBRANCH   8   7
ENDBRANCH   9   8
TORSDOF 9
ENDMDL
MODEL 10
REMARK VINA RESULT:      -8.1      2.720      4.293
REMARK  Name = 
REMARK  9 active torsions:
REMARK  status: ('A' for Active; 'I' for Inactive)
REMARK    1  A    between atoms: C_2  and  C_3
REMARK    2  A    between atoms: C_3  and  C_4
REMARK    3  A    between atoms: C_4  and  C_5
REMARK    4  A    between atoms: N_7  and  C_8
REMARK    5  A    between atoms: C_8  and  C_9
REMARK    6  A    between atoms: C_16  and  C_17
REMARK    7  A    between atoms: N_19  and  C_20
REMARK    8  A    between atoms: C_20  and  C_21
REMARK    9  A    between atoms: C_21  and  N_22
REMARK                            x       y       z     vdW  Elec       q    Type
REMARK                         _______ _______ _______ _____ _____    ______ ____
ROOT
ATOM      9  C   UNL     1      -1.065   1.146  24.402  0.00  0.00    +0.082 C 
ATOM     10  C   UNL     1      -0.849   0.399  24.358  0.00  0.00    +0.019 C 
ATOM     11  C   UNL     1      -0.207   0.118  23.954  0.00  0.00    +0.013 C 
ATOM     12  C   UNL     1      -0.131  -0.773  24.026  0.00  0.00    +0.018 C 
ATOM     13  C   UNL     1      -0.403  -0.188  24.132  0.00  0.00    +0.072 C 
ATOM     14  N   UNL     1      -0.412   0.851  23.993  0.00  0.00    -0.272 NA
ATOM     15  C   UNL     1       0.231   1.262  23.492  0.00  0.00    +0.081 C 
ATOM     16  C   UNL     1       0.409   0.519  23.474  0.00  0.00    +0.094 C 
ENDROOT
BRANCH  16  17
ATOM     17  C   UNL     1       1.046   0.168  23.083  0.00  0.00    +0.242 C 
ATOM     18  O   UNL     1       0.919  -0.484  22.593  0.00  0.00    -0.273 OA
ATOM     19  N   UNL     1       1.806   0.468  23.183  0.00  0.00    -0.203 NA
BRANCH  19  20
ATOM     20  C   UNL     1       2.443   0.117  22.793  0.00  0.00    +0.138 C 
BRANCH  20  21
ATOM     21  C   UNL     1       3.189   0.469  22.821  0.00  0.00    +0.138 C 
BRANCH  21  22
ATOM     22  N   UNL     1       3.844   0.030  23.061  0.00  0.00    -0.204 NA
ATOM     23  C   UNL     1       4.585   0.388  23.114  0.00  0.00    +0.242 C 
ATOM     24  C   UNL     1       5.240  -0.051  23.355  0.00  0.00    +0.096 C 
ATOM     25  O   UNL     1       4.671   1.187  22.925  0.00  0.00    -0.273 OA
ENDBRANCH  21  22
ENDBRANCH  20  21
ENDBRANCH  19  20
ENDBRANCH  16  17
BRANCH   9   8
ATOM      8  C   UNL     1      -1.559   1.755  24.658  0.00  0.00    +0.145 C 
BRANCH   8   7
ATOM      5  C   UNL     1      -3.675   1.602  24.420  0.00  0.00    +0.101 A 
ATOM      6  C   UNL     1      -2.987   1.472  24.858  0.00  0.00    +0.113 A 
ATOM      7  N   UNL     1      -2.351   1.769  24.426  0.00  0.00    -0.229 N 
ATOM     26  N   UNL     1      -2.644   2.081  23.722  0.00  0.00    -0.064 NA
ATOM     27  N   UNL     1      -3.462   1.978  23.718  0.00  0.00    -0.133 NA
BRANCH   5   4
ATOM      4  C   UNL     1      -4.440   1.391  24.646  0.00  0.00    +0.049 C 
BRANCH   4   3
ATOM      3  C   UNL     1      -4.974   1.973  24.885  0.00  0.00    +0.006 C 
BRANCH   3   2
ATOM      1  C   UNL     1      -6.179   2.186  25.624  0.00  0.00    +0.000 C 
ATOM      2  C   UNL     1      -5.757   1.773  25.047  0.00  0.00    +0.000 C 
ENDBRANCH   3   2
ENDBRANCH   4   3
ENDBRANCH   5   4
ENDBRANCH   8   7
ENDBRANCH   9   8
TORSDOF 9
ENDMDL
