MODEL 1
REMARK VINA RESULT:      -7.7      0.000      0.000
REMARK  Name = 
REMARK  5 active torsions:
REMARK  status: ('A' for Active; 'I' for Inactive)
REMARK    1  A    between atoms: C_2  and  N_4
REMARK    2  A    between atoms: N_4  and  C_5
REMARK    3  A    between atoms: C_5  and  C_6
REMARK    4  A    between atoms: C_8  and  C_9
REMARK    5  A    between atoms: C_13  and  N_14
REMARK                            x       y       z     vdW  Elec       q    Type
REMARK                         _______ _______ _______ _____ _____    ______ ____
ROOT
ATOM      6  C   UNL     1      -4.202   0.916  24.586  0.00  0.00    +0.150 C 
ATOM      7  O   UNL     1      -4.906   1.078  24.986  0.00  0.00    -0.350 OA
ATOM      8  C   UNL     1      -5.012   1.896  24.994  0.00  0.00    +0.180 C 
ATOM     11  C   UNL     1      -4.375   2.240  24.598  0.00  0.00    +0.198 C 
ATOM     12  O   UNL     1      -4.259   3.047  24.476  0.00  0.00    -0.219 OA
ATOM     13  C   UNL     1      -3.875   1.634  24.346  0.00  0.00    +0.120 C 
ENDROOT
BRANCH  13  14
ATOM     14  N   UNL     1      -3.170   1.730  23.928  0.00  0.00    -0.270 NA
ATOM     15  C   UNL     1      -2.418   1.811  24.257  0.00  0.00    +0.072 C 
ATOM     16  C   UNL     1      -1.878   1.892  23.639  0.00  0.00    +0.019 C 
ATOM     17  C   UNL     1      -2.294   1.861  22.929  0.00  0.00    +0.019 C 
ATOM     18  C   UNL     1      -3.094   1.761  23.107  0.00  0.00    +0.072 C 
ENDBRANCH  13  14
BRANCH   8   9
ATOM      9  C   UNL     1      -5.645   2.299  25.337  0.00  0.00    +0.214 C 
ATOM     10  O   UNL     1      -6.055   1.963  25.969  0.00  0.00    -0.218 OA
ENDBRANCH   8   9
BRANCH   6   5
ATOM      5  C   UNL     1      -3.883   0.168  24.449  0.00  0.00    +0.120 C 
BRANCH   5   4
ATOM      4  N   UNL     1      -4.280  -0.504  24.716  0.00  0.00    -0.217 NA
BRANCH   4   2
ATOM      1  C   UNL     1      -3.447  -1.590  25.129  0.00  0.00    +0.019 C 
ATOM      2  C   UNL     1      -3.961  -1.253  24.579  0.00  0.00    +0.073 C 
ATOM      3  C   UNL     1      -4.156  -1.665  23.891  0.00  0.00    +0.019 C 
ENDBRANCH   4   2
ENDBRANCH   5   4
ENDBRANCH   6   5
TORSDOF 5
ENDMDL
MODEL 2
REMARK VINA RESULT:      -7.5      1.214      2.613
REMARK  Name = 
REMARK  5 active torsions:
REMARK  status: ('A' for Active; 'I' for Inactive)
REMARK    1  A    between atoms: C_2  and  N_4
REMARK    2  A    between atoms: N_4  and  C_5
REMARK    3  A    between atoms: C_5  and  C_6
REMARK    4  A    between atoms: C_8  and  C_9
REMARK    5  A    between atoms: C_13  and  N_14
REMARK                            x       y       z     vdW  Elec       q    Type
REMARK                         _______ _______ _______ _____ _____    ______ ____
ROOT
ATOM      6  C   UNL     1      -3.723   1.134  24.209  0.00  0.00    +0.150 C 
ATOM      7  O   UNL     1      -3.120   1.220  23.652  0.00  0.00    -0.350 OA
ATOM      8  C   UNL     1      -3.129   2.002  23.387  0.00  0.00    +0.180 C 
ATOM     11  C   UNL     1      -3.737   2.398  23.779  0.00  0.00    +0.198 C 
ATOM     12  O   UNL     1      -3.942   3.190  23.681  0.00  0.00    -0.219 OA
ATOM     13  C   UNL     1      -4.104   1.861  24.288  0.00  0.00    +0.120 C 
ENDROOT
BRANCH  13  14
ATOM     14  N   UNL     1      -4.741   2.024  24.787  0.00  0.00    -0.270 NA
ATOM     15  C   UNL     1      -5.533   1.856  24.632  0.00  0.00    +0.072 C 
ATOM     16  C   UNL     1      -5.978   2.111  25.278  0.00  0.00    +0.019 C 
ATOM     17  C   UNL     1      -5.462   2.436  25.832  0.00  0.00    +0.019 C 
ATOM     18  C   UNL     1      -4.696   2.382  25.528  0.00  0.00    +0.072 C 
ENDBRANCH  13  14
BRANCH   8   9
ATOM      9  C   UNL     1      -2.619   2.329  22.827  0.00  0.00    +0.214 C 
ATOM     10  O   UNL     1      -2.474   1.932  22.119  0.00  0.00    -0.218 OA
ENDBRANCH   8   9
BRANCH   6   5
ATOM      5  C   UNL     1      -3.911   0.441  24.616  0.00  0.00    +0.120 C 
BRANCH   5   4
ATOM      4  N   UNL     1      -3.443  -0.231  24.524  0.00  0.00    -0.217 NA
BRANCH   4   2
ATOM      1  C   UNL     1      -4.088  -1.503  24.425  0.00  0.00    +0.019 C 
ATOM      2  C   UNL     1      -3.673  -0.944  24.869  0.00  0.00    +0.073 C 
ATOM      3  C   UNL     1      -3.490  -1.100  25.658  0.00  0.00    +0.019 C 
ENDBRANCH   4   2
ENDBRANCH   5   4
ENDBRANCH   6   5
TORSDOF 5
ENDMDL
MODEL 3
REMARK VINA RESULT:      -7.4      1.766      3.294
REMARK  Name = 
REMARK  5 active torsions:
REMARK  status: ('A' for Active; 'I' for Inactive)
REMARK    1  A    between atoms: C_2  and  N_4
REMARK    2  A    between atoms: N_4  and  C_5
REMARK    3  A    between atoms: C_5  and  C_6
REMARK    4  A    between atoms: C_8  and  C_9
REMARK    5  A    between atoms: C_13  and  N_14
REMARK                            x       y       z     vdW  Elec       q    Type
REMARK                         _______ _______ _______ _____ _____    ______ ____
ROOT
ATOM      6  C   UNL     1      -3.436   3.279  24.941  0.00  0.00    +0.150 C 
ATOM      7  O   UNL     1      -4.014   3.593  25.440  0.00  0.00    -0.350 OA
ATOM      8  C   UNL     1      -4.720   3.189  25.298  0.00  0.00    +0.180 C 
ATOM     11  C   UNL     1      -4.578   2.625  24.713  0.00  0.00    +0.198 C 
ATOM     12  O   UNL     1      -5.131   2.098  24.402  0.00  0.00    -0.219 OA
ATOM     13  C   UNL     1      -3.784   2.681  24.492  0.00  0.00    +0.120 C 
ENDROOT
BRANCH  13  14
ATOM     14  N   UNL     1      -3.405   2.220  23.922  0.00  0.00    -0.270 NA
ATOM     15  C   UNL     1      -3.089   1.467  24.040  0.00  0.00    +0.072 C 
ATOM     16  C   UNL     1      -2.765   1.213  23.326  0.00  0.00    +0.019 C 
ATOM     17  C   UNL     1      -2.881   1.808  22.767  0.00  0.00    +0.019 C 
ATOM     18  C   UNL     1      -3.277   2.430  23.136  0.00  0.00    +0.072 C 
ENDBRANCH  13  14
BRANCH   8   9
ATOM      9  C   UNL     1      -5.440   3.324  25.676  0.00  0.00    +0.214 C 
ATOM     10  O   UNL     1      -5.720   4.095  25.768  0.00  0.00    -0.218 OA
ENDBRANCH   8   9
BRANCH   6   5
ATOM      5  C   UNL     1      -2.649   3.521  24.900  0.00  0.00    +0.120 C 
BRANCH   5   4
ATOM      4  N   UNL     1      -2.363   4.087  25.427  0.00  0.00    -0.217 NA
BRANCH   4   2
ATOM      1  C   UNL     1      -0.948   3.907  25.517  0.00  0.00    +0.019 C 
ATOM      2  C   UNL     1      -1.598   4.383  25.339  0.00  0.00    +0.073 C 
ATOM      3  C   UNL     1      -1.482   5.155  25.074  0.00  0.00    +0.019 C 
ENDBRANCH   4   2
ENDBRANCH   5   4
ENDBRANCH   6   5
TORSDOF 5
ENDMDL
MODEL 4
REMARK VINA RESULT:      -7.2      1.313      3.292
REMARK  Name = 
REMARK  5 active torsions:
REMARK  status: ('A' for Active; 'I' for Inactive)
REMARK    1  A    between atoms: C_2  and  N_4
REMARK    2  A    between atoms: N_4  and  C_5
REMARK    3  A    between atoms: C_5  and  C_6
REMARK    4  A    between atoms: C_8  and  C_9
REMARK    5  A    between atoms: C_13  and  N_14
REMARK                            x       y       z     vdW  Elec       q    Type
REMARK                         _______ _______ _______ _____ _____    ______ ____
ROOT
ATOM      6  C   UNL     1      -3.558   1.246  24.594  0.00  0.00    +0.150 C 
ATOM      7  O   UNL     1      -3.058   1.871  24.392  0.00  0.00    -0.350 OA
ATOM      8  C   UNL     1      -2.327   1.554  24.180  0.00  0.00    +0.180 C 
ATOM     11  C   UNL     1      -2.374   0.734  24.249  0.00  0.00    +0.198 C 
ATOM     12  O   UNL     1      -1.768   0.197  24.091  0.00  0.00    -0.219 OA
ATOM     13  C   UNL     1      -3.136   0.543  24.505  0.00  0.00    +0.120 C 
ENDROOT
BRANCH  13  14
ATOM     14  N   UNL     1      -3.424  -0.217  24.648  0.00  0.00    -0.270 NA
ATOM     15  C   UNL     1      -3.393  -0.620  25.367  0.00  0.00    +0.072 C 
ATOM     16  C   UNL     1      -3.743  -1.359  25.259  0.00  0.00    +0.019 C 
ATOM     17  C   UNL     1      -3.990  -1.413  24.475  0.00  0.00    +0.019 C 
ATOM     18  C   UNL     1      -3.792  -0.707  24.097  0.00  0.00    +0.072 C 
ENDBRANCH  13  14
BRANCH   8   9
ATOM      9  C   UNL     1      -1.664   1.983  23.940  0.00  0.00    +0.214 C 
ATOM     10  O   UNL     1      -1.659   2.805  24.004  0.00  0.00    -0.218 OA
ENDBRANCH   8   9
BRANCH   6   5
ATOM      5  C   UNL     1      -4.343   1.313  24.840  0.00  0.00    +0.120 C 
BRANCH   5   4
ATOM      4  N   UNL     1      -4.714   2.049  24.838  0.00  0.00    -0.217 NA
BRANCH   4   2
ATOM      1  C   UNL     1      -6.129   1.851  24.818  0.00  0.00    +0.019 C 
ATOM      2  C   UNL     1      -5.454   2.138  25.193  0.00  0.00    +0.073 C 
ATOM      3  C   UNL     1      -5.518   2.515  25.924  0.00  0.00    +0.019 C 
ENDBRANCH   4   2
ENDBRANCH   5   4
ENDBRANCH   6   5
TORSDOF 5
ENDMDL
MODEL 5
REMARK VINA RESULT:      -7.2      1.045      2.733
REMARK  Name = 
REMARK  5 active torsions:
REMARK  status: ('A' for Active; 'I' for Inactive)
REMARK    1  A    between atoms: C_2  and  N_4
REMARK    2  A    between atoms: N_4  and  C_5
REMARK    3  A    between atoms: C_5  and  C_6
REMARK    4  A    between atoms: C_8  and  C_9
REMARK    5  A    between atoms: C_13  and  N_14
REMARK                            x       y       z     vdW  Elec       q    Type
REMARK                         _______ _______ _______ _____ _____    ______ ____
ROOT
ATOM      6  C   UNL     1      -3.345   1.588  24.888  0.00  0.00    +0.150 C 
ATOM      7  O   UNL     1      -3.628   2.354  25.007  0.00  0.00    -0.350 OA
ATOM      8  C   UNL     1      -4.452   2.322  25.024  0.00  0.00    +0.180 C 
ATOM     11  C   UNL     1      -4.679   1.536  24.916  0.00  0.00    +0.198 C 
ATOM     12  O   UNL     1      -5.453   1.253  24.896  0.00  0.00    -0.219 OA
ATOM     13  C   UNL     1      -3.995   1.083  24.832  0.00  0.00    +0.120 C 
ENDROOT
BRANCH  13  14
ATOM     14  N   UNL     1      -3.965   0.266  24.712  0.00  0.00    -0.270 NA
ATOM     15  C   UNL     1      -3.939  -0.309  25.303  0.00  0.00    +0.072 C 
ATOM     16  C   UNL     1      -3.914  -1.048  24.937  0.00  0.00    +0.019 C 
ATOM     17  C   UNL     1      -3.925  -0.929  24.121  0.00  0.00    +0.019 C 
ATOM     18  C   UNL     1      -3.956  -0.117  23.982  0.00  0.00    +0.072 C 
ENDBRANCH  13  14
BRANCH   8   9
ATOM      9  C   UNL     1      -4.960   2.963  25.131  0.00  0.00    +0.214 C 
ATOM     10  O   UNL     1      -4.669   3.675  25.427  0.00  0.00    -0.218 OA
ENDBRANCH   8   9
BRANCH   6   5
ATOM      5  C   UNL     1      -2.552   1.366  24.834  0.00  0.00    +0.120 C 
BRANCH   5   4
ATOM      4  N   UNL     1      -1.960   1.933  24.921  0.00  0.00    -0.217 NA
BRANCH   4   2
ATOM      1  C   UNL     1      -0.779   1.656  24.165  0.00  0.00    +0.019 C 
ATOM      2  C   UNL     1      -1.167   1.708  24.891  0.00  0.00    +0.073 C 
ATOM      3  C   UNL     1      -0.760   1.535  25.588  0.00  0.00    +0.019 C 
ENDBRANCH   4   2
ENDBRANCH   5   4
ENDBRANCH   6   5
TORSDOF 5
ENDMDL
MODEL 6
REMARK VINA RESULT:      -7.1      1.930      2.955
REMARK  Name = 
REMARK  5 active torsions:
REMARK  status: ('A' for Active; 'I' for Inactive)
REMARK    1  A    between atoms: C_2  and  N_4
REMARK    2  A    between atoms: N_4  and  C_5
REMARK    3  A    between atoms: C_5  and  C_6
REMARK    4  A    between atoms: C_8  and  C_9
REMARK    5  A    between atoms: C_13  and  N_14
REMARK                            x       y       z     vdW  Elec       q    Type
REMARK                         _______ _______ _______ _____ _____    ______ ____
ROOT
ATOM      6  C   UNL     1      -2.269   0.796  24.289  0.00  0.00    +0.150 C 
ATOM      7  O   UNL     1      -1.506   0.491  24.206  0.00  0.00    -0.350 OA
ATOM      8  C   UNL     1      -0.997   1.118  24.035  0.00  0.00    +0.180 C 
ATOM     11  C   UNL     1      -1.445   1.810  24.013  0.00  0.00    +0.198 C 
ATOM     12  O   UNL     1      -1.158   2.568  23.861  0.00  0.00    -0.219 OA
ATOM     13  C   UNL     1      -2.231   1.611  24.170  0.00  0.00    +0.120 C 
ENDROOT
BRANCH  13  14
ATOM     14  N   UNL     1      -2.867   2.136  24.203  0.00  0.00    -0.270 NA
ATOM     15  C   UNL     1      -3.340   2.364  23.567  0.00  0.00    +0.072 C 
ATOM     16  C   UNL     1      -3.906   2.893  23.848  0.00  0.00    +0.019 C 
ATOM     17  C   UNL     1      -3.783   2.993  24.657  0.00  0.00    +0.019 C 
ATOM     18  C   UNL     1      -3.141   2.525  24.876  0.00  0.00    +0.072 C 
ENDBRANCH  13  14
BRANCH   8   9
ATOM      9  C   UNL     1      -0.184   1.061  23.909  0.00  0.00    +0.214 C 
ATOM     10  O   UNL     1       0.151   0.339  23.694  0.00  0.00    -0.218 OA
ENDBRANCH   8   9
BRANCH   6   5
ATOM      5  C   UNL     1      -2.949   0.362  24.461  0.00  0.00    +0.120 C 
BRANCH   5   4
ATOM      4  N   UNL     1      -2.906  -0.458  24.535  0.00  0.00    -0.217 NA
BRANCH   4   2
ATOM      1  C   UNL     1      -3.690  -1.060  25.567  0.00  0.00    +0.019 C 
ATOM      2  C   UNL     1      -3.572  -0.886  24.770  0.00  0.00    +0.073 C 
ATOM      3  C   UNL     1      -4.119  -1.139  24.207  0.00  0.00    +0.019 C 
ENDBRANCH   4   2
ENDBRANCH   5   4
ENDBRANCH   6   5
TORSDOF 5
ENDMDL
