MODEL 1
REMARK VINA RESULT:     -10.8      0.000      0.000
REMARK  Name = 
REMARK  6 active torsions:
REMARK  status: ('A' for Active; 'I' for Inactive)
REMARK    1  A    between atoms: O_2  and  C_3
REMARK    2  A    between atoms: C_4  and  C_10
REMARK    3  A    between atoms: C_18  and  N_24
REMARK    4  A    between atoms: C_25  and  C_27
REMARK    5  A    between atoms: C_27  and  C_28
REMARK    6  A    between atoms: C_28  and  C_29
REMARK                            x       y       z     vdW  Elec       q    Type
REMARK                         _______ _______ _______ _____ _____    ______ ____
ROOT
ATOM     10  C   UNL     1      -3.851  -0.776  24.650  0.00  0.00    +0.003 A 
ATOM     11  C   UNL     1      -3.515  -0.163  24.210  0.00  0.00    +0.006 A 
ATOM     12  C   UNL     1      -3.633   0.620  24.439  0.00  0.00    +0.069 A 
ATOM     13  C   UNL     1      -4.086   0.792  25.107  0.00  0.00    +0.078 A 
ATOM     14  N   UNL     1      -4.270   1.529  25.427  0.00  0.00    -0.178 NA
ATOM     15  C   UNL     1      -4.047   2.277  25.160  0.00  0.00    +0.265 C 
ATOM     16  O   UNL     1      -4.323   2.914  25.607  0.00  0.00    -0.271 OA
ATOM     17  C   UNL     1      -3.584   2.473  24.506  0.00  0.00    +0.174 C 
ATOM     18  C   UNL     1      -3.398   3.248  24.295  0.00  0.00    +0.124 C 
ATOM     19  C   UNL     1      -2.931   3.224  23.617  0.00  0.00    +0.045 C 
ATOM     20  C   UNL     1      -2.826   2.433  23.408  0.00  0.00    +0.096 C 
ATOM     21  N   UNL     1      -3.230   1.968  23.957  0.00  0.00    -0.268 N 
ATOM     22  C   UNL     1      -3.252   1.144  23.927  0.00  0.00    +0.251 C 
ATOM     23  O   UNL     1      -2.838   0.798  23.303  0.00  0.00    -0.270 OA
ATOM     32  C   UNL     1      -4.421   0.180  25.545  0.00  0.00    +0.017 A 
ATOM     33  C   UNL     1      -4.304  -0.604  25.317  0.00  0.00    +0.001 A 
ENDROOT
BRANCH  10   4
ATOM      3  C   UNL     1      -3.062  -1.967  24.675  0.00  0.00    +0.139 A 
ATOM      4  C   UNL     1      -3.733  -1.560  24.421  0.00  0.00    +0.035 A 
ATOM      5  C   UNL     1      -4.286  -1.935  23.939  0.00  0.00    +0.014 A 
ATOM      6  C   UNL     1      -4.169  -2.719  23.709  0.00  0.00    +0.058 A 
ATOM      7 CL   UNL     1      -4.721  -3.096  23.227  0.00  0.00    -0.082 Cl
ATOM      8  C   UNL     1      -3.498  -3.127  23.963  0.00  0.00    +0.015 A 
ATOM      9  C   UNL     1      -2.944  -2.751  24.446  0.00  0.00    +0.038 A 
BRANCH   3   2
ATOM      1  C   UNL     1      -1.788  -1.958  25.323  0.00  0.00    +0.252 C 
ATOM      2  O   UNL     1      -2.508  -1.591  25.158  0.00  0.00    -0.471 OA
ENDBRANCH   3   2
ENDBRANCH  10   4
BRANCH  18  24
ATOM     24  N   UNL     1      -3.639   3.929  24.694  0.00  0.00    -0.205 NA
ATOM     25  C   UNL     1      -3.077   4.467  24.969  0.00  0.00    +0.242 C 
ATOM     26  O   UNL     1      -3.318   5.148  25.368  0.00  0.00    -0.273 OA
BRANCH  25  27
ATOM     27  C   UNL     1      -2.274   4.323  24.846  0.00  0.00    +0.099 C 
BRANCH  27  28
ATOM     28  C   UNL     1      -1.709   4.803  25.208  0.00  0.00    +0.124 C 
BRANCH  28  29
ATOM     29  C   UNL     1      -0.906   4.663  25.080  0.00  0.00    +0.365 C 
ATOM     30  O   UNL     1      -0.532   4.034  25.460  0.00  0.00    -0.246 OA
ATOM     31  O   UNL     1      -0.477   5.152  24.571  0.00  0.00    -0.246 OA
ENDBRANCH  28  29
ENDBRANCH  27  28
ENDBRANCH  25  27
ENDBRANCH  18  24
TORSDOF 6
ENDMDL
MODEL 2
REMARK VINA RESULT:     -10.8      2.522      5.965
REMARK  Name = 
REMARK  6 active torsions:
REMARK  status: ('A' for Active; 'I' for Inactive)
REMARK    1  A    between atoms: O_2  and  C_3
REMARK    2  A    between atoms: C_4  and  C_10
REMARK    3  A    between atoms: C_18  and  N_24
REMARK    4  A    between atoms: C_25  and  C_27
REMARK    5  A    between atoms: C_27  and  C_28
REMARK    6  A    between atoms: C_28  and  C_29
REMARK                            x       y       z     vdW  Elec       q    Type
REMARK                         _______ _______ _______ _____ _____    ______ ____
ROOT
ATOM     10  C   UNL     1      -1.218   3.147  25.434  0.00  0.00    +0.003 A 
ATOM     11  C   UNL     1      -1.532   2.603  24.899  0.00  0.00    +0.006 A 
ATOM     12  C   UNL     1      -1.378   1.799  24.990  0.00  0.00    +0.069 A 
ATOM     13  C   UNL     1      -0.908   1.536  25.616  0.00  0.00    +0.078 A 
ATOM     14  N   UNL     1      -0.688   0.765  25.806  0.00  0.00    -0.178 NA
ATOM     15  C   UNL     1      -0.882   0.064  25.417  0.00  0.00    +0.265 C 
ATOM     16  O   UNL     1      -0.573  -0.626  25.747  0.00  0.00    -0.271 OA
ATOM     17  C   UNL     1      -1.345  -0.039  24.742  0.00  0.00    +0.174 C 
ATOM     18  C   UNL     1      -1.499  -0.775  24.404  0.00  0.00    +0.124 C 
ATOM     19  C   UNL     1      -1.977  -0.657  23.743  0.00  0.00    +0.045 C 
ATOM     20  C   UNL     1      -2.118   0.153  23.671  0.00  0.00    +0.096 C 
ATOM     21  N   UNL     1      -1.727   0.535  24.289  0.00  0.00    -0.268 N 
ATOM     22  C   UNL     1      -1.742   1.353  24.399  0.00  0.00    +0.251 C 
ATOM     23  O   UNL     1      -2.179   1.781  23.846  0.00  0.00    -0.270 OA
ATOM     32  C   UNL     1      -0.594   2.080  26.151  0.00  0.00    +0.017 A 
ATOM     33  C   UNL     1      -0.749   2.886  26.060  0.00  0.00    +0.001 A 
ENDROOT
BRANCH  10   4
ATOM      3  C   UNL     1      -2.068   4.276  25.647  0.00  0.00    +0.139 A 
ATOM      4  C   UNL     1      -1.373   3.952  25.343  0.00  0.00    +0.035 A 
ATOM      5  C   UNL     1      -0.832   4.433  24.948  0.00  0.00    +0.014 A 
ATOM      6  C   UNL     1      -0.987   5.239  24.856  0.00  0.00    +0.058 A 
ATOM      7 CL   UNL     1      -0.447   5.720  24.461  0.00  0.00    -0.082 Cl
ATOM      8  C   UNL     1      -1.682   5.563  25.159  0.00  0.00    +0.015 A 
ATOM      9  C   UNL     1      -2.223   5.081  25.555  0.00  0.00    +0.038 A 
BRANCH   3   2
ATOM      1  C   UNL     1      -3.308   4.116  26.339  0.00  0.00    +0.252 C 
ATOM      2  O   UNL     1      -2.610   3.794  26.042  0.00  0.00    -0.471 OA
ENDBRANCH   3   2
ENDBRANCH  10   4
BRANCH  18  24
ATOM     24  N   UNL     1      -1.224  -1.502  24.679  0.00  0.00    -0.205 NA
ATOM     25  C   UNL     1      -1.726  -2.157  24.691  0.00  0.00    +0.242 C 
ATOM     26  O   UNL     1      -1.450  -2.884  24.966  0.00  0.00    -0.273 OA
BRANCH  25  27
ATOM     27  C   UNL     1      -2.504  -2.083  24.426  0.00  0.00    +0.099 C 
BRANCH  27  28
ATOM     28  C   UNL     1      -3.024  -2.721  24.494  0.00  0.00    +0.124 C 
BRANCH  28  29
ATOM     29  C   UNL     1      -3.831  -2.611  24.357  0.00  0.00    +0.365 C 
ATOM     30  O   UNL     1      -4.296  -2.232  24.922  0.00  0.00    -0.246 OA
ATOM     31  O   UNL     1      -4.170  -2.880  23.655  0.00  0.00    -0.246 OA
ENDBRANCH  28  29
ENDBRANCH  27  28
ENDBRANCH  25  27
ENDBRANCH  18  24
TORSDOF 6
ENDMDL
MODEL 3
REMARK VINA RESULT:      -9.7      2.587      3.762
REMARK  Name = 
REMARK  6 active torsions:
REMARK  status: ('A' for Active; 'I' for Inactive)
REMARK    1  A    between atoms: O_2  and  C_3
REMARK    2  A    between atoms: C_4  and  C_10
REMARK    3  A    between atoms: C_18  and  N_24
REMARK    4  A    between atoms: C_25  and  C_27
REMARK    5  A    between atoms: C_27  and  C_28
REMARK    6  A    between atoms: C_28  and  C_29
REMARK                            x       y       z     vdW  Elec       q    Type
REMARK                         _______ _______ _______ _____ _____    ______ ____
ROOT
ATOM     10  C   UNL     1      -0.374   1.032  24.263  0.00  0.00    +0.003 A 
ATOM     11  C   UNL     1      -1.093   1.234  23.912  0.00  0.00    +0.006 A 
ATOM     12  C   UNL     1      -1.587   1.787  24.272  0.00  0.00    +0.069 A 
ATOM     13  C   UNL     1      -1.362   2.140  24.984  0.00  0.00    +0.078 A 
ATOM     14  N   UNL     1      -1.769   2.701  25.431  0.00  0.00    -0.178 NA
ATOM     15  C   UNL     1      -2.502   3.047  25.278  0.00  0.00    +0.265 C 
ATOM     16  O   UNL     1      -2.763   3.595  25.837  0.00  0.00    -0.271 OA
ATOM     17  C   UNL     1      -3.009   2.919  24.640  0.00  0.00    +0.174 C 
ATOM     18  C   UNL     1      -3.733   3.303  24.549  0.00  0.00    +0.124 C 
ATOM     19  C   UNL     1      -4.079   3.035  23.851  0.00  0.00    +0.045 C 
ATOM     20  C   UNL     1      -3.569   2.483  23.509  0.00  0.00    +0.096 C 
ATOM     21  N   UNL     1      -2.907   2.412  23.997  0.00  0.00    -0.268 N 
ATOM     22  C   UNL     1      -2.275   1.908  23.833  0.00  0.00    +0.251 C 
ATOM     23  O   UNL     1      -2.338   1.467  23.139  0.00  0.00    -0.270 OA
ATOM     32  C   UNL     1      -0.643   1.939  25.334  0.00  0.00    +0.017 A 
ATOM     33  C   UNL     1      -0.149   1.384  24.974  0.00  0.00    +0.001 A 
ENDROOT
BRANCH  10   4
ATOM      3  C   UNL     1       0.025  -0.325  24.063  0.00  0.00    +0.139 A 
ATOM      4  C   UNL     1       0.120   0.478  23.903  0.00  0.00    +0.035 A 
ATOM      5  C   UNL     1       0.709   0.728  23.383  0.00  0.00    +0.014 A 
ATOM      6  C   UNL     1       1.203   0.175  23.022  0.00  0.00    +0.058 A 
ATOM      7 CL   UNL     1       1.792   0.424  22.502  0.00  0.00    -0.082 Cl
ATOM      8  C   UNL     1       1.108  -0.629  23.181  0.00  0.00    +0.015 A 
ATOM      9  C   UNL     1       0.518  -0.879  23.702  0.00  0.00    +0.038 A 
BRANCH   3   2
ATOM      1  C   UNL     1      -0.645  -1.377  24.762  0.00  0.00    +0.252 C 
ATOM      2  O   UNL     1      -0.565  -0.576  24.583  0.00  0.00    -0.471 OA
ENDBRANCH   3   2
ENDBRANCH  10   4
BRANCH  18  24
ATOM     24  N   UNL     1      -4.054   3.860  25.067  0.00  0.00    -0.205 NA
ATOM     25  C   UNL     1      -4.802   3.737  25.392  0.00  0.00    +0.242 C 
ATOM     26  O   UNL     1      -5.123   4.293  25.910  0.00  0.00    -0.273 OA
BRANCH  25  27
ATOM     27  C   UNL     1      -5.229   3.057  25.200  0.00  0.00    +0.099 C 
BRANCH  27  28
ATOM     28  C   UNL     1      -5.934   2.888  25.593  0.00  0.00    +0.124 C 
BRANCH  28  29
ATOM     29  C   UNL     1      -6.249   2.126  25.565  0.00  0.00    +0.365 C 
ATOM     30  O   UNL     1      -6.109   1.599  26.184  0.00  0.00    -0.246 OA
ATOM     31  O   UNL     1      -6.704   1.891  24.918  0.00  0.00    -0.246 OA
ENDBRANCH  28  29
ENDBRANCH  27  28
ENDBRANCH  25  27
ENDBRANCH  18  24
TORSDOF 6
ENDMDL
MODEL 4
REMARK VINA RESULT:      -9.3      2.087      5.675
REMARK  Name = 
REMARK  6 active torsions:
REMARK  status: ('A' for Active; 'I' for Inactive)
REMARK    1  A    between atoms: O_2  and  C_3
REMARK    2  A    between atoms: C_4  and  C_10
REMARK    3  A    between atoms: C_18  and  N_24
REMARK    4  A    between atoms: C_25  and  C_27
REMARK    5  A    between atoms: C_27  and  C_28
REMARK    6  A    between atoms: C_28  and  C_29
REMARK                            x       y       z     vdW  Elec       q    Type
REMARK                         _______ _______ _______ _____ _____    ______ ____
ROOT
ATOM     10  C   UNL     1      -2.555   3.161  24.625  0.00  0.00    +0.003 A 
ATOM     11  C   UNL     1      -2.383   2.448  25.004  0.00  0.00    +0.006 A 
ATOM     12  C   UNL     1      -2.808   1.768  24.815  0.00  0.00    +0.069 A 
ATOM     13  C   UNL     1      -3.405   1.798  24.246  0.00  0.00    +0.078 A 
ATOM     14  N   UNL     1      -3.891   1.188  23.978  0.00  0.00    -0.178 NA
ATOM     15  C   UNL     1      -3.900   0.397  24.211  0.00  0.00    +0.265 C 
ATOM     16  O   UNL     1      -4.458  -0.080  23.835  0.00  0.00    -0.271 OA
ATOM     17  C   UNL     1      -3.426   0.020  24.771  0.00  0.00    +0.174 C 
ATOM     18  C   UNL     1      -3.490  -0.781  24.956  0.00  0.00    +0.124 C 
ATOM     19  C   UNL     1      -2.930  -0.955  25.535  0.00  0.00    +0.045 C 
ATOM     20  C   UNL     1      -2.518  -0.261  25.708  0.00  0.00    +0.096 C 
ATOM     21  N   UNL     1      -2.825   0.342  25.235  0.00  0.00    -0.268 N 
ATOM     22  C   UNL     1      -2.550   1.119  25.256  0.00  0.00    +0.251 C 
ATOM     23  O   UNL     1      -1.935   1.268  25.785  0.00  0.00    -0.270 OA
ATOM     32  C   UNL     1      -3.577   2.510  23.868  0.00  0.00    +0.017 A 
ATOM     33  C   UNL     1      -3.152   3.192  24.057  0.00  0.00    +0.001 A 
ENDROOT
BRANCH  10   4
ATOM      3  C   UNL     1      -2.425   4.370  25.376  0.00  0.00    +0.139 A 
ATOM      4  C   UNL     1      -2.130   3.842  24.815  0.00  0.00    +0.035 A 
ATOM      5  C   UNL     1      -1.411   3.995  24.442  0.00  0.00    +0.014 A 
ATOM      6  C   UNL     1      -0.985   4.677  24.632  0.00  0.00    +0.058 A 
ATOM      7 CL   UNL     1      -0.265   4.831  24.260  0.00  0.00    -0.082 Cl
ATOM      8  C   UNL     1      -1.279   5.205  25.193  0.00  0.00    +0.015 A 
ATOM      9  C   UNL     1      -2.000   5.051  25.566  0.00  0.00    +0.038 A 
BRANCH   3   2
ATOM      1  C   UNL     1      -3.373   4.661  26.405  0.00  0.00    +0.252 C 
ATOM      2  O   UNL     1      -3.145   4.217  25.749  0.00  0.00    -0.471 OA
ENDBRANCH   3   2
ENDBRANCH  10   4
BRANCH  18  24
ATOM     24  N   UNL     1      -4.023  -1.315  24.621  0.00  0.00    -0.205 NA
ATOM     25  C   UNL     1      -3.772  -2.073  24.415  0.00  0.00    +0.242 C 
ATOM     26  O   UNL     1      -4.305  -2.607  24.080  0.00  0.00    -0.273 OA
BRANCH  25  27
ATOM     27  C   UNL     1      -2.989  -2.298  24.546  0.00  0.00    +0.099 C 
BRANCH  27  28
ATOM     28  C   UNL     1      -2.707  -3.008  24.234  0.00  0.00    +0.124 C 
BRANCH  28  29
ATOM     29  C   UNL     1      -1.894  -3.143  24.186  0.00  0.00    +0.365 C 
ATOM     30  O   UNL     1      -1.462  -3.302  24.871  0.00  0.00    -0.246 OA
ATOM     31  O   UNL     1      -1.514  -3.119  23.454  0.00  0.00    -0.246 OA
ENDBRANCH  28  29
ENDBRANCH  27  28
ENDBRANCH  25  27
ENDBRANCH  18  24
TORSDOF 6
ENDMDL
MODEL 5
REMARK VINA RESULT:      -8.6      1.568      2.368
REMARK  Name = 
REMARK  6 active torsions:
REMARK  status: ('A' for Active; 'I' for Inactive)
REMARK    1  A    between atoms: O_2  and  C_3
REMARK    2  A    between atoms: C_4  and  C_10
REMARK    3  A    between atoms: C_18  and  N_24
REMARK    4  A    between atoms: C_25  and  C_27
REMARK    5  A    between atoms: C_27  and  C_28
REMARK    6  A    between atoms: C_28  and  C_29
REMARK                            x       y       z     vdW  Elec       q    Type
REMARK                         _______ _______ _______ _____ _____    ______ ____
ROOT
ATOM     10  C   UNL     1      -1.972  -1.138  24.835  0.00  0.00    +0.003 A 
ATOM     11  C   UNL     1      -2.201  -0.423  24.491  0.00  0.00    +0.006 A 
ATOM     12  C   UNL     1      -1.702   0.232  24.530  0.00  0.00    +0.069 A 
ATOM     13  C   UNL     1      -0.973   0.174  24.913  0.00  0.00    +0.078 A 
ATOM     14  N   UNL     1      -0.398   0.756  25.014  0.00  0.00    -0.178 NA
ATOM     15  C   UNL     1      -0.408   1.540  24.757  0.00  0.00    +0.265 C 
ATOM     16  O   UNL     1       0.259   1.988  24.947  0.00  0.00    -0.271 OA
ATOM     17  C   UNL     1      -0.997   1.937  24.336  0.00  0.00    +0.174 C 
ATOM     18  C   UNL     1      -0.941   2.727  24.111  0.00  0.00    +0.124 C 
ATOM     19  C   UNL     1      -1.629   2.926  23.703  0.00  0.00    +0.045 C 
ATOM     20  C   UNL     1      -2.111   2.257  23.676  0.00  0.00    +0.096 C 
ATOM     21  N   UNL     1      -1.721   1.645  24.068  0.00  0.00    -0.268 N 
ATOM     22  C   UNL     1      -2.035   0.887  24.154  0.00  0.00    +0.251 C 
ATOM     23  O   UNL     1      -2.780   0.768  23.820  0.00  0.00    -0.270 OA
ATOM     32  C   UNL     1      -0.745  -0.540  25.256  0.00  0.00    +0.017 A 
ATOM     33  C   UNL     1      -1.243  -1.196  25.218  0.00  0.00    +0.001 A 
ENDROOT
BRANCH  10   4
ATOM      3  C   UNL     1      -3.077  -1.884  25.348  0.00  0.00    +0.139 A 
ATOM      4  C   UNL     1      -2.471  -1.793  24.796  0.00  0.00    +0.035 A 
ATOM      5  C   UNL     1      -2.363  -2.357  24.205  0.00  0.00    +0.014 A 
ATOM      6  C   UNL     1      -2.862  -3.014  24.164  0.00  0.00    +0.058 A 
ATOM      7 CL   UNL     1      -2.756  -3.579  23.573  0.00  0.00    -0.082 Cl
ATOM      8  C   UNL     1      -3.469  -3.105  24.716  0.00  0.00    +0.015 A 
ATOM      9  C   UNL     1      -3.576  -2.539  25.308  0.00  0.00    +0.038 A 
BRANCH   3   2
ATOM      1  C   UNL     1      -3.802  -1.400  26.481  0.00  0.00    +0.252 C 
ATOM      2  O   UNL     1      -3.185  -1.319  25.940  0.00  0.00    -0.471 OA
ENDBRANCH   3   2
ENDBRANCH  10   4
BRANCH  18  24
ATOM     24  N   UNL     1      -0.307   3.232  24.266  0.00  0.00    -0.205 NA
ATOM     25  C   UNL     1      -0.441   3.971  24.607  0.00  0.00    +0.242 C 
ATOM     26  O   UNL     1       0.194   4.475  24.762  0.00  0.00    -0.273 OA
BRANCH  25  27
ATOM     27  C   UNL     1      -1.210   4.205  24.793  0.00  0.00    +0.099 C 
BRANCH  27  28
ATOM     28  C   UNL     1      -1.335   4.877  25.254  0.00  0.00    +0.124 C 
BRANCH  28  29
ATOM     29  C   UNL     1      -2.105   5.132  25.411  0.00  0.00    +0.365 C 
ATOM     30  O   UNL     1      -2.425   5.763  24.988  0.00  0.00    -0.246 OA
ATOM     31  O   UNL     1      -2.554   4.754  25.992  0.00  0.00    -0.246 OA
ENDBRANCH  28  29
ENDBRANCH  27  28
ENDBRANCH  25  27
ENDBRANCH  18  24
TORSDOF 6
ENDMDL
