MODEL 1
REMARK VINA RESULT:     -11.1      0.000      0.000
REMARK  Name = 
REMARK  3 active torsions:
REMARK  status: ('A' for Active; 'I' for Inactive)
REMARK    1  A    between atoms: C_5  and  C_8
REMARK    2  A    between atoms: C_15  and  O_17
REMARK    3  A    between atoms: O_17  and  C_18
REMARK                            x       y       z     vdW  Elec       q    Type
REMARK                         _______ _______ _______ _____ _____    ______ ____
ROOT
ATOM      8  C   UNL     1      -3.962   0.106  24.613  0.00  0.00    +0.249 C 
ATOM      9  O   UNL     1      -4.701   0.446  24.752  0.00  0.00    -0.270 OA
ATOM     10  N   UNL     1      -3.319   0.584  24.416  0.00  0.00    -0.270 N 
ATOM     11  C   UNL     1      -2.605   0.189  24.289  0.00  0.00    +0.126 C 
ATOM     12  C   UNL     1      -1.872   0.506  24.087  0.00  0.00    +0.164 C 
ATOM     13  O   UNL     1      -1.669   1.296  23.961  0.00  0.00    -0.348 OA
ATOM     14  C   UNL     1      -2.151   1.963  24.008  0.00  0.00    +0.187 C 
ATOM     15  C   UNL     1      -2.954   2.006  24.191  0.00  0.00    +0.217 C 
ATOM     16  C   UNL     1      -3.473   1.392  24.373  0.00  0.00    +0.140 C 
ENDROOT
BRANCH   8   5
ATOM      1  F   UNL     1      -3.579  -3.164  24.846  0.00  0.00    -0.204 F 
ATOM      2  C   UNL     1      -3.675  -2.346  24.788  0.00  0.00    +0.140 A 
ATOM      3  C   UNL     1      -3.512  -1.864  25.437  0.00  0.00    +0.030 A 
ATOM      4  C   UNL     1      -3.607  -1.048  25.379  0.00  0.00    +0.007 A 
ATOM      5  C   UNL     1      -3.866  -0.712  24.671  0.00  0.00    +0.054 A 
ATOM      6  C   UNL     1      -4.029  -1.194  24.021  0.00  0.00    +0.007 A 
ATOM      7  C   UNL     1      -3.933  -2.010  24.079  0.00  0.00    +0.030 A 
ENDBRANCH   8   5
BRANCH  15  17
ATOM     17  O   UNL     1      -3.281   2.765  24.193  0.00  0.00    -0.459 OA
BRANCH  17  18
ATOM     18  C   UNL     1      -3.117   3.282  24.813  0.00  0.00    +0.245 A 
ATOM     19  C   UNL     1      -2.448   3.765  24.782  0.00  0.00    +0.156 A 
ATOM     20  N   UNL     1      -2.284   4.283  25.403  0.00  0.00    -0.236 NA
ATOM     21  C   UNL     1      -2.788   4.318  26.055  0.00  0.00    +0.120 A 
ATOM     22  C   UNL     1      -3.457   3.836  26.087  0.00  0.00    +0.123 A 
ATOM     23  N   UNL     1      -3.621   3.318  25.465  0.00  0.00    -0.207 NA
ENDBRANCH  17  18
ENDBRANCH  15  17
TORSDOF 3
ENDMDL
MODEL 2
REMARK VINA RESULT:     -10.3      2.357      4.877
REMARK  Name = 
REMARK  3 active torsions:
REMARK  status: ('A' for Active; 'I' for Inactive)
REMARK    1  A    between atoms: C_5  and  C_8
REMARK    2  A    between atoms: C_15  and  O_17
REMARK    3  A    between atoms: O_17  and  C_18
REMARK                            x       y       z     vdW  Elec       q    Type
REMARK                         _______ _______ _______ _____ _____    ______ ____
ROOT
ATOM      8  C   UNL     1      -1.347   2.476  25.344  0.00  0.00    +0.249 C 
ATOM      9  O   UNL     1      -0.892   2.112  25.928  0.00  0.00    -0.270 OA
ATOM     10  N   UNL     1      -1.756   2.017  24.794  0.00  0.00    -0.270 N 
ATOM     11  C   UNL     1      -2.194   2.435  24.233  0.00  0.00    +0.126 C 
ATOM     12  C   UNL     1      -2.657   2.141  23.618  0.00  0.00    +0.164 C 
ATOM     13  O   UNL     1      -2.797   1.354  23.410  0.00  0.00    -0.348 OA
ATOM     14  C   UNL     1      -2.508   0.669  23.767  0.00  0.00    +0.187 C 
ATOM     15  C   UNL     1      -2.008   0.601  24.420  0.00  0.00    +0.217 C 
ATOM     16  C   UNL     1      -1.674   1.201  24.876  0.00  0.00    +0.140 C 
ENDROOT
BRANCH   8   5
ATOM      1  F   UNL     1      -1.530   5.768  25.207  0.00  0.00    -0.204 F 
ATOM      2  C   UNL     1      -1.484   4.945  25.241  0.00  0.00    +0.140 A 
ATOM      3  C   UNL     1      -2.069   4.515  25.632  0.00  0.00    +0.030 A 
ATOM      4  C   UNL     1      -2.024   3.693  25.666  0.00  0.00    +0.007 A 
ATOM      5  C   UNL     1      -1.393   3.299  25.309  0.00  0.00    +0.054 A 
ATOM      6  C   UNL     1      -0.807   3.729  24.918  0.00  0.00    +0.007 A 
ATOM      7  C   UNL     1      -0.852   4.551  24.884  0.00  0.00    +0.030 A 
ENDBRANCH   8   5
BRANCH  15  17
ATOM     17  O   UNL     1      -1.817  -0.170  24.645  0.00  0.00    -0.459 OA
BRANCH  17  18
ATOM     18  C   UNL     1      -2.414  -0.692  24.871  0.00  0.00    +0.245 A 
ATOM     19  C   UNL     1      -2.670  -1.277  24.347  0.00  0.00    +0.156 A 
ATOM     20  N   UNL     1      -3.268  -1.799  24.574  0.00  0.00    -0.236 NA
ATOM     21  C   UNL     1      -3.609  -1.737  25.323  0.00  0.00    +0.120 A 
ATOM     22  C   UNL     1      -3.352  -1.154  25.846  0.00  0.00    +0.123 A 
ATOM     23  N   UNL     1      -2.755  -0.631  25.619  0.00  0.00    -0.207 NA
ENDBRANCH  17  18
ENDBRANCH  15  17
TORSDOF 3
ENDMDL
