MODEL 1
REMARK VINA RESULT:     -11.0      0.000      0.000
REMARK  Name = 
REMARK  7 active torsions:
REMARK  status: ('A' for Active; 'I' for Inactive)
REMARK    1  A    between atoms: C_2  and  C_3
REMARK    2  A    between atoms: C_5  and  O_26
REMARK    3  A    between atoms: C_10  and  C_11
REMARK    4  A    between atoms: C_11  and  C_12
REMARK    5  A    between atoms: C_18  and  C_19
REMARK    6  A    between atoms: O_26  and  C_27
REMARK    7  A    between atoms: N_29  and  C_30
REMARK                            x       y       z     vdW  Elec       q    Type
REMARK                         _______ _______ _______ _____ _____    ______ ____
ROOT
ATOM      1  C   UNL     1      -3.039   3.191  24.047  0.00  0.00    +0.006 C 
ATOM      2  C   UNL     1      -3.327   2.455  24.283  0.00  0.00    +0.068 C 
ATOM      5  C   UNL     1      -2.517   2.305  24.303  0.00  0.00    +0.173 C 
ATOM      6  C   UNL     1      -2.240   1.559  24.524  0.00  0.00    +0.044 C 
ATOM      7  C   UNL     1      -2.775   0.964  24.724  0.00  0.00    +0.004 C 
ATOM      8  C   UNL     1      -3.585   1.113  24.703  0.00  0.00    +0.003 C 
ATOM      9  C   UNL     1      -3.309   0.369  24.923  0.00  0.00    +0.000 C 
ATOM     10  C   UNL     1      -4.121   0.518  24.903  0.00  0.00    +0.040 C 
ATOM     21  C   UNL     1      -4.931   0.668  24.883  0.00  0.00    +0.152 C 
ATOM     22  O   UNL     1      -5.466   0.073  25.082  0.00  0.00    -0.223 OA
ATOM     23  C   UNL     1      -5.207   1.414  24.662  0.00  0.00    +0.033 C 
ATOM     24  C   UNL     1      -4.673   2.009  24.462  0.00  0.00    +0.003 C 
ATOM     25  C   UNL     1      -3.861   1.860  24.482  0.00  0.00    +0.006 C 
ENDROOT
BRANCH   2   3
ATOM      3  C   UNL     1      -4.038   2.861  24.180  0.00  0.00    +0.185 C 
ATOM      4  O   UNL     1      -4.031   3.654  23.953  0.00  0.00    -0.220 OA
ENDBRANCH   2   3
BRANCH  10  11
ATOM     11  C   UNL     1      -3.844  -0.227  25.123  0.00  0.00    +0.088 C 
BRANCH  11  12
ATOM     12  C   UNL     1      -4.003  -0.883  24.649  0.00  0.00    +0.226 C 
ATOM     13  O   UNL     1      -4.411  -0.788  23.938  0.00  0.00    -0.275 OA
ATOM     14  N   UNL     1      -3.754  -1.633  24.885  0.00  0.00    -0.279 N 
ATOM     15  C   UNL     1      -3.343  -1.812  25.577  0.00  0.00    +0.093 C 
ATOM     16  C   UNL     1      -3.207  -2.626  25.590  0.00  0.00    +0.023 C 
ATOM     17  C   UNL     1      -3.534  -2.950  24.905  0.00  0.00    +0.024 C 
ATOM     18  C   UNL     1      -3.872  -2.336  24.469  0.00  0.00    +0.108 C 
BRANCH  18  19
ATOM     19  C   UNL     1      -4.260  -2.412  23.746  0.00  0.00    +0.202 C 
ATOM     20  O   UNL     1      -4.376  -3.161  23.416  0.00  0.00    -0.219 OA
ENDBRANCH  18  19
ENDBRANCH  11  12
ENDBRANCH  10  11
BRANCH   5  26
ATOM     26  O   UNL     1      -1.981   2.900  24.103  0.00  0.00    -0.437 OA
BRANCH  26  27
ATOM     27  C   UNL     1      -1.228   2.704  23.829  0.00  0.00    +0.425 C 
ATOM     28  O   UNL     1      -1.113   2.006  23.403  0.00  0.00    -0.224 OA
ATOM     29  N   UNL     1      -0.590   3.204  23.980  0.00  0.00    -0.142 NA
BRANCH  29  30
ATOM     30  C   UNL     1      -0.705   3.902  24.406  0.00  0.00    +0.077 A 
ATOM     31  C   UNL     1      -0.724   3.884  25.230  0.00  0.00    +0.017 A 
ATOM     32  C   UNL     1      -0.838   4.581  25.655  0.00  0.00    +0.001 A 
ATOM     33  C   UNL     1      -0.935   5.296  25.257  0.00  0.00    +0.000 A 
ATOM     34  C   UNL     1      -0.916   5.314  24.432  0.00  0.00    +0.001 A 
ATOM     35  C   UNL     1      -0.802   4.617  24.007  0.00  0.00    +0.017 A 
ENDBRANCH  29  30
ENDBRANCH  26  27
ENDBRANCH   5  26
TORSDOF 7
ENDMDL
MODEL 2
REMARK VINA RESULT:     -10.9      1.117      5.381
REMARK  Name = 
REMARK  7 active torsions:
REMARK  status: ('A' for Active; 'I' for Inactive)
REMARK    1  A    between atoms: C_2  and  C_3
REMARK    2  A    between atoms: C_5  and  O_26
REMARK    3  A    between atoms: C_10  and  C_11
REMARK    4  A    between atoms: C_11  and  C_12
REMARK    5  A    between atoms: C_18  and  C_19
REMARK    6  A    between atoms: O_26  and  C_27
REMARK    7  A    between atoms: N_29  and  C_30
REMARK                            x       y       z     vdW  Elec       q    Type
REMARK                         _______ _______ _______ _____ _____    ______ ____
ROOT
ATOM      1  C   UNL     1      -4.307  -0.200  24.991  0.00  0.00    +0.006 C 
ATOM      2  C   UNL     1      -3.967   0.530  24.815  0.00  0.00    +0.068 C 
ATOM      5  C   UNL     1      -3.289   0.095  24.990  0.00  0.00    +0.173 C 
ATOM      6  C   UNL     1      -2.546   0.455  24.950  0.00  0.00    +0.044 C 
ATOM      7  C   UNL     1      -2.483   1.248  24.735  0.00  0.00    +0.004 C 
ATOM      8  C   UNL     1      -3.161   1.683  24.560  0.00  0.00    +0.003 C 
ATOM      9  C   UNL     1      -2.420   2.041  24.520  0.00  0.00    +0.000 C 
ATOM     10  C   UNL     1      -3.098   2.477  24.345  0.00  0.00    +0.040 C 
ATOM     21  C   UNL     1      -3.776   2.912  24.170  0.00  0.00    +0.152 C 
ATOM     22  O   UNL     1      -3.714   3.706  23.955  0.00  0.00    -0.223 OA
ATOM     23  C   UNL     1      -4.519   2.553  24.210  0.00  0.00    +0.033 C 
ATOM     24  C   UNL     1      -4.582   1.759  24.425  0.00  0.00    +0.003 C 
ATOM     25  C   UNL     1      -3.904   1.324  24.600  0.00  0.00    +0.006 C 
ENDROOT
BRANCH   2   3
ATOM      3  C   UNL     1      -4.763   0.711  24.701  0.00  0.00    +0.185 C 
ATOM      4  O   UNL     1      -5.331   0.113  24.735  0.00  0.00    -0.220 OA
ENDBRANCH   2   3
BRANCH  10  11
ATOM     11  C   UNL     1      -2.357   2.836  24.305  0.00  0.00    +0.088 C 
BRANCH  11  12
ATOM     12  C   UNL     1      -2.227   3.560  24.679  0.00  0.00    +0.226 C 
ATOM     13  O   UNL     1      -2.831   3.908  25.122  0.00  0.00    -0.275 OA
ATOM     14  N   UNL     1      -1.497   3.935  24.610  0.00  0.00    -0.279 N 
ATOM     15  C   UNL     1      -0.846   3.655  24.188  0.00  0.00    +0.093 C 
ATOM     16  C   UNL     1      -0.234   4.204  24.269  0.00  0.00    +0.023 C 
ATOM     17  C   UNL     1      -0.508   4.823  24.740  0.00  0.00    +0.024 C 
ATOM     18  C   UNL     1      -1.288   4.657  24.951  0.00  0.00    +0.108 C 
BRANCH  18  19
ATOM     19  C   UNL     1      -1.775   5.129  25.421  0.00  0.00    +0.202 C 
ATOM     20  O   UNL     1      -1.667   5.949  25.433  0.00  0.00    -0.219 OA
ENDBRANCH  18  19
ENDBRANCH  11  12
ENDBRANCH  10  11
BRANCH   5  26
ATOM     26  O   UNL     1      -3.351  -0.699  25.206  0.00  0.00    -0.437 OA
BRANCH  26  27
ATOM     27  C   UNL     1      -2.860  -1.009  25.792  0.00  0.00    +0.425 C 
ATOM     28  O   UNL     1      -2.632  -0.537  26.431  0.00  0.00    -0.224 OA
ATOM     29  N   UNL     1      -2.596  -1.788  25.741  0.00  0.00    -0.142 NA
BRANCH  29  30
ATOM     30  C   UNL     1      -2.824  -2.259  25.103  0.00  0.00    +0.077 A 
ATOM     31  C   UNL     1      -2.319  -2.351  24.456  0.00  0.00    +0.017 A 
ATOM     32  C   UNL     1      -2.547  -2.821  23.819  0.00  0.00    +0.001 A 
ATOM     33  C   UNL     1      -3.279  -3.201  23.827  0.00  0.00    +0.000 A 
ATOM     34  C   UNL     1      -3.783  -3.109  24.473  0.00  0.00    +0.001 A 
ATOM     35  C   UNL     1      -3.556  -2.639  25.110  0.00  0.00    +0.017 A 
ENDBRANCH  29  30
ENDBRANCH  26  27
ENDBRANCH   5  26
TORSDOF 7
ENDMDL
MODEL 3
REMARK VINA RESULT:     -10.9      2.606      4.307
REMARK  Name = 
REMARK  7 active torsions:
REMARK  status: ('A' for Active; 'I' for Inactive)
REMARK    1  A    between atoms: C_2  and  C_3
REMARK    2  A    between atoms: C_5  and  O_26
REMARK    3  A    between atoms: C_10  and  C_11
REMARK    4  A    between atoms: C_11  and  C_12
REMARK    5  A    between atoms: C_18  and  C_19
REMARK    6  A    between atoms: O_26  and  C_27
REMARK    7  A    between atoms: N_29  and  C_30
REMARK                            x       y       z     vdW  Elec       q    Type
REMARK                         _______ _______ _______ _____ _____    ______ ____
ROOT
ATOM      1  C   UNL     1      -3.184   3.710  25.400  0.00  0.00    +0.006 C 
ATOM      2  C   UNL     1      -2.539   3.200  25.337  0.00  0.00    +0.068 C 
ATOM      5  C   UNL     1      -3.123   2.735  24.989  0.00  0.00    +0.173 C 
ATOM      6  C   UNL     1      -2.937   1.982  24.706  0.00  0.00    +0.044 C 
ATOM      7  C   UNL     1      -2.167   1.696  24.772  0.00  0.00    +0.004 C 
ATOM      8  C   UNL     1      -1.583   2.161  25.121  0.00  0.00    +0.003 C 
ATOM      9  C   UNL     1      -1.397   1.409  24.838  0.00  0.00    +0.000 C 
ATOM     10  C   UNL     1      -0.811   1.875  25.187  0.00  0.00    +0.040 C 
ATOM     21  C   UNL     1      -0.227   2.340  25.536  0.00  0.00    +0.152 C 
ATOM     22  O   UNL     1       0.544   2.054  25.603  0.00  0.00    -0.223 OA
ATOM     23  C   UNL     1      -0.413   3.093  25.819  0.00  0.00    +0.033 C 
ATOM     24  C   UNL     1      -1.184   3.380  25.753  0.00  0.00    +0.003 C 
ATOM     25  C   UNL     1      -1.769   2.914  25.404  0.00  0.00    +0.006 C 
ENDROOT
BRANCH   2   3
ATOM      3  C   UNL     1      -2.179   3.843  25.708  0.00  0.00    +0.185 C 
ATOM      4  O   UNL     1      -2.641   4.453  26.018  0.00  0.00    -0.220 OA
ENDBRANCH   2   3
BRANCH  10  11
ATOM     11  C   UNL     1      -0.625   1.122  24.905  0.00  0.00    +0.088 C 
BRANCH  11  12
ATOM     12  C   UNL     1      -0.030   1.028  24.341  0.00  0.00    +0.226 C 
ATOM     13  O   UNL     1       0.379   1.688  24.060  0.00  0.00    -0.275 OA
ATOM     14  N   UNL     1       0.156   0.277  24.059  0.00  0.00    -0.279 N 
ATOM     15  C   UNL     1      -0.203  -0.430  24.288  0.00  0.00    +0.093 C 
ATOM     16  C   UNL     1       0.154  -1.045  23.868  0.00  0.00    +0.023 C 
ATOM     17  C   UNL     1       0.733  -0.718  23.381  0.00  0.00    +0.024 C 
ATOM     18  C   UNL     1       0.735   0.099  23.498  0.00  0.00    +0.108 C 
BRANCH  18  19
ATOM     19  C   UNL     1       1.228   0.642  23.122  0.00  0.00    +0.202 C 
ATOM     20  O   UNL     1       1.889   0.378  22.702  0.00  0.00    -0.219 OA
ENDBRANCH  18  19
ENDBRANCH  11  12
ENDBRANCH  10  11
BRANCH   5  26
ATOM     26  O   UNL     1      -3.895   3.021  24.922  0.00  0.00    -0.437 OA
BRANCH  26  27
ATOM     27  C   UNL     1      -4.308   2.934  24.214  0.00  0.00    +0.425 C 
ATOM     28  O   UNL     1      -3.933   3.093  23.495  0.00  0.00    -0.224 OA
ATOM     29  N   UNL     1      -5.095   2.690  24.222  0.00  0.00    -0.142 NA
BRANCH  29  30
ATOM     30  C   UNL     1      -5.470   2.531  24.940  0.00  0.00    +0.077 A 
ATOM     31  C   UNL     1      -5.567   1.751  25.192  0.00  0.00    +0.017 A 
ATOM     32  C   UNL     1      -5.941   1.593  25.909  0.00  0.00    +0.001 A 
ATOM     33  C   UNL     1      -6.219   2.214  26.375  0.00  0.00    +0.000 A 
ATOM     34  C   UNL     1      -6.123   2.993  26.123  0.00  0.00    +0.001 A 
ATOM     35  C   UNL     1      -5.749   3.152  25.406  0.00  0.00    +0.017 A 
ENDBRANCH  29  30
ENDBRANCH  26  27
ENDBRANCH   5  26
TORSDOF 7
ENDMDL
MODEL 4
REMARK VINA RESULT:     -10.7      1.919      5.857
REMARK  Name = 
REMARK  7 active torsions:
REMARK  status: ('A' for Active; 'I' for Inactive)
REMARK    1  A    between atoms: C_2  and  C_3
REMARK    2  A    between atoms: C_5  and  O_26
REMARK    3  A    between atoms: C_10  and  C_11
REMARK    4  A    between atoms: C_11  and  C_12
REMARK    5  A    between atoms: C_18  and  C_19
REMARK    6  A    between atoms: O_26  and  C_27
REMARK    7  A    between atoms: N_29  and  C_30
REMARK                            x       y       z     vdW  Elec       q    Type
REMARK                         _______ _______ _______ _____ _____    ______ ____
ROOT
ATOM      1  C   UNL     1      -1.293  -1.154  24.616  0.00  0.00    +0.006 C 
ATOM      2  C   UNL     1      -1.098  -0.362  24.737  0.00  0.00    +0.068 C 
ATOM      5  C   UNL     1      -1.835  -0.386  25.107  0.00  0.00    +0.173 C 
ATOM      6  C   UNL     1      -2.144   0.296  25.455  0.00  0.00    +0.044 C 
ATOM      7  C   UNL     1      -1.716   1.000  25.433  0.00  0.00    +0.004 C 
ATOM      8  C   UNL     1      -0.980   1.024  25.064  0.00  0.00    +0.003 C 
ATOM      9  C   UNL     1      -1.289   1.704  25.411  0.00  0.00    +0.000 C 
ATOM     10  C   UNL     1      -0.551   1.729  25.042  0.00  0.00    +0.040 C 
ATOM     21  C   UNL     1       0.185   1.753  24.672  0.00  0.00    +0.152 C 
ATOM     22  O   UNL     1       0.614   2.458  24.650  0.00  0.00    -0.223 OA
ATOM     23  C   UNL     1       0.495   1.071  24.324  0.00  0.00    +0.033 C 
ATOM     24  C   UNL     1       0.067   0.367  24.346  0.00  0.00    +0.003 C 
ATOM     25  C   UNL     1      -0.670   0.342  24.715  0.00  0.00    +0.006 C 
ENDROOT
BRANCH   2   3
ATOM      3  C   UNL     1      -0.429  -0.614  24.326  0.00  0.00    +0.185 C 
ATOM      4  O   UNL     1      -0.403  -1.374  24.005  0.00  0.00    -0.220 OA
ENDBRANCH   2   3
BRANCH  10  11
ATOM     11  C   UNL     1      -0.861   2.410  25.390  0.00  0.00    +0.088 C 
BRANCH  11  12
ATOM     12  C   UNL     1      -0.787   3.138  25.009  0.00  0.00    +0.226 C 
ATOM     13  O   UNL     1      -0.265   3.221  24.375  0.00  0.00    -0.275 OA
ATOM     14  N   UNL     1      -1.233   3.783  25.262  0.00  0.00    -0.279 N 
ATOM     15  C   UNL     1      -1.774   3.784  25.884  0.00  0.00    +0.093 C 
ATOM     16  C   UNL     1      -2.094   4.543  25.944  0.00  0.00    +0.023 C 
ATOM     17  C   UNL     1      -1.749   5.011  25.358  0.00  0.00    +0.024 C 
ATOM     18  C   UNL     1      -1.218   4.541  24.936  0.00  0.00    +0.108 C 
BRANCH  18  19
ATOM     19  C   UNL     1      -0.752   4.786  24.301  0.00  0.00    +0.202 C 
ATOM     20  O   UNL     1      -0.567   5.586  24.210  0.00  0.00    -0.219 OA
ENDBRANCH  18  19
ENDBRANCH  11  12
ENDBRANCH  10  11
BRANCH   5  26
ATOM     26  O   UNL     1      -2.263  -1.091  25.129  0.00  0.00    -0.437 OA
BRANCH  26  27
ATOM     27  C   UNL     1      -2.690  -1.295  25.805  0.00  0.00    +0.425 C 
ATOM     28  O   UNL     1      -2.418  -1.063  26.550  0.00  0.00    -0.224 OA
ATOM     29  N   UNL     1      -3.386  -1.731  25.739  0.00  0.00    -0.142 NA
BRANCH  29  30
ATOM     30  C   UNL     1      -3.658  -1.963  24.995  0.00  0.00    +0.077 A 
ATOM     31  C   UNL     1      -4.123  -1.450  24.547  0.00  0.00    +0.017 A 
ATOM     32  C   UNL     1      -4.394  -1.682  23.804  0.00  0.00    +0.001 A 
ATOM     33  C   UNL     1      -4.201  -2.427  23.508  0.00  0.00    +0.000 A 
ATOM     34  C   UNL     1      -3.735  -2.940  23.956  0.00  0.00    +0.001 A 
ATOM     35  C   UNL     1      -3.464  -2.708  24.699  0.00  0.00    +0.017 A 
ENDBRANCH  29  30
ENDBRANCH  26  27
ENDBRANCH   5  26
TORSDOF 7
ENDMDL
MODEL 5
REMARK VINA RESULT:     -10.6      2.538      4.389
REMARK  Name = 
REMARK  7 active torsions:
REMARK  status: ('A' for Active; 'I' for Inactive)
REMARK    1  A    between atoms: C_2  and  C_3
REMARK    2  A    between atoms: C_5  and  O_26
REMARK    3  A    between atoms: C_10  and  C_11
REMARK    4  A    between atoms: C_11  and  C_12
REMARK    5  A    between atoms: C_18  and  C_19
REMARK    6  A    between atoms: O_26  and  C_27
REMARK    7  A    between atoms: N_29  and  C_30
REMARK                            x       y       z     vdW  Elec       q    Type
REMARK                         _______ _______ _______ _____ _____    ______ ____
ROOT
ATOM      1  C   UNL     1      -3.489   0.657  24.640  0.00  0.00    +0.006 C 
ATOM      2  C   UNL     1      -2.689   0.487  24.534  0.00  0.00    +0.068 C 
ATOM      5  C   UNL     1      -2.710   1.260  24.248  0.00  0.00    +0.173 C 
ATOM      6  C   UNL     1      -2.019   1.616  23.968  0.00  0.00    +0.044 C 
ATOM      7  C   UNL     1      -1.309   1.198  23.975  0.00  0.00    +0.004 C 
ATOM      8  C   UNL     1      -1.287   0.425  24.260  0.00  0.00    +0.003 C 
ATOM      9  C   UNL     1      -0.598   0.781  23.981  0.00  0.00    +0.000 C 
ATOM     10  C   UNL     1      -0.576   0.007  24.267  0.00  0.00    +0.040 C 
ATOM     21  C   UNL     1      -0.555  -0.766  24.552  0.00  0.00    +0.152 C 
ATOM     22  O   UNL     1       0.156  -1.185  24.559  0.00  0.00    -0.223 OA
ATOM     23  C   UNL     1      -1.246  -1.122  24.832  0.00  0.00    +0.033 C 
ATOM     24  C   UNL     1      -1.956  -0.705  24.826  0.00  0.00    +0.003 C 
ATOM     25  C   UNL     1      -1.978   0.069  24.540  0.00  0.00    +0.006 C 
ENDROOT
BRANCH   2   3
ATOM      3  C   UNL     1      -2.946  -0.227  24.856  0.00  0.00    +0.185 C 
ATOM      4  O   UNL     1      -3.728  -0.310  25.105  0.00  0.00    -0.220 OA
ENDBRANCH   2   3
BRANCH  10  11
ATOM     11  C   UNL     1       0.114   0.362  23.987  0.00  0.00    +0.088 C 
BRANCH  11  12
ATOM     12  C   UNL     1       0.499   0.054  23.326  0.00  0.00    +0.226 C 
ATOM     13  O   UNL     1       0.113  -0.493  22.843  0.00  0.00    -0.275 OA
ATOM     14  N   UNL     1       1.268   0.291  23.149  0.00  0.00    -0.279 N 
ATOM     15  C   UNL     1       1.720   0.830  23.579  0.00  0.00    +0.093 C 
ATOM     16  C   UNL     1       2.453   0.903  23.205  0.00  0.00    +0.023 C 
ATOM     17  C   UNL     1       2.453   0.409  22.544  0.00  0.00    +0.024 C 
ATOM     18  C   UNL     1       1.720   0.030  22.509  0.00  0.00    +0.108 C 
BRANCH  18  19
ATOM     19  C   UNL     1       1.482  -0.512  21.936  0.00  0.00    +0.202 C 
ATOM     20  O   UNL     1       1.817  -0.489  21.181  0.00  0.00    -0.219 OA
ENDBRANCH  18  19
ENDBRANCH  11  12
ENDBRANCH  10  11
BRANCH   5  26
ATOM     26  O   UNL     1      -3.421   1.679  24.242  0.00  0.00    -0.437 OA
BRANCH  26  27
ATOM     27  C   UNL     1      -3.591   2.196  23.622  0.00  0.00    +0.425 C 
ATOM     28  O   UNL     1      -3.261   2.068  22.876  0.00  0.00    -0.224 OA
ATOM     29  N   UNL     1      -4.091   2.840  23.746  0.00  0.00    -0.142 NA
BRANCH  29  30
ATOM     30  C   UNL     1      -4.421   2.968  24.491  0.00  0.00    +0.077 A 
ATOM     31  C   UNL     1      -4.030   3.443  25.041  0.00  0.00    +0.017 A 
ATOM     32  C   UNL     1      -4.360   3.570  25.785  0.00  0.00    +0.001 A 
ATOM     33  C   UNL     1      -5.081   3.223  25.982  0.00  0.00    +0.000 A 
ATOM     34  C   UNL     1      -5.473   2.748  25.433  0.00  0.00    +0.001 A 
ATOM     35  C   UNL     1      -5.143   2.620  24.688  0.00  0.00    +0.017 A 
ENDBRANCH  29  30
ENDBRANCH  26  27
ENDBRANCH   5  26
TORSDOF 7
ENDMDL
MODEL 6
REMARK VINA RESULT:     -10.4      1.982      2.808
REMARK  Name = 
REMARK  7 active torsions:
REMARK  status: ('A' for Active; 'I' for Inactive)
REMARK    1  A    between atoms: C_2  and  C_3
REMARK    2  A    between atoms: C_5  and  O_26
REMARK    3  A    between atoms: C_10  and  C_11
REMARK    4  A    between atoms: C_11  and  C_12
REMARK    5  A    between atoms: C_18  and  C_19
REMARK    6  A    between atoms: O_26  and  C_27
REMARK    7  A    between atoms: N_29  and  C_30
REMARK                            x       y       z     vdW  Elec       q    Type
REMARK                         _______ _______ _______ _____ _____    ______ ____
ROOT
ATOM      1  C   UNL     1       0.087   2.163  24.595  0.00  0.00    +0.006 C 
ATOM      2  C   UNL     1      -0.237   1.405  24.604  0.00  0.00    +0.068 C 
ATOM      5  C   UNL     1      -0.704   1.766  25.179  0.00  0.00    +0.173 C 
ATOM      6  C   UNL     1      -1.294   1.335  25.563  0.00  0.00    +0.044 C 
ATOM      7  C   UNL     1      -1.417   0.543  25.371  0.00  0.00    +0.004 C 
ATOM      8  C   UNL     1      -0.951   0.181  24.795  0.00  0.00    +0.003 C 
ATOM      9  C   UNL     1      -1.540  -0.249  25.178  0.00  0.00    +0.000 C 
ATOM     10  C   UNL     1      -1.074  -0.612  24.602  0.00  0.00    +0.040 C 
ATOM     21  C   UNL     1      -0.608  -0.973  24.026  0.00  0.00    +0.152 C 
ATOM     22  O   UNL     1      -0.730  -1.766  23.833  0.00  0.00    -0.223 OA
ATOM     23  C   UNL     1      -0.017  -0.542  23.642  0.00  0.00    +0.033 C 
ATOM     24  C   UNL     1       0.106   0.250  23.835  0.00  0.00    +0.003 C 
ATOM     25  C   UNL     1      -0.360   0.613  24.411  0.00  0.00    +0.006 C 
ENDROOT
BRANCH   2   3
ATOM      3  C   UNL     1       0.342   1.306  24.025  0.00  0.00    +0.185 C 
ATOM      4  O   UNL     1       0.853   1.928  23.843  0.00  0.00    -0.220 OA
ENDBRANCH   2   3
BRANCH  10  11
ATOM     11  C   UNL     1      -1.664  -1.043  24.985  0.00  0.00    +0.088 C 
BRANCH  11  12
ATOM     12  C   UNL     1      -2.325  -1.301  24.566  0.00  0.00    +0.226 C 
ATOM     13  O   UNL     1      -2.515  -0.953  23.841  0.00  0.00    -0.275 OA
ATOM     14  N   UNL     1      -2.797  -1.904  24.870  0.00  0.00    -0.279 N 
ATOM     15  C   UNL     1      -2.677  -2.301  25.582  0.00  0.00    +0.093 C 
ATOM     16  C   UNL     1      -3.278  -2.861  25.668  0.00  0.00    +0.023 C 
ATOM     17  C   UNL     1      -3.769  -2.809  25.007  0.00  0.00    +0.024 C 
ATOM     18  C   UNL     1      -3.472  -2.218  24.514  0.00  0.00    +0.108 C 
BRANCH  18  19
ATOM     19  C   UNL     1      -3.794  -1.982  23.792  0.00  0.00    +0.202 C 
ATOM     20  O   UNL     1      -4.481  -2.342  23.509  0.00  0.00    -0.219 OA
ENDBRANCH  18  19
ENDBRANCH  11  12
ENDBRANCH  10  11
BRANCH   5  26
ATOM     26  O   UNL     1      -0.581   2.559  25.373  0.00  0.00    -0.437 OA
BRANCH  26  27
ATOM     27  C   UNL     1      -0.584   2.798  26.162  0.00  0.00    +0.425 C 
ATOM     28  O   UNL     1      -0.248   2.313  26.741  0.00  0.00    -0.224 OA
ATOM     29  N   UNL     1      -0.922   3.519  26.375  0.00  0.00    -0.142 NA
BRANCH  29  30
ATOM     30  C   UNL     1      -1.258   4.003  25.797  0.00  0.00    +0.077 A 
ATOM     31  C   UNL     1      -2.069   3.973  25.653  0.00  0.00    +0.017 A 
ATOM     32  C   UNL     1      -2.404   4.457  25.076  0.00  0.00    +0.001 A 
ATOM     33  C   UNL     1      -1.928   4.971  24.641  0.00  0.00    +0.000 A 
ATOM     34  C   UNL     1      -1.117   5.001  24.784  0.00  0.00    +0.001 A 
ATOM     35  C   UNL     1      -0.782   4.517  25.361  0.00  0.00    +0.017 A 
ENDBRANCH  29  30
ENDBRANCH  26  27
ENDBRANCH   5  26
TORSDOF 7
ENDMDL
MODEL 7
REMARK VINA RESULT:      -9.8      3.233      4.115
REMARK  Name = 
REMARK  7 active torsions:
REMARK  status: ('A' for Active; 'I' for Inactive)
REMARK    1  A    between atoms: C_2  and  C_3
REMARK    2  A    between atoms: C_5  and  O_26
REMARK    3  A    between atoms: C_10  and  C_11
REMARK    4  A    between atoms: C_11  and  C_12
REMARK    5  A    between atoms: C_18  and  C_19
REMARK    6  A    between atoms: O_26  and  C_27
REMARK    7  A    between atoms: N_29  and  C_30
REMARK                            x       y       z     vdW  Elec       q    Type
REMARK                         _______ _______ _______ _____ _____    ______ ____
ROOT
ATOM      1  C   UNL     1       1.222   1.253  23.639  0.00  0.00    +0.006 C 
ATOM      2  C   UNL     1       0.566   0.866  23.956  0.00  0.00    +0.068 C 
ATOM      5  C   UNL     1       0.892   0.254  23.510  0.00  0.00    +0.173 C 
ATOM      6  C   UNL     1       0.527  -0.487  23.498  0.00  0.00    +0.044 C 
ATOM      7  C   UNL     1      -0.162  -0.615  23.932  0.00  0.00    +0.004 C 
ATOM      8  C   UNL     1      -0.487  -0.003  24.378  0.00  0.00    +0.003 C 
ATOM      9  C   UNL     1      -0.851  -0.742  24.366  0.00  0.00    +0.000 C 
ATOM     10  C   UNL     1      -1.177  -0.130  24.813  0.00  0.00    +0.040 C 
ATOM     21  C   UNL     1      -1.503   0.482  25.259  0.00  0.00    +0.152 C 
ATOM     22  O   UNL     1      -2.193   0.355  25.694  0.00  0.00    -0.223 OA
ATOM     23  C   UNL     1      -1.138   1.223  25.271  0.00  0.00    +0.033 C 
ATOM     24  C   UNL     1      -0.449   1.351  24.837  0.00  0.00    +0.003 C 
ATOM     25  C   UNL     1      -0.123   0.738  24.390  0.00  0.00    +0.006 C 
ENDROOT
BRANCH   2   3
ATOM      3  C   UNL     1       0.469   1.613  24.292  0.00  0.00    +0.185 C 
ATOM      4  O   UNL     1       1.041   2.196  24.175  0.00  0.00    -0.220 OA
ENDBRANCH   2   3
BRANCH  10  11
ATOM     11  C   UNL     1      -1.541  -0.870  24.800  0.00  0.00    +0.088 C 
BRANCH  11  12
ATOM     12  C   UNL     1      -2.326  -0.940  24.555  0.00  0.00    +0.226 C 
ATOM     13  O   UNL     1      -2.716  -0.289  24.231  0.00  0.00    -0.275 OA
ATOM     14  N   UNL     1      -2.720  -1.660  24.634  0.00  0.00    -0.279 N 
ATOM     15  C   UNL     1      -2.403  -2.355  24.946  0.00  0.00    +0.093 C 
ATOM     16  C   UNL     1      -2.988  -2.936  24.920  0.00  0.00    +0.023 C 
ATOM     17  C   UNL     1      -3.666  -2.601  24.591  0.00  0.00    +0.024 C 
ATOM     18  C   UNL     1      -3.501  -1.812  24.414  0.00  0.00    +0.108 C 
BRANCH  18  19
ATOM     19  C   UNL     1      -4.024  -1.271  24.078  0.00  0.00    +0.202 C 
ATOM     20  O   UNL     1      -4.778  -1.515  23.845  0.00  0.00    -0.219 OA
ENDBRANCH  18  19
ENDBRANCH  11  12
ENDBRANCH  10  11
BRANCH   5  26
ATOM     26  O   UNL     1       1.581   0.381  23.075  0.00  0.00    -0.437 OA
BRANCH  26  27
ATOM     27  C   UNL     1       1.674   0.031  22.334  0.00  0.00    +0.425 C 
ATOM     28  O   UNL     1       1.009  -0.174  21.889  0.00  0.00    -0.224 OA
ATOM     29  N   UNL     1       2.429  -0.114  22.036  0.00  0.00    -0.142 NA
BRANCH  29  30
ATOM     30  C   UNL     1       3.093   0.090  22.481  0.00  0.00    +0.077 A 
ATOM     31  C   UNL     1       3.432   0.838  22.396  0.00  0.00    +0.017 A 
ATOM     32  C   UNL     1       4.095   1.042  22.840  0.00  0.00    +0.001 A 
ATOM     33  C   UNL     1       4.422   0.500  23.369  0.00  0.00    +0.000 A 
ATOM     34  C   UNL     1       4.083  -0.247  23.454  0.00  0.00    +0.001 A 
ATOM     35  C   UNL     1       3.419  -0.452  23.010  0.00  0.00    +0.017 A 
ENDBRANCH  29  30
ENDBRANCH  26  27
ENDBRANCH   5  26
TORSDOF 7
ENDMDL
MODEL 8
REMARK VINA RESULT:      -9.5      2.480      4.234
REMARK  Name = 
REMARK  7 active torsions:
REMARK  status: ('A' for Active; 'I' for Inactive)
REMARK    1  A    between atoms: C_2  and  C_3
REMARK    2  A    between atoms: C_5  and  O_26
REMARK    3  A    between atoms: C_10  and  C_11
REMARK    4  A    between atoms: C_11  and  C_12
REMARK    5  A    between atoms: C_18  and  C_19
REMARK    6  A    between atoms: O_26  and  C_27
REMARK    7  A    between atoms: N_29  and  C_30
REMARK                            x       y       z     vdW  Elec       q    Type
REMARK                         _______ _______ _______ _____ _____    ______ ____
ROOT
ATOM      1  C   UNL     1       0.028   1.724  24.814  0.00  0.00    +0.006 C 
ATOM      2  C   UNL     1      -0.739   2.027  24.821  0.00  0.00    +0.068 C 
ATOM      5  C   UNL     1      -0.888   1.266  24.540  0.00  0.00    +0.173 C 
ATOM      6  C   UNL     1      -1.661   1.035  24.362  0.00  0.00    +0.044 C 
ATOM      7  C   UNL     1      -2.283   1.566  24.465  0.00  0.00    +0.004 C 
ATOM      8  C   UNL     1      -2.135   2.326  24.746  0.00  0.00    +0.003 C 
ATOM      9  C   UNL     1      -2.906   2.096  24.568  0.00  0.00    +0.000 C 
ATOM     10  C   UNL     1      -2.757   2.858  24.849  0.00  0.00    +0.040 C 
ATOM     21  C   UNL     1      -2.609   3.619  25.130  0.00  0.00    +0.152 C 
ATOM     22  O   UNL     1      -3.232   4.150  25.233  0.00  0.00    -0.223 OA
ATOM     23  C   UNL     1      -1.836   3.849  25.308  0.00  0.00    +0.033 C 
ATOM     24  C   UNL     1      -1.213   3.319  25.205  0.00  0.00    +0.003 C 
ATOM     25  C   UNL     1      -1.362   2.557  24.924  0.00  0.00    +0.006 C 
ENDROOT
BRANCH   2   3
ATOM      3  C   UNL     1      -0.324   2.682  25.099  0.00  0.00    +0.185 C 
ATOM      4  O   UNL     1       0.490   2.631  25.228  0.00  0.00    -0.220 OA
ENDBRANCH   2   3
BRANCH  10  11
ATOM     11  C   UNL     1      -3.529   2.628  24.671  0.00  0.00    +0.088 C 
BRANCH  11  12
ATOM     12  C   UNL     1      -4.120   2.684  25.245  0.00  0.00    +0.226 C 
ATOM     13  O   UNL     1      -3.950   3.022  25.979  0.00  0.00    -0.275 OA
ATOM     14  N   UNL     1      -4.878   2.403  25.085  0.00  0.00    -0.279 N 
ATOM     15  C   UNL     1      -5.127   2.053  24.381  0.00  0.00    +0.093 C 
ATOM     16  C   UNL     1      -5.925   1.856  24.463  0.00  0.00    +0.023 C 
ATOM     17  C   UNL     1      -6.168   2.084  25.218  0.00  0.00    +0.024 C 
ATOM     18  C   UNL     1      -5.521   2.422  25.603  0.00  0.00    +0.108 C 
BRANCH  18  19
ATOM     19  C   UNL     1      -5.517   2.725  26.369  0.00  0.00    +0.202 C 
ATOM     20  O   UNL     1      -6.173   2.616  26.859  0.00  0.00    -0.219 OA
ENDBRANCH  18  19
ENDBRANCH  11  12
ENDBRANCH  10  11
BRANCH   5  26
ATOM     26  O   UNL     1      -0.265   0.734  24.436  0.00  0.00    -0.437 OA
BRANCH  26  27
ATOM     27  C   UNL     1      -0.367  -0.063  24.622  0.00  0.00    +0.425 C 
ATOM     28  O   UNL     1      -0.867  -0.282  25.242  0.00  0.00    -0.224 OA
ATOM     29  N   UNL     1       0.030  -0.642  24.189  0.00  0.00    -0.142 NA
BRANCH  29  30
ATOM     30  C   UNL     1       0.530  -0.423  23.570  0.00  0.00    +0.077 A 
ATOM     31  C   UNL     1       1.321  -0.247  23.720  0.00  0.00    +0.017 A 
ATOM     32  C   UNL     1       1.820  -0.029  23.102  0.00  0.00    +0.001 A 
ATOM     33  C   UNL     1       1.528   0.014  22.331  0.00  0.00    +0.000 A 
ATOM     34  C   UNL     1       0.737  -0.163  22.181  0.00  0.00    +0.001 A 
ATOM     35  C   UNL     1       0.238  -0.381  22.800  0.00  0.00    +0.017 A 
ENDBRANCH  29  30
ENDBRANCH  26  27
ENDBRANCH   5  26
TORSDOF 7
ENDMDL
