MODEL 1
REMARK VINA RESULT:     -10.2      0.000      0.000
REMARK  Name = 
REMARK  6 active torsions:
REMARK  status: ('A' for Active; 'I' for Inactive)
REMARK    1  A    between atoms: C_5  and  S_8
REMARK    2  A    between atoms: S_8  and  N_11
REMARK    3  A    between atoms: N_11  and  C_12
REMARK    4  A    between atoms: C_12  and  C_13
REMARK    5  A    between atoms: C_16  and  N_17
REMARK    6  A    between atoms: N_17  and  C_18
REMARK                            x       y       z     vdW  Elec       q    Type
REMARK                         _______ _______ _______ _____ _____    ______ ____
ROOT
ATOM     12  C   UNL     1      -2.572   1.158  24.799  0.00  0.00    +0.148 C 
ENDROOT
BRANCH  12  13
ATOM     13  C   UNL     1      -2.453   1.961  24.948  0.00  0.00    +0.166 C 
ATOM     14  O   UNL     1      -2.985   2.569  24.780  0.00  0.00    -0.350 OA
ATOM     15  C   UNL     1      -2.642   3.281  25.019  0.00  0.00    +0.162 C 
ATOM     16  C   UNL     1      -1.899   3.113  25.335  0.00  0.00    +0.135 C 
ATOM     22  C   UNL     1      -1.782   2.297  25.291  0.00  0.00    +0.199 C 
ATOM     23  O   UNL     1      -1.112   1.887  25.545  0.00  0.00    -0.219 OA
BRANCH  16  17
ATOM     17  N   UNL     1      -1.365   3.662  25.641  0.00  0.00    -0.216 NA
BRANCH  17  18
ATOM     18  C   UNL     1      -1.304   4.412  25.302  0.00  0.00    +0.073 C 
ATOM     19  C   UNL     1      -0.770   4.780  24.794  0.00  0.00    +0.017 C 
ATOM     20  C   UNL     1      -1.218   5.472  24.823  0.00  0.00    +0.003 C 
ATOM     21  C   UNL     1      -1.753   5.103  25.332  0.00  0.00    +0.017 C 
ENDBRANCH  17  18
ENDBRANCH  16  17
ENDBRANCH  12  13
BRANCH  12  11
ATOM     11  N   UNL     1      -3.339   0.857  24.749  0.00  0.00    -0.075 NA
BRANCH  11   8
ATOM      8  S   UNL     1      -3.458   0.048  24.646  0.00  0.00    +0.077 S 
ATOM      9  O   UNL     1      -3.847   0.013  25.372  0.00  0.00    -0.152 OA
ATOM     10  O   UNL     1      -3.068   0.082  23.919  0.00  0.00    -0.152 OA
BRANCH   8   5
ATOM      1  C   UNL     1      -3.936  -3.191  24.235  0.00  0.00    +0.031 C 
ATOM      2  C   UNL     1      -3.817  -2.382  24.337  0.00  0.00    -0.022 A 
ATOM      3  C   UNL     1      -3.298  -2.112  24.919  0.00  0.00    -0.003 A 
ATOM      4  C   UNL     1      -3.178  -1.302  25.022  0.00  0.00    +0.020 A 
ATOM      5  C   UNL     1      -3.577  -0.762  24.543  0.00  0.00    +0.124 A 
ATOM      6  C   UNL     1      -4.097  -1.032  23.962  0.00  0.00    +0.020 A 
ATOM      7  C   UNL     1      -4.216  -1.842  23.859  0.00  0.00    -0.003 A 
ENDBRANCH   8   5
ENDBRANCH  11   8
ENDBRANCH  12  11
TORSDOF 6
ENDMDL
MODEL 2
REMARK VINA RESULT:      -9.9      1.106      5.537
REMARK  Name = 
REMARK  6 active torsions:
REMARK  status: ('A' for Active; 'I' for Inactive)
REMARK    1  A    between atoms: C_5  and  S_8
REMARK    2  A    between atoms: S_8  and  N_11
REMARK    3  A    between atoms: N_11  and  C_12
REMARK    4  A    between atoms: C_12  and  C_13
REMARK    5  A    between atoms: C_16  and  N_17
REMARK    6  A    between atoms: N_17  and  C_18
REMARK                            x       y       z     vdW  Elec       q    Type
REMARK                         _______ _______ _______ _____ _____    ______ ____
ROOT
ATOM     12  C   UNL     1      -2.576   1.432  24.890  0.00  0.00    +0.148 C 
ENDROOT
BRANCH  12  13
ATOM     13  C   UNL     1      -2.713   0.618  24.895  0.00  0.00    +0.166 C 
ATOM     14  O   UNL     1      -2.142   0.029  24.804  0.00  0.00    -0.350 OA
ATOM     15  C   UNL     1      -2.522  -0.702  24.845  0.00  0.00    +0.162 C 
ATOM     16  C   UNL     1      -3.326  -0.566  24.962  0.00  0.00    +0.135 C 
ATOM     22  C   UNL     1      -3.445   0.250  24.993  0.00  0.00    +0.199 C 
ATOM     23  O   UNL     1      -4.168   0.632  25.103  0.00  0.00    -0.219 OA
BRANCH  16  17
ATOM     17  N   UNL     1      -3.911  -1.143  25.036  0.00  0.00    -0.216 NA
BRANCH  17  18
ATOM     18  C   UNL     1      -3.789  -1.897  24.724  0.00  0.00    +0.073 C 
ATOM     19  C   UNL     1      -3.983  -2.274  24.017  0.00  0.00    +0.017 C 
ATOM     20  C   UNL     1      -3.616  -2.964  24.283  0.00  0.00    +0.003 C 
ATOM     21  C   UNL     1      -3.421  -2.586  24.990  0.00  0.00    +0.017 C 
ENDBRANCH  17  18
ENDBRANCH  16  17
ENDBRANCH  12  13
BRANCH  12  11
ATOM     11  N   UNL     1      -1.810   1.722  24.988  0.00  0.00    -0.075 NA
BRANCH  11   8
ATOM      8  S   UNL     1      -1.674   2.535  24.995  0.00  0.00    +0.077 S 
ATOM      9  O   UNL     1      -1.823   2.566  24.185  0.00  0.00    -0.152 OA
ATOM     10  O   UNL     1      -1.525   2.503  25.806  0.00  0.00    -0.152 OA
BRANCH   8   5
ATOM      1  C   UNL     1      -1.130   5.790  25.022  0.00  0.00    +0.031 C 
ATOM      2  C   UNL     1      -1.266   4.976  25.015  0.00  0.00    -0.022 A 
ATOM      3  C   UNL     1      -1.983   4.675  25.291  0.00  0.00    -0.003 A 
ATOM      4  C   UNL     1      -2.119   3.861  25.284  0.00  0.00    +0.020 A 
ATOM      5  C   UNL     1      -1.538   3.349  25.002  0.00  0.00    +0.124 A 
ATOM      6  C   UNL     1      -0.821   3.649  24.726  0.00  0.00    +0.020 A 
ATOM      7  C   UNL     1      -0.685   4.463  24.733  0.00  0.00    -0.003 A 
ENDBRANCH   8   5
ENDBRANCH  11   8
ENDBRANCH  12  11
TORSDOF 6
ENDMDL
