MODEL 1
REMARK VINA RESULT:     -12.8      0.000      0.000
REMARK  Name = 
REMARK  5 active torsions:
REMARK  status: ('A' for Active; 'I' for Inactive)
REMARK    1  A    between atoms: C_8  and  C_10
REMARK    2  A    between atoms: C_10  and  C_11
REMARK    3  A    between atoms: C_13  and  C_14
REMARK    4  A    between atoms: C_14  and  N_15
REMARK    5  A    between atoms: C_16  and  C_18
REMARK                            x       y       z     vdW  Elec       q    Type
REMARK                         _______ _______ _______ _____ _____    ______ ____
ROOT
ATOM     11  C   UNL     1      -4.787   1.355  24.954  0.00  0.00    +0.157 C 
ATOM     12  O   UNL     1      -4.200   1.865  25.232  0.00  0.00    -0.351 OA
ATOM     13  C   UNL     1      -4.558   2.579  25.434  0.00  0.00    +0.170 C 
ATOM     25  C   UNL     1      -5.366   2.512  25.281  0.00  0.00    +0.213 C 
ATOM     26  O   UNL     1      -5.934   3.098  25.404  0.00  0.00    -0.218 OA
ATOM     27  C   UNL     1      -5.507   1.755  24.985  0.00  0.00    +0.212 C 
ATOM     28  O   UNL     1      -6.241   1.452  24.759  0.00  0.00    -0.218 OA
ENDROOT
BRANCH  11  10
ATOM     10  C   UNL     1      -4.673   0.581  24.692  0.00  0.00    +0.117 C 
BRANCH  10   8
ATOM      1  C   UNL     1      -3.636  -2.992  24.018  0.00  0.00    +0.000 C 
ATOM      2  C   UNL     1      -3.783  -2.230  24.298  0.00  0.00    +0.003 C 
ATOM      3  C   UNL     1      -4.235  -1.705  23.851  0.00  0.00    +0.022 C 
ATOM      4  C   UNL     1      -4.381  -0.943  24.131  0.00  0.00    +0.093 C 
ATOM      5  N   UNL     1      -4.075  -0.706  24.859  0.00  0.00    -0.279 N 
ATOM      6  C   UNL     1      -3.622  -1.230  25.307  0.00  0.00    +0.093 C 
ATOM      7  C   UNL     1      -3.476  -1.992  25.027  0.00  0.00    +0.022 C 
ATOM      8  C   UNL     1      -4.221   0.056  25.139  0.00  0.00    +0.228 C 
ATOM      9  O   UNL     1      -3.914   0.294  25.868  0.00  0.00    -0.275 OA
ENDBRANCH  10   8
ENDBRANCH  11  10
BRANCH  13  14
ATOM     14  C   UNL     1      -4.176   3.246  25.735  0.00  0.00    +0.148 C 
BRANCH  14  15
ATOM     15  N   UNL     1      -3.448   3.478  25.425  0.00  0.00    -0.199 NA
ATOM     16  C   UNL     1      -2.968   4.000  25.848  0.00  0.00    +0.265 C 
ATOM     17  O   UNL     1      -3.216   4.289  26.579  0.00  0.00    -0.268 OA
BRANCH  16  18
ATOM     18  C   UNL     1      -2.240   4.233  25.538  0.00  0.00    +0.055 A 
ATOM     19  C   UNL     1      -2.132   5.008  25.276  0.00  0.00    +0.004 A 
ATOM     20  C   UNL     1      -1.405   5.242  24.966  0.00  0.00    -0.004 A 
ATOM     21  C   UNL     1      -0.784   4.701  24.918  0.00  0.00    -0.022 A 
ATOM     22  C   UNL     1      -0.057   4.934  24.608  0.00  0.00    +0.031 C 
ATOM     23  C   UNL     1      -0.891   3.926  25.180  0.00  0.00    -0.004 A 
ATOM     24  C   UNL     1      -1.619   3.693  25.490  0.00  0.00    +0.004 A 
ENDBRANCH  16  18
ENDBRANCH  14  15
ENDBRANCH  13  14
TORSDOF 5
ENDMDL
MODEL 2
REMARK VINA RESULT:     -11.7      2.200      5.581
REMARK  Name = 
REMARK  5 active torsions:
REMARK  status: ('A' for Active; 'I' for Inactive)
REMARK    1  A    between atoms: C_8  and  C_10
REMARK    2  A    between atoms: C_10  and  C_11
REMARK    3  A    between atoms: C_13  and  C_14
REMARK    4  A    between atoms: C_14  and  N_15
REMARK    5  A    between atoms: C_16  and  C_18
REMARK                            x       y       z     vdW  Elec       q    Type
REMARK                         _______ _______ _______ _____ _____    ______ ____
ROOT
ATOM     11  C   UNL     1      -1.341   2.377  24.586  0.00  0.00    +0.157 C 
ATOM     12  O   UNL     1      -1.478   1.582  24.758  0.00  0.00    -0.351 OA
ATOM     13  C   UNL     1      -0.757   1.184  24.713  0.00  0.00    +0.170 C 
ATOM     25  C   UNL     1      -0.175   1.734  24.514  0.00  0.00    +0.213 C 
ATOM     26  O   UNL     1       0.629   1.574  24.410  0.00  0.00    -0.218 OA
ATOM     27  C   UNL     1      -0.536   2.471  24.435  0.00  0.00    +0.212 C 
ATOM     28  O   UNL     1      -0.158   3.178  24.240  0.00  0.00    -0.218 OA
ENDROOT
BRANCH  11  10
ATOM     10  C   UNL     1      -1.910   2.974  24.569  0.00  0.00    +0.117 C 
BRANCH  10   8
ATOM      1  C   UNL     1      -5.441   3.783  25.652  0.00  0.00    +0.000 C 
ATOM      2  C   UNL     1      -4.739   3.549  25.288  0.00  0.00    +0.003 C 
ATOM      3  C   UNL     1      -4.016   3.679  25.662  0.00  0.00    +0.022 C 
ATOM      4  C   UNL     1      -3.314   3.444  25.298  0.00  0.00    +0.093 C 
ATOM      5  N   UNL     1      -3.336   3.079  24.559  0.00  0.00    -0.279 N 
ATOM      6  C   UNL     1      -4.059   2.948  24.183  0.00  0.00    +0.093 C 
ATOM      7  C   UNL     1      -4.761   3.183  24.548  0.00  0.00    +0.022 C 
ATOM      8  C   UNL     1      -2.634   2.844  24.195  0.00  0.00    +0.228 C 
ATOM      9  O   UNL     1      -2.655   2.479  23.454  0.00  0.00    -0.275 OA
ENDBRANCH  10   8
ENDBRANCH  11  10
BRANCH  13  14
ATOM     14  C   UNL     1      -0.638   0.378  24.844  0.00  0.00    +0.148 C 
BRANCH  14  15
ATOM     15  N   UNL     1      -1.260  -0.153  24.737  0.00  0.00    -0.199 NA
ATOM     16  C   UNL     1      -1.194  -0.926  25.017  0.00  0.00    +0.265 C 
ATOM     17  O   UNL     1      -0.508  -1.168  25.404  0.00  0.00    -0.268 OA
BRANCH  16  18
ATOM     18  C   UNL     1      -1.816  -1.457  24.910  0.00  0.00    +0.055 A 
ATOM     19  C   UNL     1      -1.713  -2.122  24.433  0.00  0.00    +0.004 A 
ATOM     20  C   UNL     1      -2.334  -2.653  24.325  0.00  0.00    -0.004 A 
ATOM     21  C   UNL     1      -3.060  -2.521  24.695  0.00  0.00    -0.022 A 
ATOM     22  C   UNL     1      -3.681  -3.052  24.588  0.00  0.00    +0.031 C 
ATOM     23  C   UNL     1      -3.163  -1.855  25.173  0.00  0.00    -0.004 A 
ATOM     24  C   UNL     1      -2.541  -1.325  25.280  0.00  0.00    +0.004 A 
ENDBRANCH  16  18
ENDBRANCH  14  15
ENDBRANCH  13  14
TORSDOF 5
ENDMDL
MODEL 3
REMARK VINA RESULT:     -11.5      0.949      5.150
REMARK  Name = 
REMARK  5 active torsions:
REMARK  status: ('A' for Active; 'I' for Inactive)
REMARK    1  A    between atoms: C_8  and  C_10
REMARK    2  A    between atoms: C_10  and  C_11
REMARK    3  A    between atoms: C_13  and  C_14
REMARK    4  A    between atoms: C_14  and  N_15
REMARK    5  A    between atoms: C_16  and  C_18
REMARK                            x       y       z     vdW  Elec       q    Type
REMARK                         _______ _______ _______ _____ _____    ______ ____
ROOT
ATOM     11  C   UNL     1      -4.180   2.622  25.237  0.00  0.00    +0.157 C 
ATOM     12  O   UNL     1      -4.013   1.870  24.941  0.00  0.00    -0.351 OA
ATOM     13  C   UNL     1      -4.717   1.441  24.922  0.00  0.00    +0.170 C 
ATOM     25  C   UNL     1      -5.319   1.928  25.207  0.00  0.00    +0.213 C 
ATOM     26  O   UNL     1      -6.114   1.720  25.284  0.00  0.00    -0.218 OA
ATOM     27  C   UNL     1      -4.988   2.657  25.402  0.00  0.00    +0.212 C 
ATOM     28  O   UNL     1      -5.392   3.308  25.708  0.00  0.00    -0.218 OA
ENDROOT
BRANCH  11  10
ATOM     10  C   UNL     1      -3.635   3.231  25.350  0.00  0.00    +0.117 C 
BRANCH  10   8
ATOM      1  C   UNL     1      -0.585   5.409  24.854  0.00  0.00    +0.000 C 
ATOM      2  C   UNL     1      -1.146   4.822  24.995  0.00  0.00    +0.003 C 
ATOM      3  C   UNL     1      -1.950   4.994  24.927  0.00  0.00    +0.022 C 
ATOM      4  C   UNL     1      -2.512   4.406  25.068  0.00  0.00    +0.093 C 
ATOM      5  N   UNL     1      -2.270   3.646  25.277  0.00  0.00    -0.279 N 
ATOM      6  C   UNL     1      -1.466   3.473  25.346  0.00  0.00    +0.093 C 
ATOM      7  C   UNL     1      -0.904   4.061  25.205  0.00  0.00    +0.022 C 
ATOM      8  C   UNL     1      -2.832   3.059  25.418  0.00  0.00    +0.228 C 
ATOM      9  O   UNL     1      -2.589   2.298  25.628  0.00  0.00    -0.275 OA
ENDBRANCH  10   8
ENDBRANCH  11  10
BRANCH  13  14
ATOM     14  C   UNL     1      -4.804   0.662  24.664  0.00  0.00    +0.148 C 
BRANCH  14  15
ATOM     15  N   UNL     1      -4.176   0.133  24.733  0.00  0.00    -0.199 NA
ATOM     16  C   UNL     1      -4.242  -0.629  24.422  0.00  0.00    +0.265 C 
ATOM     17  O   UNL     1      -4.937  -0.860  24.042  0.00  0.00    -0.268 OA
BRANCH  16  18
ATOM     18  C   UNL     1      -3.614  -1.159  24.492  0.00  0.00    +0.055 A 
ATOM     19  C   UNL     1      -2.842  -0.876  24.562  0.00  0.00    +0.004 A 
ATOM     20  C   UNL     1      -2.213  -1.404  24.631  0.00  0.00    -0.004 A 
ATOM     21  C   UNL     1      -2.355  -2.218  24.631  0.00  0.00    -0.022 A 
ATOM     22  C   UNL     1      -1.727  -2.746  24.700  0.00  0.00    +0.031 C 
ATOM     23  C   UNL     1      -3.128  -2.501  24.561  0.00  0.00    -0.004 A 
ATOM     24  C   UNL     1      -3.756  -1.971  24.492  0.00  0.00    +0.004 A 
ENDBRANCH  16  18
ENDBRANCH  14  15
ENDBRANCH  13  14
TORSDOF 5
ENDMDL
MODEL 4
REMARK VINA RESULT:     -11.1      2.226      3.470
REMARK  Name = 
REMARK  5 active torsions:
REMARK  status: ('A' for Active; 'I' for Inactive)
REMARK    1  A    between atoms: C_8  and  C_10
REMARK    2  A    between atoms: C_10  and  C_11
REMARK    3  A    between atoms: C_13  and  C_14
REMARK    4  A    between atoms: C_14  and  N_15
REMARK    5  A    between atoms: C_16  and  C_18
REMARK                            x       y       z     vdW  Elec       q    Type
REMARK                         _______ _______ _______ _____ _____    ______ ____
ROOT
ATOM     11  C   UNL     1      -0.826   0.242  24.591  0.00  0.00    +0.157 C 
ATOM     12  O   UNL     1      -1.299   0.895  24.771  0.00  0.00    -0.351 OA
ATOM     13  C   UNL     1      -0.875   1.576  24.582  0.00  0.00    +0.170 C 
ATOM     25  C   UNL     1      -0.140   1.345  24.286  0.00  0.00    +0.213 C 
ATOM     26  O   UNL     1       0.459   1.851  24.028  0.00  0.00    -0.218 OA
ATOM     27  C   UNL     1      -0.110   0.522  24.291  0.00  0.00    +0.212 C 
ATOM     28  O   UNL     1       0.525   0.057  24.040  0.00  0.00    -0.218 OA
ENDROOT
BRANCH  11  10
ATOM     10  C   UNL     1      -1.033  -0.550  24.693  0.00  0.00    +0.117 C 
BRANCH  10   8
ATOM      1  C   UNL     1      -3.883  -3.026  24.487  0.00  0.00    +0.000 C 
ATOM      2  C   UNL     1      -3.314  -2.459  24.677  0.00  0.00    +0.003 C 
ATOM      3  C   UNL     1      -2.738  -2.251  24.124  0.00  0.00    +0.022 C 
ATOM      4  C   UNL     1      -2.170  -1.684  24.314  0.00  0.00    +0.093 C 
ATOM      5  N   UNL     1      -2.178  -1.325  25.056  0.00  0.00    -0.279 N 
ATOM      6  C   UNL     1      -2.754  -1.532  25.610  0.00  0.00    +0.093 C 
ATOM      7  C   UNL     1      -3.322  -2.099  25.420  0.00  0.00    +0.022 C 
ATOM      8  C   UNL     1      -1.609  -0.758  25.246  0.00  0.00    +0.228 C 
ATOM      9  O   UNL     1      -1.617  -0.398  25.989  0.00  0.00    -0.275 OA
ENDBRANCH  10   8
ENDBRANCH  11  10
BRANCH  13  14
ATOM     14  C   UNL     1      -1.139   2.353  24.674  0.00  0.00    +0.148 C 
BRANCH  14  15
ATOM     15  N   UNL     1      -1.937   2.503  24.816  0.00  0.00    -0.199 NA
ATOM     16  C   UNL     1      -2.198   3.278  24.925  0.00  0.00    +0.265 C 
ATOM     17  O   UNL     1      -1.661   3.902  24.892  0.00  0.00    -0.268 OA
BRANCH  16  18
ATOM     18  C   UNL     1      -2.997   3.428  25.066  0.00  0.00    +0.055 A 
ATOM     19  C   UNL     1      -3.242   3.688  25.810  0.00  0.00    +0.004 A 
ATOM     20  C   UNL     1      -4.039   3.838  25.953  0.00  0.00    -0.004 A 
ATOM     21  C   UNL     1      -4.594   3.728  25.351  0.00  0.00    -0.022 A 
ATOM     22  C   UNL     1      -5.392   3.878  25.494  0.00  0.00    +0.031 C 
ATOM     23  C   UNL     1      -4.349   3.468  24.607  0.00  0.00    -0.004 A 
ATOM     24  C   UNL     1      -3.551   3.318  24.466  0.00  0.00    +0.004 A 
ENDBRANCH  16  18
ENDBRANCH  14  15
ENDBRANCH  13  14
TORSDOF 5
ENDMDL
MODEL 5
REMARK VINA RESULT:     -11.1      2.448      6.285
REMARK  Name = 
REMARK  5 active torsions:
REMARK  status: ('A' for Active; 'I' for Inactive)
REMARK    1  A    between atoms: C_8  and  C_10
REMARK    2  A    between atoms: C_10  and  C_11
REMARK    3  A    between atoms: C_13  and  C_14
REMARK    4  A    between atoms: C_14  and  N_15
REMARK    5  A    between atoms: C_16  and  C_18
REMARK                            x       y       z     vdW  Elec       q    Type
REMARK                         _______ _______ _______ _____ _____    ______ ____
ROOT
ATOM     11  C   UNL     1      -0.212   1.408  24.674  0.00  0.00    +0.157 C 
ATOM     12  O   UNL     1      -0.629   0.769  24.989  0.00  0.00    -0.351 OA
ATOM     13  C   UNL     1      -0.376   0.085  24.605  0.00  0.00    +0.170 C 
ATOM     25  C   UNL     1       0.198   0.301  24.052  0.00  0.00    +0.213 C 
ATOM     26  O   UNL     1       0.599  -0.212  23.545  0.00  0.00    -0.218 OA
ATOM     27  C   UNL     1       0.299   1.118  24.095  0.00  0.00    +0.212 C 
ATOM     28  O   UNL     1       0.819   1.567  23.638  0.00  0.00    -0.218 OA
ENDROOT
BRANCH  11  10
ATOM     10  C   UNL     1      -0.292   2.198  24.898  0.00  0.00    +0.117 C 
BRANCH  10   8
ATOM      1  C   UNL     1      -1.768   5.666  25.193  0.00  0.00    +0.000 C 
ATOM      2  C   UNL     1      -1.575   4.864  25.206  0.00  0.00    +0.003 C 
ATOM      3  C   UNL     1      -0.874   4.603  24.858  0.00  0.00    +0.022 C 
ATOM      4  C   UNL     1      -0.680   3.801  24.871  0.00  0.00    +0.093 C 
ATOM      5  N   UNL     1      -1.187   3.261  25.233  0.00  0.00    -0.279 N 
ATOM      6  C   UNL     1      -1.888   3.521  25.582  0.00  0.00    +0.093 C 
ATOM      7  C   UNL     1      -2.082   4.323  25.568  0.00  0.00    +0.022 C 
ATOM      8  C   UNL     1      -0.993   2.459  25.246  0.00  0.00    +0.228 C 
ATOM      9  O   UNL     1      -1.500   1.917  25.608  0.00  0.00    -0.275 OA
ENDBRANCH  10   8
ENDBRANCH  11  10
BRANCH  13  14
ATOM     14  C   UNL     1      -0.648  -0.681  24.748  0.00  0.00    +0.148 C 
BRANCH  14  15
ATOM     15  N   UNL     1      -1.405  -0.901  24.506  0.00  0.00    -0.199 NA
ATOM     16  C   UNL     1      -1.744  -1.596  24.795  0.00  0.00    +0.265 C 
ATOM     17  O   UNL     1      -1.326  -2.070  25.324  0.00  0.00    -0.268 OA
BRANCH  16  18
ATOM     18  C   UNL     1      -2.501  -1.817  24.552  0.00  0.00    +0.055 A 
ATOM     19  C   UNL     1      -2.653  -2.599  24.337  0.00  0.00    +0.004 A 
ATOM     20  C   UNL     1      -3.410  -2.820  24.095  0.00  0.00    -0.004 A 
ATOM     21  C   UNL     1      -4.015  -2.259  24.068  0.00  0.00    -0.022 A 
ATOM     22  C   UNL     1      -4.771  -2.480  23.826  0.00  0.00    +0.031 C 
ATOM     23  C   UNL     1      -3.862  -1.477  24.283  0.00  0.00    -0.004 A 
ATOM     24  C   UNL     1      -3.105  -1.257  24.525  0.00  0.00    +0.004 A 
ENDBRANCH  16  18
ENDBRANCH  14  15
ENDBRANCH  13  14
TORSDOF 5
ENDMDL
MODEL 6
REMARK VINA RESULT:     -10.9      2.266      4.048
REMARK  Name = 
REMARK  5 active torsions:
REMARK  status: ('A' for Active; 'I' for Inactive)
REMARK    1  A    between atoms: C_8  and  C_10
REMARK    2  A    between atoms: C_10  and  C_11
REMARK    3  A    between atoms: C_13  and  C_14
REMARK    4  A    between atoms: C_14  and  N_15
REMARK    5  A    between atoms: C_16  and  C_18
REMARK                            x       y       z     vdW  Elec       q    Type
REMARK                         _______ _______ _______ _____ _____    ______ ____
ROOT
ATOM     11  C   UNL     1      -0.649   1.854  25.312  0.00  0.00    +0.157 C 
ATOM     12  O   UNL     1      -1.424   2.057  25.112  0.00  0.00    -0.351 OA
ATOM     13  C   UNL     1      -1.505   2.872  25.204  0.00  0.00    +0.170 C 
ATOM     25  C   UNL     1      -0.781   3.174  25.459  0.00  0.00    +0.213 C 
ATOM     26  O   UNL     1      -0.616   3.966  25.620  0.00  0.00    -0.218 OA
ATOM     27  C   UNL     1      -0.252   2.545  25.527  0.00  0.00    +0.212 C 
ATOM     28  O   UNL     1       0.536   2.597  25.766  0.00  0.00    -0.218 OA
ENDROOT
BRANCH  11  10
ATOM     10  C   UNL     1      -0.327   1.094  25.300  0.00  0.00    +0.117 C 
BRANCH  10   8
ATOM      1  C   UNL     1      -1.409  -2.512  24.959  0.00  0.00    +0.000 C 
ATOM      2  C   UNL     1      -1.162  -1.730  24.877  0.00  0.00    +0.003 C 
ATOM      3  C   UNL     1      -1.070  -1.254  25.544  0.00  0.00    +0.022 C 
ATOM      4  C   UNL     1      -0.823  -0.471  25.463  0.00  0.00    +0.093 C 
ATOM      5  N   UNL     1      -0.666  -0.164  24.714  0.00  0.00    -0.279 N 
ATOM      6  C   UNL     1      -0.757  -0.639  24.045  0.00  0.00    +0.093 C 
ATOM      7  C   UNL     1      -1.005  -1.422  24.127  0.00  0.00    +0.022 C 
ATOM      8  C   UNL     1      -0.419   0.618  24.632  0.00  0.00    +0.228 C 
ATOM      9  O   UNL     1      -0.262   0.926  23.882  0.00  0.00    -0.275 OA
ENDBRANCH  10   8
ENDBRANCH  11  10
BRANCH  13  14
ATOM     14  C   UNL     1      -2.191   3.310  25.063  0.00  0.00    +0.148 C 
BRANCH  14  15
ATOM     15  N   UNL     1      -2.931   2.962  25.172  0.00  0.00    -0.199 NA
ATOM     16  C   UNL     1      -3.610   3.344  24.898  0.00  0.00    +0.265 C 
ATOM     17  O   UNL     1      -3.547   4.072  24.516  0.00  0.00    -0.268 OA
BRANCH  16  18
ATOM     18  C   UNL     1      -4.349   2.996  25.006  0.00  0.00    +0.055 A 
ATOM     19  C   UNL     1      -4.602   2.396  24.499  0.00  0.00    +0.004 A 
ATOM     20  C   UNL     1      -5.341   2.048  24.606  0.00  0.00    -0.004 A 
ATOM     21  C   UNL     1      -5.830   2.300  25.222  0.00  0.00    -0.022 A 
ATOM     22  C   UNL     1      -6.570   1.952  25.329  0.00  0.00    +0.031 C 
ATOM     23  C   UNL     1      -5.578   2.900  25.729  0.00  0.00    -0.004 A 
ATOM     24  C   UNL     1      -4.838   3.248  25.621  0.00  0.00    +0.004 A 
ENDBRANCH  16  18
ENDBRANCH  14  15
ENDBRANCH  13  14
TORSDOF 5
ENDMDL
MODEL 7
REMARK VINA RESULT:     -10.8      2.235      4.620
REMARK  Name = 
REMARK  5 active torsions:
REMARK  status: ('A' for Active; 'I' for Inactive)
REMARK    1  A    between atoms: C_8  and  C_10
REMARK    2  A    between atoms: C_10  and  C_11
REMARK    3  A    between atoms: C_13  and  C_14
REMARK    4  A    between atoms: C_14  and  N_15
REMARK    5  A    between atoms: C_16  and  C_18
REMARK                            x       y       z     vdW  Elec       q    Type
REMARK                         _______ _______ _______ _____ _____    ______ ____
ROOT
ATOM     11  C   UNL     1      -2.513   3.697  24.991  0.00  0.00    +0.157 C 
ATOM     12  O   UNL     1      -2.126   2.975  24.885  0.00  0.00    -0.351 OA
ATOM     13  C   UNL     1      -1.315   3.112  24.932  0.00  0.00    +0.170 C 
ATOM     25  C   UNL     1      -1.199   3.918  25.067  0.00  0.00    +0.213 C 
ATOM     26  O   UNL     1      -0.470   4.296  25.152  0.00  0.00    -0.218 OA
ATOM     27  C   UNL     1      -1.940   4.279  25.103  0.00  0.00    +0.212 C 
ATOM     28  O   UNL     1      -2.082   5.082  25.230  0.00  0.00    -0.218 OA
ENDROOT
BRANCH  11  10
ATOM     10  C   UNL     1      -3.329   3.815  24.984  0.00  0.00    +0.117 C 
BRANCH  10   8
ATOM      1  C   UNL     1      -6.487   1.956  25.919  0.00  0.00    +0.000 C 
ATOM      2  C   UNL     1      -5.819   2.297  25.574  0.00  0.00    +0.003 C 
ATOM      3  C   UNL     1      -5.333   2.794  26.018  0.00  0.00    +0.022 C 
ATOM      4  C   UNL     1      -4.665   3.134  25.674  0.00  0.00    +0.093 C 
ATOM      5  N   UNL     1      -4.483   2.977  24.885  0.00  0.00    -0.279 N 
ATOM      6  C   UNL     1      -4.968   2.480  24.440  0.00  0.00    +0.093 C 
ATOM      7  C   UNL     1      -5.636   2.140  24.784  0.00  0.00    +0.022 C 
ATOM      8  C   UNL     1      -3.815   3.317  24.540  0.00  0.00    +0.228 C 
ATOM      9  O   UNL     1      -3.633   3.160  23.751  0.00  0.00    -0.275 OA
ENDBRANCH  10   8
ENDBRANCH  11  10
BRANCH  13  14
ATOM     14  C   UNL     1      -0.721   2.543  24.858  0.00  0.00    +0.148 C 
BRANCH  14  15
ATOM     15  N   UNL     1      -0.912   1.742  24.897  0.00  0.00    -0.199 NA
ATOM     16  C   UNL     1      -0.331   1.172  24.757  0.00  0.00    +0.265 C 
ATOM     17  O   UNL     1       0.439   1.405  24.578  0.00  0.00    -0.268 OA
BRANCH  16  18
ATOM     18  C   UNL     1      -0.521   0.371  24.797  0.00  0.00    +0.055 A 
ATOM     19  C   UNL     1      -0.352  -0.125  24.160  0.00  0.00    +0.004 A 
ATOM     20  C   UNL     1      -0.542  -0.926  24.198  0.00  0.00    -0.004 A 
ATOM     21  C   UNL     1      -0.902  -1.233  24.875  0.00  0.00    -0.022 A 
ATOM     22  C   UNL     1      -1.092  -2.034  24.914  0.00  0.00    +0.031 C 
ATOM     23  C   UNL     1      -1.071  -0.737  25.513  0.00  0.00    -0.004 A 
ATOM     24  C   UNL     1      -0.881   0.064  25.473  0.00  0.00    +0.004 A 
ENDBRANCH  16  18
ENDBRANCH  14  15
ENDBRANCH  13  14
TORSDOF 5
ENDMDL
