MODEL 1
REMARK VINA RESULT:      -9.3      0.000      0.000
REMARK  Name = 
REMARK  6 active torsions:
REMARK  status: ('A' for Active; 'I' for Inactive)
REMARK    1  A    between atoms: C_3  and  C_4
REMARK    2  A    between atoms: C_4  and  N_5
REMARK    3  A    between atoms: C_14  and  C_15
REMARK    4  A    between atoms: C_15  and  C_16
REMARK    5  A    between atoms: C_16  and  C_17
REMARK    6  A    between atoms: N_19  and  C_20
REMARK                            x       y       z     vdW  Elec       q    Type
REMARK                         _______ _______ _______ _____ _____    ______ ____
ROOT
ATOM      5  N   UNL     1      -1.833   0.883  24.605  0.00  0.00    -0.259 NA
ATOM      6  C   UNL     1      -1.742   1.651  24.894  0.00  0.00    +0.074 C 
ATOM      7  C   UNL     1      -0.970   1.894  24.731  0.00  0.00    +0.035 C 
ATOM      8  C   UNL     1      -0.586   1.277  24.340  0.00  0.00    +0.083 C 
ATOM      9  C   UNL     1      -1.120   0.652  24.263  0.00  0.00    +0.152 C 
ATOM     10  C   UNL     1      -1.001  -0.085  23.914  0.00  0.00    +0.257 C 
ATOM     11  O   UNL     1      -1.649  -0.594  23.924  0.00  0.00    -0.272 OA
ATOM     12  N   UNL     1      -0.319  -0.381  23.555  0.00  0.00    -0.203 NA
ATOM     13  C   UNL     1       0.413  -0.012  23.458  0.00  0.00    +0.131 C 
ATOM     14  C   UNL     1       0.643   0.745  23.696  0.00  0.00    +0.080 C 
ATOM     26  N   UNL     1       0.198   1.318  24.088  0.00  0.00    -0.271 NA
ATOM     27  C   UNL     1       0.590   2.026  24.250  0.00  0.00    +0.090 C 
ENDROOT
BRANCH   5   4
ATOM      4  C   UNL     1      -2.520   0.428  24.650  0.00  0.00    +0.137 C 
BRANCH   4   3
ATOM      1  C   UNL     1      -3.964  -0.261  25.463  0.00  0.00    +0.132 C 
ATOM      2  N   UNL     1      -3.919   0.479  25.099  0.00  0.00    -0.312 N 
ATOM      3  C   UNL     1      -3.255   0.795  24.725  0.00  0.00    +0.137 A 
ATOM     28  N   UNL     1      -3.455   1.543  24.440  0.00  0.00    -0.230 NA
ATOM     29  C   UNL     1      -4.243   1.689  24.638  0.00  0.00    +0.098 A 
ATOM     30  C   UNL     1      -4.529   1.031  25.045  0.00  0.00    +0.079 A 
ATOM     31  C   UNL     1      -5.309   1.019  25.314  0.00  0.00    +0.019 A 
ATOM     32  C   UNL     1      -5.803   1.666  25.175  0.00  0.00    +0.002 A 
ATOM     33  C   UNL     1      -5.516   2.324  24.768  0.00  0.00    +0.002 A 
ATOM     34  C   UNL     1      -4.736   2.335  24.499  0.00  0.00    +0.021 A 
ENDBRANCH   4   3
ENDBRANCH   5   4
BRANCH  14  15
ATOM     15  C   UNL     1       1.420   0.955  23.517  0.00  0.00    +0.027 C 
BRANCH  15  16
ATOM     16  C   UNL     1       1.904   0.432  23.100  0.00  0.00    +0.089 C 
BRANCH  16  17
ATOM     17  C   UNL     1       2.724   0.484  23.169  0.00  0.00    +0.246 C 
ATOM     18  O   UNL     1       3.086   1.222  23.235  0.00  0.00    -0.273 OA
ATOM     19  N   UNL     1       3.182  -0.202  23.172  0.00  0.00    -0.179 NA
BRANCH  19  20
ATOM     20  C   UNL     1       4.002  -0.149  23.241  0.00  0.00    +0.073 A 
ATOM     21  C   UNL     1       4.422   0.393  22.781  0.00  0.00    +0.017 A 
ATOM     22  C   UNL     1       5.242   0.446  22.850  0.00  0.00    +0.001 A 
ATOM     23  C   UNL     1       5.644  -0.043  23.379  0.00  0.00    +0.000 A 
ATOM     24  C   UNL     1       5.226  -0.585  23.839  0.00  0.00    +0.001 A 
ATOM     25  C   UNL     1       4.404  -0.638  23.770  0.00  0.00    +0.017 A 
ENDBRANCH  19  20
ENDBRANCH  16  17
ENDBRANCH  15  16
ENDBRANCH  14  15
TORSDOF 6
ENDMDL
