MODEL 1
REMARK VINA RESULT:     -12.8      0.000      0.000
REMARK  Name = 
REMARK  4 active torsions:
REMARK  status: ('A' for Active; 'I' for Inactive)
REMARK    1  A    between atoms: C_5  and  C_6
REMARK    2  A    between atoms: C_6  and  N_7
REMARK    3  A    between atoms: C_8  and  C_10
REMARK    4  A    between atoms: N_18  and  C_19
REMARK                            x       y       z     vdW  Elec       q    Type
REMARK                         _______ _______ _______ _____ _____    ______ ____
ROOT
ATOM     10  C   UNL     1      -3.666   1.753  24.278  0.00  0.00    +0.161 C 
ATOM     11  C   UNL     1      -4.441   1.896  24.519  0.00  0.00    +0.076 C 
ATOM     12  C   UNL     1      -4.617   2.561  24.975  0.00  0.00    +0.078 A 
ATOM     13  C   UNL     1      -4.015   3.082  25.191  0.00  0.00    +0.094 A 
ATOM     14  C   UNL     1      -3.238   2.939  24.950  0.00  0.00    +0.143 C 
ATOM     15  N   UNL     1      -3.064   2.274  24.493  0.00  0.00    -0.250 N 
ATOM     16  C   UNL     1      -2.288   2.132  24.253  0.00  0.00    +0.324 C 
ATOM     17  O   UNL     1      -2.114   1.467  23.796  0.00  0.00    -0.251 OA
ATOM     18  N   UNL     1      -1.687   2.654  24.469  0.00  0.00    -0.190 NA
ATOM     25  N   UNL     1      -4.350   3.687  25.640  0.00  0.00    -0.225 NA
ATOM     26  C   UNL     1      -5.159   3.539  25.702  0.00  0.00    +0.198 A 
ATOM     27  N   UNL     1      -5.323   2.843  25.291  0.00  0.00    -0.227 NA
ENDROOT
BRANCH  18  19
ATOM     19  C   UNL     1      -1.861   3.318  24.925  0.00  0.00    +0.097 C 
ATOM     20  C   UNL     1      -2.046   4.033  24.558  0.00  0.00    +0.022 C 
ATOM     21  C   UNL     1      -2.221   4.698  25.014  0.00  0.00    +0.002 C 
ATOM     22  C   UNL     1      -2.210   4.647  25.838  0.00  0.00    +0.000 C 
ATOM     23  C   UNL     1      -2.025   3.931  26.205  0.00  0.00    +0.002 C 
ATOM     24  C   UNL     1      -1.851   3.267  25.748  0.00  0.00    +0.022 C 
ENDBRANCH  18  19
BRANCH  10   8
ATOM      7  N   UNL     1      -3.558   0.334  24.150  0.00  0.00    -0.199 NA
ATOM      8  C   UNL     1      -3.492   1.089  23.822  0.00  0.00    +0.260 C 
ATOM      9  O   UNL     1      -3.251   1.177  23.037  0.00  0.00    -0.272 OA
BRANCH   7   6
ATOM      6  C   UNL     1      -3.383  -0.331  23.693  0.00  0.00    +0.142 C 
BRANCH   6   5
ATOM      1 CL   UNL     1      -3.629  -3.347  25.010  0.00  0.00    -0.082 Cl
ATOM      2  C   UNL     1      -3.568  -2.593  24.681  0.00  0.00    +0.058 A 
ATOM      3  C   UNL     1      -4.130  -2.334  24.134  0.00  0.00    +0.011 A 
ATOM      4  C   UNL     1      -4.068  -1.580  23.805  0.00  0.00    -0.002 A 
ATOM      5  C   UNL     1      -3.445  -1.085  24.023  0.00  0.00    -0.001 A 
ATOM     28  C   UNL     1      -2.883  -1.343  24.568  0.00  0.00    -0.002 A 
ATOM     29  C   UNL     1      -2.945  -2.097  24.898  0.00  0.00    +0.011 A 
ENDBRANCH   6   5
ENDBRANCH   7   6
ENDBRANCH  10   8
TORSDOF 4
ENDMDL
MODEL 2
REMARK VINA RESULT:     -12.6      0.920      2.071
REMARK  Name = 
REMARK  4 active torsions:
REMARK  status: ('A' for Active; 'I' for Inactive)
REMARK    1  A    between atoms: C_5  and  C_6
REMARK    2  A    between atoms: C_6  and  N_7
REMARK    3  A    between atoms: C_8  and  C_10
REMARK    4  A    between atoms: N_18  and  C_19
REMARK                            x       y       z     vdW  Elec       q    Type
REMARK                         _______ _______ _______ _____ _____    ______ ____
ROOT
ATOM     10  C   UNL     1      -2.542   1.557  24.180  0.00  0.00    +0.161 C 
ATOM     11  C   UNL     1      -1.779   1.309  23.990  0.00  0.00    +0.076 C 
ATOM     12  C   UNL     1      -1.135   1.804  24.134  0.00  0.00    +0.078 A 
ATOM     13  C   UNL     1      -1.255   2.549  24.468  0.00  0.00    +0.094 A 
ATOM     14  C   UNL     1      -2.019   2.798  24.659  0.00  0.00    +0.143 C 
ATOM     15  N   UNL     1      -2.662   2.302  24.514  0.00  0.00    -0.250 N 
ATOM     16  C   UNL     1      -3.424   2.551  24.705  0.00  0.00    +0.324 C 
ATOM     17  O   UNL     1      -4.068   2.055  24.561  0.00  0.00    -0.251 OA
ATOM     18  N   UNL     1      -3.544   3.296  25.039  0.00  0.00    -0.190 NA
ATOM     25  N   UNL     1      -0.520   2.915  24.546  0.00  0.00    -0.225 NA
ATOM     26  C   UNL     1       0.054   2.397  24.260  0.00  0.00    +0.198 A 
ATOM     27  N   UNL     1      -0.326   1.711  24.006  0.00  0.00    -0.227 NA
ENDROOT
BRANCH  18  19
ATOM     19  C   UNL     1      -2.901   3.791  25.183  0.00  0.00    +0.097 C 
ATOM     20  C   UNL     1      -2.652   4.323  24.605  0.00  0.00    +0.022 C 
ATOM     21  C   UNL     1      -2.009   4.819  24.748  0.00  0.00    +0.002 C 
ATOM     22  C   UNL     1      -1.614   4.783  25.472  0.00  0.00    +0.000 C 
ATOM     23  C   UNL     1      -1.863   4.250  26.052  0.00  0.00    +0.002 C 
ATOM     24  C   UNL     1      -2.506   3.755  25.907  0.00  0.00    +0.022 C 
ENDBRANCH  18  19
BRANCH  10   8
ATOM      7  N   UNL     1      -3.220   0.318  24.390  0.00  0.00    -0.199 NA
ATOM      8  C   UNL     1      -3.185   1.062  24.036  0.00  0.00    +0.260 C 
ATOM      9  O   UNL     1      -3.794   1.310  23.538  0.00  0.00    -0.272 OA
BRANCH   7   6
ATOM      6  C   UNL     1      -3.864  -0.178  24.246  0.00  0.00    +0.142 C 
BRANCH   6   5
ATOM      1 CL   UNL     1      -3.622  -3.413  24.851  0.00  0.00    -0.082 Cl
ATOM      2  C   UNL     1      -3.682  -2.605  24.700  0.00  0.00    +0.058 A 
ATOM      3  C   UNL     1      -3.956  -2.341  23.967  0.00  0.00    +0.011 A 
ATOM      4  C   UNL     1      -4.016  -1.532  23.816  0.00  0.00    -0.002 A 
ATOM      5  C   UNL     1      -3.803  -0.987  24.398  0.00  0.00    -0.001 A 
ATOM     28  C   UNL     1      -3.530  -1.250  25.129  0.00  0.00    -0.002 A 
ATOM     29  C   UNL     1      -3.469  -2.059  25.281  0.00  0.00    +0.011 A 
ENDBRANCH   6   5
ENDBRANCH   7   6
ENDBRANCH  10   8
TORSDOF 4
ENDMDL
MODEL 3
REMARK VINA RESULT:     -12.3      2.169      5.261
REMARK  Name = 
REMARK  4 active torsions:
REMARK  status: ('A' for Active; 'I' for Inactive)
REMARK    1  A    between atoms: C_5  and  C_6
REMARK    2  A    between atoms: C_6  and  N_7
REMARK    3  A    between atoms: C_8  and  C_10
REMARK    4  A    between atoms: N_18  and  C_19
REMARK                            x       y       z     vdW  Elec       q    Type
REMARK                         _______ _______ _______ _____ _____    ______ ____
ROOT
ATOM     10  C   UNL     1      -2.292   0.580  24.200  0.00  0.00    +0.161 C 
ATOM     11  C   UNL     1      -1.489   0.415  24.288  0.00  0.00    +0.076 C 
ATOM     12  C   UNL     1      -1.244  -0.341  24.509  0.00  0.00    +0.078 A 
ATOM     13  C   UNL     1      -1.803  -0.933  24.643  0.00  0.00    +0.094 A 
ATOM     14  C   UNL     1      -2.607  -0.768  24.555  0.00  0.00    +0.143 C 
ATOM     15  N   UNL     1      -2.851  -0.012  24.334  0.00  0.00    -0.250 N 
ATOM     16  C   UNL     1      -3.655   0.152  24.247  0.00  0.00    +0.324 C 
ATOM     17  O   UNL     1      -3.899   0.909  24.025  0.00  0.00    -0.251 OA
ATOM     18  N   UNL     1      -4.214  -0.439  24.380  0.00  0.00    -0.190 NA
ATOM     25  N   UNL     1      -1.401  -1.621  24.853  0.00  0.00    -0.225 NA
ATOM     26  C   UNL     1      -0.593  -1.455  24.850  0.00  0.00    +0.198 A 
ATOM     27  N   UNL     1      -0.497  -0.664  24.637  0.00  0.00    -0.227 NA
ENDROOT
BRANCH  18  19
ATOM     19  C   UNL     1      -3.970  -1.195  24.601  0.00  0.00    +0.097 C 
ATOM     20  C   UNL     1      -3.838  -1.370  25.396  0.00  0.00    +0.022 C 
ATOM     21  C   UNL     1      -3.593  -2.126  25.618  0.00  0.00    +0.002 C 
ATOM     22  C   UNL     1      -3.481  -2.707  25.044  0.00  0.00    +0.000 C 
ATOM     23  C   UNL     1      -3.612  -2.532  24.247  0.00  0.00    +0.002 C 
ATOM     24  C   UNL     1      -3.857  -1.776  24.027  0.00  0.00    +0.022 C 
ENDBRANCH  18  19
BRANCH  10   8
ATOM      7  N   UNL     1      -2.295   1.992  24.417  0.00  0.00    -0.199 NA
ATOM      8  C   UNL     1      -2.536   1.336  23.979  0.00  0.00    +0.260 C 
ATOM      9  O   UNL     1      -3.022   1.437  23.319  0.00  0.00    -0.272 OA
BRANCH   7   6
ATOM      6  C   UNL     1      -2.540   2.749  24.196  0.00  0.00    +0.142 C 
BRANCH   6   5
ATOM      1 CL   UNL     1      -0.968   5.401  25.373  0.00  0.00    -0.082 Cl
ATOM      2  C   UNL     1      -1.361   4.738  25.079  0.00  0.00    +0.058 A 
ATOM      3  C   UNL     1      -2.146   4.595  25.292  0.00  0.00    +0.011 A 
ATOM      4  C   UNL     1      -2.539   3.932  24.997  0.00  0.00    -0.002 A 
ATOM      5  C   UNL     1      -2.147   3.412  24.491  0.00  0.00    -0.001 A 
ATOM     28  C   UNL     1      -1.363   3.554  24.278  0.00  0.00    -0.002 A 
ATOM     29  C   UNL     1      -0.970   4.217  24.572  0.00  0.00    +0.011 A 
ENDBRANCH   6   5
ENDBRANCH   7   6
ENDBRANCH  10   8
TORSDOF 4
ENDMDL
MODEL 4
REMARK VINA RESULT:     -11.3      2.106      4.554
REMARK  Name = 
REMARK  4 active torsions:
REMARK  status: ('A' for Active; 'I' for Inactive)
REMARK    1  A    between atoms: C_5  and  C_6
REMARK    2  A    between atoms: C_6  and  N_7
REMARK    3  A    between atoms: C_8  and  C_10
REMARK    4  A    between atoms: N_18  and  C_19
REMARK                            x       y       z     vdW  Elec       q    Type
REMARK                         _______ _______ _______ _____ _____    ______ ____
ROOT
ATOM     10  C   UNL     1      -3.208   0.130  24.074  0.00  0.00    +0.161 C 
ATOM     11  C   UNL     1      -3.770  -0.473  24.075  0.00  0.00    +0.076 C 
ATOM     12  C   UNL     1      -3.563  -1.229  24.332  0.00  0.00    +0.078 A 
ATOM     13  C   UNL     1      -2.794  -1.382  24.588  0.00  0.00    +0.094 A 
ATOM     14  C   UNL     1      -2.231  -0.778  24.588  0.00  0.00    +0.143 C 
ATOM     15  N   UNL     1      -2.439  -0.022  24.330  0.00  0.00    -0.250 N 
ATOM     16  C   UNL     1      -1.876   0.581  24.330  0.00  0.00    +0.324 C 
ATOM     17  O   UNL     1      -2.083   1.338  24.073  0.00  0.00    -0.251 OA
ATOM     18  N   UNL     1      -1.107   0.429  24.586  0.00  0.00    -0.190 NA
ATOM     25  N   UNL     1      -2.751  -2.175  24.809  0.00  0.00    -0.225 NA
ATOM     26  C   UNL     1      -3.494  -2.513  24.689  0.00  0.00    +0.198 A 
ATOM     27  N   UNL     1      -3.995  -1.929  24.395  0.00  0.00    -0.227 NA
ENDROOT
BRANCH  18  19
ATOM     19  C   UNL     1      -0.900  -0.327  24.843  0.00  0.00    +0.097 C 
ATOM     20  C   UNL     1      -1.004  -0.537  25.634  0.00  0.00    +0.022 C 
ATOM     21  C   UNL     1      -0.797  -1.293  25.891  0.00  0.00    +0.002 C 
ATOM     22  C   UNL     1      -0.487  -1.839  25.357  0.00  0.00    +0.000 C 
ATOM     23  C   UNL     1      -0.383  -1.630  24.565  0.00  0.00    +0.002 C 
ATOM     24  C   UNL     1      -0.590  -0.874  24.309  0.00  0.00    +0.022 C 
ENDBRANCH  18  19
BRANCH  10   8
ATOM      7  N   UNL     1      -3.883   1.370  24.293  0.00  0.00    -0.199 NA
ATOM      8  C   UNL     1      -3.414   0.886  23.817  0.00  0.00    +0.260 C 
ATOM      9  O   UNL     1      -3.152   1.159  23.084  0.00  0.00    -0.272 OA
BRANCH   7   6
ATOM      6  C   UNL     1      -4.090   2.126  24.036  0.00  0.00    +0.142 C 
BRANCH   6   5
ATOM      1 CL   UNL     1      -5.881   4.099  25.984  0.00  0.00    -0.082 Cl
ATOM      2  C   UNL     1      -5.433   3.606  25.497  0.00  0.00    +0.058 A 
ATOM      3  C   UNL     1      -4.706   3.864  25.205  0.00  0.00    +0.011 A 
ATOM      4  C   UNL     1      -4.258   3.371  24.718  0.00  0.00    -0.002 A 
ATOM      5  C   UNL     1      -4.538   2.619  24.523  0.00  0.00    -0.001 A 
ATOM     28  C   UNL     1      -5.264   2.361  24.815  0.00  0.00    -0.002 A 
ATOM     29  C   UNL     1      -5.712   2.854  25.302  0.00  0.00    +0.011 A 
ENDBRANCH   6   5
ENDBRANCH   7   6
ENDBRANCH  10   8
TORSDOF 4
ENDMDL
MODEL 5
REMARK VINA RESULT:     -11.0      2.325      5.002
REMARK  Name = 
REMARK  4 active torsions:
REMARK  status: ('A' for Active; 'I' for Inactive)
REMARK    1  A    between atoms: C_5  and  C_6
REMARK    2  A    between atoms: C_6  and  N_7
REMARK    3  A    between atoms: C_8  and  C_10
REMARK    4  A    between atoms: N_18  and  C_19
REMARK                            x       y       z     vdW  Elec       q    Type
REMARK                         _______ _______ _______ _____ _____    ______ ____
ROOT
ATOM     10  C   UNL     1      -2.340   0.798  24.638  0.00  0.00    +0.161 C 
ATOM     11  C   UNL     1      -3.081   1.114  24.459  0.00  0.00    +0.076 C 
ATOM     12  C   UNL     1      -3.744   0.623  24.436  0.00  0.00    +0.078 A 
ATOM     13  C   UNL     1      -3.666  -0.183  24.591  0.00  0.00    +0.094 A 
ATOM     14  C   UNL     1      -2.924  -0.499  24.770  0.00  0.00    +0.143 C 
ATOM     15  N   UNL     1      -2.262  -0.008  24.793  0.00  0.00    -0.250 N 
ATOM     16  C   UNL     1      -1.521  -0.324  24.972  0.00  0.00    +0.324 C 
ATOM     17  O   UNL     1      -0.858   0.167  24.995  0.00  0.00    -0.251 OA
ATOM     18  N   UNL     1      -1.443  -1.131  25.127  0.00  0.00    -0.190 NA
ATOM     25  N   UNL     1      -4.412  -0.529  24.528  0.00  0.00    -0.225 NA
ATOM     26  C   UNL     1      -4.951   0.064  24.334  0.00  0.00    +0.198 A 
ATOM     27  N   UNL     1      -4.538   0.775  24.277  0.00  0.00    -0.227 NA
ENDROOT
BRANCH  18  19
ATOM     19  C   UNL     1      -2.105  -1.621  25.103  0.00  0.00    +0.097 C 
ATOM     20  C   UNL     1      -2.577  -1.709  25.773  0.00  0.00    +0.022 C 
ATOM     21  C   UNL     1      -3.241  -2.200  25.750  0.00  0.00    +0.002 C 
ATOM     22  C   UNL     1      -3.431  -2.603  25.055  0.00  0.00    +0.000 C 
ATOM     23  C   UNL     1      -2.958  -2.514  24.384  0.00  0.00    +0.002 C 
ATOM     24  C   UNL     1      -2.296  -2.024  24.409  0.00  0.00    +0.022 C 
ENDBRANCH  18  19
BRANCH  10   8
ATOM      7  N   UNL     1      -1.730   2.035  25.009  0.00  0.00    -0.199 NA
ATOM      8  C   UNL     1      -1.678   1.289  24.662  0.00  0.00    +0.260 C 
ATOM      9  O   UNL     1      -0.963   1.033  24.339  0.00  0.00    -0.272 OA
BRANCH   7   6
ATOM      6  C   UNL     1      -1.067   2.527  25.032  0.00  0.00    +0.142 C 
BRANCH   6   5
ATOM      1 CL   UNL     1      -1.444   5.802  25.172  0.00  0.00    -0.082 Cl
ATOM      2  C   UNL     1      -1.350   4.983  25.137  0.00  0.00    +0.058 A 
ATOM      3  C   UNL     1      -1.866   4.490  25.552  0.00  0.00    +0.011 A 
ATOM      4  C   UNL     1      -1.772   3.671  25.517  0.00  0.00    -0.002 A 
ATOM      5  C   UNL     1      -1.161   3.346  25.067  0.00  0.00    -0.001 A 
ATOM     28  C   UNL     1      -0.645   3.838  24.654  0.00  0.00    -0.002 A 
ATOM     29  C   UNL     1      -0.739   4.657  24.689  0.00  0.00    +0.011 A 
ENDBRANCH   6   5
ENDBRANCH   7   6
ENDBRANCH  10   8
TORSDOF 4
ENDMDL
