MODEL 1
REMARK VINA RESULT:      -9.6      0.000      0.000
REMARK  Name = 
REMARK  6 active torsions:
REMARK  status: ('A' for Active; 'I' for Inactive)
REMARK    1  A    between atoms: C_3  and  C_4
REMARK    2  A    between atoms: C_4  and  N_5
REMARK    3  A    between atoms: C_6  and  C_8
REMARK    4  A    between atoms: C_16  and  N_17
REMARK    5  A    between atoms: N_17  and  C_18
REMARK    6  A    between atoms: C_18  and  C_19
REMARK                            x       y       z     vdW  Elec       q    Type
REMARK                         _______ _______ _______ _____ _____    ______ ____
ROOT
ATOM      1  O   UNL     1      -3.819   2.284  24.119  0.00  0.00    -0.219 OA
ATOM      2  C   UNL     1      -3.186   1.899  24.484  0.00  0.00    +0.199 C 
ATOM      3  C   UNL     1      -3.130   1.090  24.631  0.00  0.00    +0.169 C 
ATOM     14  O   UNL     1      -2.408   0.948  25.003  0.00  0.00    -0.350 OA
ATOM     15  C   UNL     1      -2.018   1.670  25.088  0.00  0.00    +0.162 C 
ATOM     16  C   UNL     1      -2.499   2.258  24.767  0.00  0.00    +0.135 C 
ENDROOT
BRANCH   3   4
ATOM      4  C   UNL     1      -3.696   0.521  24.437  0.00  0.00    +0.148 C 
BRANCH   4   5
ATOM      5  N   UNL     1      -3.508  -0.280  24.484  0.00  0.00    -0.199 NA
ATOM      6  C   UNL     1      -4.101  -0.849  24.398  0.00  0.00    +0.265 C 
ATOM      7  O   UNL     1      -4.881  -0.614  24.267  0.00  0.00    -0.268 OA
BRANCH   6   8
ATOM      8  C   UNL     1      -3.913  -1.651  24.445  0.00  0.00    +0.055 A 
ATOM      9  C   UNL     1      -3.541  -1.949  25.118  0.00  0.00    +0.005 A 
ATOM     10  C   UNL     1      -3.353  -2.751  25.165  0.00  0.00    +0.000 A 
ATOM     11  C   UNL     1      -3.537  -3.254  24.537  0.00  0.00    +0.000 A 
ATOM     12  C   UNL     1      -3.909  -2.956  23.864  0.00  0.00    +0.000 A 
ATOM     13  C   UNL     1      -4.097  -2.154  23.817  0.00  0.00    +0.005 A 
ENDBRANCH   6   8
ENDBRANCH   4   5
ENDBRANCH   3   4
BRANCH  16  17
ATOM     17  N   UNL     1      -2.324   3.063  24.735  0.00  0.00    -0.209 NA
BRANCH  17  18
ATOM     18  C   UNL     1      -1.744   3.379  25.229  0.00  0.00    +0.117 C 
BRANCH  18  19
ATOM     19  C   UNL     1      -1.493   4.159  25.125  0.00  0.00    +0.014 A 
ATOM     20  C   UNL     1      -0.754   4.313  24.794  0.00  0.00    +0.000 A 
ATOM     21  C   UNL     1      -0.503   5.093  24.690  0.00  0.00    +0.020 A 
ATOM     22  C   UNL     1      -0.992   5.717  24.918  0.00  0.00    +0.099 A 
ATOM     23  N   UNL     1      -1.731   5.562  25.250  0.00  0.00    -0.243 NA
ATOM     24  C   UNL     1      -1.982   4.783  25.353  0.00  0.00    +0.096 A 
ENDBRANCH  18  19
ENDBRANCH  17  18
ENDBRANCH  16  17
TORSDOF 6
ENDMDL
MODEL 2
REMARK VINA RESULT:      -9.5      1.085      6.131
REMARK  Name = 
REMARK  6 active torsions:
REMARK  status: ('A' for Active; 'I' for Inactive)
REMARK    1  A    between atoms: C_3  and  C_4
REMARK    2  A    between atoms: C_4  and  N_5
REMARK    3  A    between atoms: C_6  and  C_8
REMARK    4  A    between atoms: C_16  and  N_17
REMARK    5  A    between atoms: N_17  and  C_18
REMARK    6  A    between atoms: C_18  and  C_19
REMARK                            x       y       z     vdW  Elec       q    Type
REMARK                         _______ _______ _______ _____ _____    ______ ____
ROOT
ATOM      1  O   UNL     1      -1.139   0.178  24.986  0.00  0.00    -0.219 OA
ATOM      2  C   UNL     1      -1.861   0.577  24.966  0.00  0.00    +0.199 C 
ATOM      3  C   UNL     1      -1.972   1.385  25.086  0.00  0.00    +0.169 C 
ATOM     14  O   UNL     1      -2.777   1.545  25.017  0.00  0.00    -0.350 OA
ATOM     15  C   UNL     1      -3.165   0.835  24.854  0.00  0.00    +0.162 C 
ATOM     16  C   UNL     1      -2.599   0.236  24.822  0.00  0.00    +0.135 C 
ENDROOT
BRANCH   3   4
ATOM      4  C   UNL     1      -1.379   1.937  25.247  0.00  0.00    +0.148 C 
BRANCH   4   5
ATOM      5  N   UNL     1      -1.509   2.737  25.094  0.00  0.00    -0.199 NA
ATOM      6  C   UNL     1      -0.977   3.302  25.375  0.00  0.00    +0.265 C 
ATOM      7  O   UNL     1      -0.317   3.066  25.811  0.00  0.00    -0.268 OA
BRANCH   6   8
ATOM      8  C   UNL     1      -1.106   4.102  25.222  0.00  0.00    +0.055 A 
ATOM      9  C   UNL     1      -1.789   4.471  25.501  0.00  0.00    +0.005 A 
ATOM     10  C   UNL     1      -1.919   5.271  25.348  0.00  0.00    +0.000 A 
ATOM     11  C   UNL     1      -1.364   5.703  24.915  0.00  0.00    +0.000 A 
ATOM     12  C   UNL     1      -0.681   5.334  24.635  0.00  0.00    +0.000 A 
ATOM     13  C   UNL     1      -0.552   4.534  24.789  0.00  0.00    +0.005 A 
ENDBRANCH   6   8
ENDBRANCH   4   5
ENDBRANCH   3   4
BRANCH  16  17
ATOM     17  N   UNL     1      -2.745  -0.561  24.674  0.00  0.00    -0.209 NA
BRANCH  17  18
ATOM     18  C   UNL     1      -3.504  -0.868  24.775  0.00  0.00    +0.117 C 
BRANCH  18  19
ATOM     19  C   UNL     1      -3.665  -1.649  24.564  0.00  0.00    +0.014 A 
ATOM     20  C   UNL     1      -4.136  -1.809  23.905  0.00  0.00    +0.000 A 
ATOM     21  C   UNL     1      -4.297  -2.591  23.694  0.00  0.00    +0.020 A 
ATOM     22  C   UNL     1      -3.988  -3.211  24.141  0.00  0.00    +0.099 A 
ATOM     23  N   UNL     1      -3.517  -3.051  24.799  0.00  0.00    -0.243 NA
ATOM     24  C   UNL     1      -3.355  -2.269  25.011  0.00  0.00    +0.096 A 
ENDBRANCH  18  19
ENDBRANCH  17  18
ENDBRANCH  16  17
TORSDOF 6
ENDMDL
MODEL 3
REMARK VINA RESULT:      -9.3      1.558      1.778
REMARK  Name = 
REMARK  6 active torsions:
REMARK  status: ('A' for Active; 'I' for Inactive)
REMARK    1  A    between atoms: C_3  and  C_4
REMARK    2  A    between atoms: C_4  and  N_5
REMARK    3  A    between atoms: C_6  and  C_8
REMARK    4  A    between atoms: C_16  and  N_17
REMARK    5  A    between atoms: N_17  and  C_18
REMARK    6  A    between atoms: C_18  and  C_19
REMARK                            x       y       z     vdW  Elec       q    Type
REMARK                         _______ _______ _______ _____ _____    ______ ____
ROOT
ATOM      1  O   UNL     1      -1.026   1.178  23.747  0.00  0.00    -0.219 OA
ATOM      2  C   UNL     1      -0.999   1.072  24.565  0.00  0.00    +0.199 C 
ATOM      3  C   UNL     1      -1.054   0.352  24.963  0.00  0.00    +0.169 C 
ATOM     14  O   UNL     1      -1.001   0.503  25.772  0.00  0.00    -0.350 OA
ATOM     15  C   UNL     1      -0.913   1.317  25.874  0.00  0.00    +0.162 C 
ATOM     16  C   UNL     1      -0.912   1.669  25.129  0.00  0.00    +0.135 C 
ENDROOT
BRANCH   3   4
ATOM      4  C   UNL     1      -1.146  -0.389  24.613  0.00  0.00    +0.148 C 
BRANCH   4   5
ATOM      5  N   UNL     1      -1.887  -0.751  24.601  0.00  0.00    -0.199 NA
ATOM      6  C   UNL     1      -1.958  -1.540  24.371  0.00  0.00    +0.265 C 
ATOM      7  O   UNL     1      -1.287  -1.968  24.154  0.00  0.00    -0.268 OA
BRANCH   6   8
ATOM      8  C   UNL     1      -2.700  -1.901  24.359  0.00  0.00    +0.055 A 
ATOM      9  C   UNL     1      -2.808  -2.632  24.725  0.00  0.00    +0.005 A 
ATOM     10  C   UNL     1      -3.550  -2.994  24.713  0.00  0.00    +0.000 A 
ATOM     11  C   UNL     1      -4.183  -2.624  24.334  0.00  0.00    +0.000 A 
ATOM     12  C   UNL     1      -4.074  -1.892  23.968  0.00  0.00    +0.000 A 
ATOM     13  C   UNL     1      -3.332  -1.531  23.980  0.00  0.00    +0.005 A 
ENDBRANCH   6   8
ENDBRANCH   4   5
ENDBRANCH   3   4
BRANCH  16  17
ATOM     17  N   UNL     1      -0.836   2.475  24.973  0.00  0.00    -0.209 NA
BRANCH  17  18
ATOM     18  C   UNL     1      -1.007   3.027  25.563  0.00  0.00    +0.117 C 
BRANCH  18  19
ATOM     19  C   UNL     1      -1.129   3.819  25.364  0.00  0.00    +0.014 A 
ATOM     20  C   UNL     1      -1.853   4.178  25.530  0.00  0.00    +0.000 A 
ATOM     21  C   UNL     1      -1.975   4.970  25.332  0.00  0.00    +0.020 A 
ATOM     22  C   UNL     1      -1.373   5.401  24.968  0.00  0.00    +0.099 A 
ATOM     23  N   UNL     1      -0.650   5.041  24.802  0.00  0.00    -0.243 NA
ATOM     24  C   UNL     1      -0.528   4.250  25.000  0.00  0.00    +0.096 A 
ENDBRANCH  18  19
ENDBRANCH  17  18
ENDBRANCH  16  17
TORSDOF 6
ENDMDL
MODEL 4
REMARK VINA RESULT:      -7.6      2.952      4.461
REMARK  Name = 
REMARK  6 active torsions:
REMARK  status: ('A' for Active; 'I' for Inactive)
REMARK    1  A    between atoms: C_3  and  C_4
REMARK    2  A    between atoms: C_4  and  N_5
REMARK    3  A    between atoms: C_6  and  C_8
REMARK    4  A    between atoms: C_16  and  N_17
REMARK    5  A    between atoms: N_17  and  C_18
REMARK    6  A    between atoms: C_18  and  C_19
REMARK                            x       y       z     vdW  Elec       q    Type
REMARK                         _______ _______ _______ _____ _____    ______ ____
ROOT
ATOM      1  O   UNL     1      -0.888   2.778  23.769  0.00  0.00    -0.219 OA
ATOM      2  C   UNL     1      -1.132   2.087  24.148  0.00  0.00    +0.199 C 
ATOM      3  C   UNL     1      -1.846   1.977  24.545  0.00  0.00    +0.169 C 
ATOM     14  O   UNL     1      -1.859   1.207  24.839  0.00  0.00    -0.350 OA
ATOM     15  C   UNL     1      -1.152   0.841  24.624  0.00  0.00    +0.162 C 
ATOM     16  C   UNL     1      -0.702   1.384  24.198  0.00  0.00    +0.135 C 
ENDROOT
BRANCH   3   4
ATOM      4  C   UNL     1      -2.444   2.540  24.632  0.00  0.00    +0.148 C 
BRANCH   4   5
ATOM      5  N   UNL     1      -3.206   2.303  24.841  0.00  0.00    -0.199 NA
ATOM      6  C   UNL     1      -3.815   2.859  24.881  0.00  0.00    +0.265 C 
ATOM      7  O   UNL     1      -3.660   3.652  24.711  0.00  0.00    -0.268 OA
BRANCH   6   8
ATOM      8  C   UNL     1      -4.577   2.623  25.091  0.00  0.00    +0.055 A 
ATOM      9  C   UNL     1      -4.930   2.926  25.771  0.00  0.00    +0.005 A 
ATOM     10  C   UNL     1      -5.692   2.689  25.981  0.00  0.00    +0.000 A 
ATOM     11  C   UNL     1      -6.100   2.149  25.510  0.00  0.00    +0.000 A 
ATOM     12  C   UNL     1      -5.746   1.845  24.829  0.00  0.00    +0.000 A 
ATOM     13  C   UNL     1      -4.984   2.082  24.619  0.00  0.00    +0.005 A 
ENDBRANCH   6   8
ENDBRANCH   4   5
ENDBRANCH   3   4
BRANCH  16  17
ATOM     17  N   UNL     1       0.045   1.249  23.876  0.00  0.00    -0.209 NA
BRANCH  17  18
ATOM     18  C   UNL     1       0.288   0.479  23.707  0.00  0.00    +0.117 C 
BRANCH  18  19
ATOM     19  C   UNL     1       0.985   0.350  23.284  0.00  0.00    +0.014 A 
ATOM     20  C   UNL     1       0.991  -0.180  22.652  0.00  0.00    +0.000 A 
ATOM     21  C   UNL     1       1.688  -0.309  22.228  0.00  0.00    +0.020 A 
ATOM     22  C   UNL     1       2.378   0.092  22.438  0.00  0.00    +0.099 A 
ATOM     23  N   UNL     1       2.372   0.622  23.070  0.00  0.00    -0.243 NA
ATOM     24  C   UNL     1       1.675   0.751  23.494  0.00  0.00    +0.096 A 
ENDBRANCH  18  19
ENDBRANCH  17  18
ENDBRANCH  16  17
TORSDOF 6
ENDMDL
