MODEL 1
REMARK VINA RESULT:     -11.8      0.000      0.000
REMARK  Name = 
REMARK  4 active torsions:
REMARK  status: ('A' for Active; 'I' for Inactive)
REMARK    1  A    between atoms: C_5  and  C_6
REMARK    2  A    between atoms: C_6  and  N_7
REMARK    3  A    between atoms: C_10  and  C_12
REMARK    4  A    between atoms: C_18  and  C_21
REMARK                            x       y       z     vdW  Elec       q    Type
REMARK                         _______ _______ _______ _____ _____    ______ ____
ROOT
ATOM      7  N   UNL     1      -3.248   3.118  25.345  0.00  0.00    -0.269 NA
ATOM      8  C   UNL     1      -3.774   3.252  24.724  0.00  0.00    +0.073 C 
ATOM      9  C   UNL     1      -3.998   2.520  24.416  0.00  0.00    +0.026 C 
ATOM     10  C   UNL     1      -3.609   1.933  24.847  0.00  0.00    +0.076 C 
ATOM     11  C   UNL     1      -3.146   2.302  25.420  0.00  0.00    +0.080 C 
ENDROOT
BRANCH  10  12
ATOM     12  C   UNL     1      -3.674   1.119  24.725  0.00  0.00    +0.140 A 
ATOM     13  N   UNL     1      -4.068   0.752  24.100  0.00  0.00    -0.229 NA
ATOM     14  C   UNL     1      -3.993  -0.063  24.196  0.00  0.00    +0.100 A 
ATOM     15  C   UNL     1      -3.551  -0.201  24.879  0.00  0.00    +0.101 A 
ATOM     16  N   UNL     1      -3.354   0.530  25.206  0.00  0.00    -0.229 NA
ATOM     17  C   UNL     1      -3.386  -0.974  25.114  0.00  0.00    +0.031 A 
ATOM     18  C   UNL     1      -3.662  -1.610  24.667  0.00  0.00    +0.070 A 
ATOM     19  C   UNL     1      -4.104  -1.472  23.984  0.00  0.00    +0.012 A 
ATOM     20  C   UNL     1      -4.270  -0.699  23.748  0.00  0.00    +0.021 A 
BRANCH  18  21
ATOM     21  C   UNL     1      -3.497  -2.382  24.902  0.00  0.00    +0.100 C 
ATOM     22  N   UNL     1      -3.331  -3.156  25.138  0.00  0.00    -0.191 NA
ENDBRANCH  18  21
ENDBRANCH  10  12
BRANCH   7   6
ATOM      6  C   UNL     1      -2.886   3.696  25.808  0.00  0.00    +0.099 C 
BRANCH   6   5
ATOM      1  F   UNL     1      -0.203   5.264  24.698  0.00  0.00    -0.204 F 
ATOM      2  C   UNL     1      -0.874   4.871  24.976  0.00  0.00    +0.140 A 
ATOM      3  C   UNL     1      -1.601   5.260  24.994  0.00  0.00    +0.029 A 
ATOM      4  C   UNL     1      -2.272   4.869  25.271  0.00  0.00    -0.001 A 
ATOM      5  C   UNL     1      -2.215   4.087  25.531  0.00  0.00    -0.006 A 
ATOM     23  C   UNL     1      -1.488   3.698  25.513  0.00  0.00    -0.001 A 
ATOM     24  C   UNL     1      -0.817   4.091  25.235  0.00  0.00    +0.029 A 
ENDBRANCH   6   5
ENDBRANCH   7   6
TORSDOF 4
ENDMDL
MODEL 2
REMARK VINA RESULT:     -11.8      2.434      5.778
REMARK  Name = 
REMARK  4 active torsions:
REMARK  status: ('A' for Active; 'I' for Inactive)
REMARK    1  A    between atoms: C_5  and  C_6
REMARK    2  A    between atoms: C_6  and  N_7
REMARK    3  A    between atoms: C_10  and  C_12
REMARK    4  A    between atoms: C_18  and  C_21
REMARK                            x       y       z     vdW  Elec       q    Type
REMARK                         _______ _______ _______ _____ _____    ______ ____
ROOT
ATOM      7  N   UNL     1      -2.274  -0.887  25.521  0.00  0.00    -0.269 NA
ATOM      8  C   UNL     1      -1.527  -1.092  25.236  0.00  0.00    +0.073 C 
ATOM      9  C   UNL     1      -1.086  -0.399  25.157  0.00  0.00    +0.026 C 
ATOM     10  C   UNL     1      -1.560   0.234  25.393  0.00  0.00    +0.076 C 
ATOM     11  C   UNL     1      -2.294  -0.068  25.618  0.00  0.00    +0.080 C 
ENDROOT
BRANCH  10  12
ATOM     12  C   UNL     1      -1.338   1.029  25.403  0.00  0.00    +0.140 A 
ATOM     13  N   UNL     1      -0.607   1.325  25.642  0.00  0.00    -0.229 NA
ATOM     14  C   UNL     1      -0.626   2.146  25.562  0.00  0.00    +0.100 A 
ATOM     15  C   UNL     1      -1.369   2.356  25.272  0.00  0.00    +0.101 A 
ATOM     16  N   UNL     1      -1.809   1.666  25.174  0.00  0.00    -0.229 NA
ATOM     17  C   UNL     1      -1.548   3.150  25.136  0.00  0.00    +0.031 A 
ATOM     18  C   UNL     1      -0.985   3.733  25.288  0.00  0.00    +0.070 A 
ATOM     19  C   UNL     1      -0.242   3.522  25.578  0.00  0.00    +0.012 A 
ATOM     20  C   UNL     1      -0.062   2.729  25.715  0.00  0.00    +0.021 A 
BRANCH  18  21
ATOM     21  C   UNL     1      -1.164   4.526  25.152  0.00  0.00    +0.100 C 
ATOM     22  N   UNL     1      -1.344   5.320  25.015  0.00  0.00    -0.191 NA
ENDBRANCH  18  21
ENDBRANCH  10  12
BRANCH   7   6
ATOM      6  C   UNL     1      -2.892  -1.409  25.681  0.00  0.00    +0.099 C 
BRANCH   6   5
ATOM      1  F   UNL     1      -4.679  -2.661  23.206  0.00  0.00    -0.204 F 
ATOM      2  C   UNL     1      -4.232  -2.348  23.825  0.00  0.00    +0.140 A 
ATOM      3  C   UNL     1      -3.670  -2.816  24.206  0.00  0.00    +0.029 A 
ATOM      4  C   UNL     1      -3.223  -2.503  24.825  0.00  0.00    -0.001 A 
ATOM      5  C   UNL     1      -3.339  -1.722  25.062  0.00  0.00    -0.006 A 
ATOM     23  C   UNL     1      -3.901  -1.253  24.682  0.00  0.00    -0.001 A 
ATOM     24  C   UNL     1      -4.348  -1.567  24.063  0.00  0.00    +0.029 A 
ENDBRANCH   6   5
ENDBRANCH   7   6
TORSDOF 4
ENDMDL
MODEL 3
REMARK VINA RESULT:     -11.6      2.214      5.594
REMARK  Name = 
REMARK  4 active torsions:
REMARK  status: ('A' for Active; 'I' for Inactive)
REMARK    1  A    between atoms: C_5  and  C_6
REMARK    2  A    between atoms: C_6  and  N_7
REMARK    3  A    between atoms: C_10  and  C_12
REMARK    4  A    between atoms: C_18  and  C_21
REMARK                            x       y       z     vdW  Elec       q    Type
REMARK                         _______ _______ _______ _____ _____    ______ ____
ROOT
ATOM      7  N   UNL     1      -3.879   0.139  24.375  0.00  0.00    -0.269 NA
ATOM      8  C   UNL     1      -3.707   0.290  23.582  0.00  0.00    +0.073 C 
ATOM      9  C   UNL     1      -3.220   0.956  23.550  0.00  0.00    +0.026 C 
ATOM     10  C   UNL     1      -3.091   1.215  24.323  0.00  0.00    +0.076 C 
ATOM     11  C   UNL     1      -3.498   0.710  24.832  0.00  0.00    +0.080 C 
ENDROOT
BRANCH  10  12
ATOM     12  C   UNL     1      -2.635   1.865  24.547  0.00  0.00    +0.140 A 
ATOM     13  N   UNL     1      -1.945   1.842  24.998  0.00  0.00    -0.229 NA
ATOM     14  C   UNL     1      -1.673   2.615  25.088  0.00  0.00    +0.100 A 
ATOM     15  C   UNL     1      -2.194   3.117  24.692  0.00  0.00    +0.101 A 
ATOM     16  N   UNL     1      -2.789   2.654  24.358  0.00  0.00    -0.229 NA
ATOM     17  C   UNL     1      -2.060   3.931  24.688  0.00  0.00    +0.031 A 
ATOM     18  C   UNL     1      -1.404   4.243  25.079  0.00  0.00    +0.070 A 
ATOM     19  C   UNL     1      -0.883   3.741  25.475  0.00  0.00    +0.012 A 
ATOM     20  C   UNL     1      -1.016   2.927  25.480  0.00  0.00    +0.021 A 
BRANCH  18  21
ATOM     21  C   UNL     1      -1.270   5.056  25.075  0.00  0.00    +0.100 C 
ATOM     22  N   UNL     1      -1.136   5.871  25.071  0.00  0.00    -0.191 NA
ENDBRANCH  18  21
ENDBRANCH  10  12
BRANCH   7   6
ATOM      6  C   UNL     1      -4.349  -0.476  24.660  0.00  0.00    +0.099 C 
BRANCH   6   5
ATOM      1  F   UNL     1      -3.269  -3.591  24.501  0.00  0.00    -0.204 F 
ATOM      2  C   UNL     1      -3.539  -2.811  24.541  0.00  0.00    +0.140 A 
ATOM      3  C   UNL     1      -4.008  -2.507  23.935  0.00  0.00    +0.029 A 
ATOM      4  C   UNL     1      -4.278  -1.728  23.975  0.00  0.00    -0.001 A 
ATOM      5  C   UNL     1      -4.079  -1.255  24.621  0.00  0.00    -0.006 A 
ATOM     23  C   UNL     1      -3.610  -1.560  25.227  0.00  0.00    -0.001 A 
ATOM     24  C   UNL     1      -3.340  -2.339  25.187  0.00  0.00    +0.029 A 
ENDBRANCH   6   5
ENDBRANCH   7   6
TORSDOF 4
ENDMDL
MODEL 4
REMARK VINA RESULT:     -11.5      1.348      1.699
REMARK  Name = 
REMARK  4 active torsions:
REMARK  status: ('A' for Active; 'I' for Inactive)
REMARK    1  A    between atoms: C_5  and  C_6
REMARK    2  A    between atoms: C_6  and  N_7
REMARK    3  A    between atoms: C_10  and  C_12
REMARK    4  A    between atoms: C_18  and  C_21
REMARK                            x       y       z     vdW  Elec       q    Type
REMARK                         _______ _______ _______ _____ _____    ______ ____
ROOT
ATOM      7  N   UNL     1      -0.869   2.136  25.340  0.00  0.00    -0.269 NA
ATOM      8  C   UNL     1      -0.391   1.835  24.739  0.00  0.00    +0.073 C 
ATOM      9  C   UNL     1      -0.765   1.170  24.425  0.00  0.00    +0.026 C 
ATOM     10  C   UNL     1      -1.474   1.059  24.832  0.00  0.00    +0.076 C 
ATOM     11  C   UNL     1      -1.539   1.656  25.398  0.00  0.00    +0.080 C 
ENDROOT
BRANCH  10  12
ATOM     12  C   UNL     1      -2.022   0.457  24.698  0.00  0.00    +0.140 A 
ATOM     13  N   UNL     1      -2.807   0.559  24.467  0.00  0.00    -0.229 NA
ATOM     14  C   UNL     1      -3.151  -0.187  24.397  0.00  0.00    +0.100 A 
ATOM     15  C   UNL     1      -2.578  -0.750  24.584  0.00  0.00    +0.101 A 
ATOM     16  N   UNL     1      -1.880  -0.353  24.770  0.00  0.00    -0.229 NA
ATOM     17  C   UNL     1      -2.767  -1.553  24.560  0.00  0.00    +0.031 A 
ATOM     18  C   UNL     1      -3.527  -1.793  24.350  0.00  0.00    +0.070 A 
ATOM     19  C   UNL     1      -4.100  -1.229  24.163  0.00  0.00    +0.012 A 
ATOM     20  C   UNL     1      -3.913  -0.426  24.187  0.00  0.00    +0.021 A 
BRANCH  18  21
ATOM     21  C   UNL     1      -3.715  -2.595  24.327  0.00  0.00    +0.100 C 
ATOM     22  N   UNL     1      -3.904  -3.399  24.303  0.00  0.00    -0.191 NA
ENDBRANCH  18  21
ENDBRANCH  10  12
BRANCH   7   6
ATOM      6  C   UNL     1      -0.707   2.799  25.803  0.00  0.00    +0.099 C 
BRANCH   6   5
ATOM      1  F   UNL     1      -1.799   5.770  24.869  0.00  0.00    -0.204 F 
ATOM      2  C   UNL     1      -1.526   5.027  25.103  0.00  0.00    +0.140 A 
ATOM      3  C   UNL     1      -2.004   4.539  25.564  0.00  0.00    +0.029 A 
ATOM      4  C   UNL     1      -1.731   3.796  25.798  0.00  0.00    -0.001 A 
ATOM      5  C   UNL     1      -0.980   3.542  25.569  0.00  0.00    -0.006 A 
ATOM     23  C   UNL     1      -0.502   4.030  25.108  0.00  0.00    -0.001 A 
ATOM     24  C   UNL     1      -0.775   4.773  24.874  0.00  0.00    +0.029 A 
ENDBRANCH   6   5
ENDBRANCH   7   6
TORSDOF 4
ENDMDL
MODEL 5
REMARK VINA RESULT:     -10.3      2.307      4.974
REMARK  Name = 
REMARK  4 active torsions:
REMARK  status: ('A' for Active; 'I' for Inactive)
REMARK    1  A    between atoms: C_5  and  C_6
REMARK    2  A    between atoms: C_6  and  N_7
REMARK    3  A    between atoms: C_10  and  C_12
REMARK    4  A    between atoms: C_18  and  C_21
REMARK                            x       y       z     vdW  Elec       q    Type
REMARK                         _______ _______ _______ _____ _____    ______ ____
ROOT
ATOM      7  N   UNL     1      -3.647  -1.090  24.919  0.00  0.00    -0.269 NA
ATOM      8  C   UNL     1      -4.150  -1.138  24.267  0.00  0.00    +0.073 C 
ATOM      9  C   UNL     1      -4.468  -0.388  24.134  0.00  0.00    +0.026 C 
ATOM     10  C   UNL     1      -4.161   0.123  24.705  0.00  0.00    +0.076 C 
ATOM     11  C   UNL     1      -3.654  -0.311  25.189  0.00  0.00    +0.080 C 
ENDROOT
BRANCH  10  12
ATOM     12  C   UNL     1      -4.332   0.927  24.778  0.00  0.00    +0.140 A 
ATOM     13  N   UNL     1      -3.901   1.547  24.445  0.00  0.00    -0.229 NA
ATOM     14  C   UNL     1      -4.266   2.254  24.658  0.00  0.00    +0.100 A 
ATOM     15  C   UNL     1      -4.924   2.073  25.122  0.00  0.00    +0.101 A 
ATOM     16  N   UNL     1      -4.965   1.253  25.196  0.00  0.00    -0.229 NA
ATOM     17  C   UNL     1      -5.400   2.679  25.417  0.00  0.00    +0.031 A 
ATOM     18  C   UNL     1      -5.220   3.465  25.248  0.00  0.00    +0.070 A 
ATOM     19  C   UNL     1      -4.562   3.647  24.784  0.00  0.00    +0.012 A 
ATOM     20  C   UNL     1      -4.085   3.042  24.489  0.00  0.00    +0.021 A 
BRANCH  18  21
ATOM     21  C   UNL     1      -5.696   4.070  25.542  0.00  0.00    +0.100 C 
ATOM     22  N   UNL     1      -6.173   4.676  25.838  0.00  0.00    -0.191 NA
ENDBRANCH  18  21
ENDBRANCH  10  12
BRANCH   7   6
ATOM      6  C   UNL     1      -3.213  -1.712  25.243  0.00  0.00    +0.099 C 
BRANCH   6   5
ATOM      1  F   UNL     1       0.080  -1.718  25.025  0.00  0.00    -0.204 F 
ATOM      2  C   UNL     1      -0.744  -1.716  25.080  0.00  0.00    +0.140 A 
ATOM      3  C   UNL     1      -1.193  -2.146  24.539  0.00  0.00    +0.029 A 
ATOM      4  C   UNL     1      -2.016  -2.145  24.593  0.00  0.00    -0.001 A 
ATOM      5  C   UNL     1      -2.390  -1.713  25.189  0.00  0.00    -0.006 A 
ATOM     23  C   UNL     1      -1.940  -1.283  25.730  0.00  0.00    -0.001 A 
ATOM     24  C   UNL     1      -1.116  -1.285  25.676  0.00  0.00    +0.029 A 
ENDBRANCH   6   5
ENDBRANCH   7   6
TORSDOF 4
ENDMDL
