MODEL 1
REMARK VINA RESULT:     -10.7      0.000      0.000
REMARK  Name = 
REMARK  8 active torsions:
REMARK  status: ('A' for Active; 'I' for Inactive)
REMARK    1  A    between atoms: C_2  and  O_3
REMARK    2  A    between atoms: O_3  and  C_4
REMARK    3  A    between atoms: C_4  and  C_5
REMARK    4  A    between atoms: C_5  and  N_6
REMARK    5  A    between atoms: C_7  and  C_13
REMARK    6  A    between atoms: C_13  and  C_15
REMARK    7  A    between atoms: C_18  and  N_19
REMARK    8  A    between atoms: C_20  and  C_22
REMARK                            x       y       z     vdW  Elec       q    Type
REMARK                         _______ _______ _______ _____ _____    ______ ____
ROOT
ATOM     13  C   UNL     1      -3.927   2.759  24.223  0.00  0.00    +0.195 C 
ATOM     14  O   UNL     1      -3.740   3.229  23.571  0.00  0.00    -0.216 OA
ENDROOT
BRANCH  13   7
ATOM      6  N   UNL     1      -3.605   3.533  25.380  0.00  0.00    -0.271 N 
ATOM      7  C   UNL     1      -4.156   3.112  24.933  0.00  0.00    +0.139 C 
ATOM      8  C   UNL     1      -4.934   3.043  25.195  0.00  0.00    +0.165 C 
ATOM      9  O   UNL     1      -5.163   3.396  25.904  0.00  0.00    -0.343 OA
ATOM     10  C   UNL     1      -4.613   3.817  26.352  0.00  0.00    +0.227 C 
ATOM     11  C   UNL     1      -3.833   3.886  26.090  0.00  0.00    +0.256 C 
ATOM     12  O   UNL     1      -3.283   4.307  26.537  0.00  0.00    -0.272 OA
BRANCH   6   5
ATOM      5  C   UNL     1      -2.826   3.601  25.118  0.00  0.00    +0.126 C 
BRANCH   5   4
ATOM      4  C   UNL     1      -2.368   4.246  25.350  0.00  0.00    +0.164 C 
BRANCH   4   3
ATOM      3  O   UNL     1      -1.562   4.265  25.175  0.00  0.00    -0.352 OA
BRANCH   3   2
ATOM      1  C   UNL     1      -0.453   4.997  24.648  0.00  0.00    +0.035 C 
ATOM      2  C   UNL     1      -1.188   4.984  25.022  0.00  0.00    +0.142 C 
ENDBRANCH   3   2
ENDBRANCH   4   3
ENDBRANCH   5   4
ENDBRANCH   6   5
ENDBRANCH  13   7
BRANCH  13  15
ATOM     15  C   UNL     1      -3.885   1.937  24.166  0.00  0.00    +0.010 A 
ATOM     16  C   UNL     1      -4.549   1.477  24.338  0.00  0.00    -0.000 A 
ATOM     17  C   UNL     1      -4.507   0.655  24.281  0.00  0.00    +0.016 A 
ATOM     18  C   UNL     1      -3.803   0.293  24.051  0.00  0.00    +0.073 A 
ATOM     27  C   UNL     1      -3.139   0.753  23.879  0.00  0.00    +0.016 A 
ATOM     28  C   UNL     1      -3.181   1.574  23.936  0.00  0.00    -0.000 A 
BRANCH  18  19
ATOM     19  N   UNL     1      -3.761  -0.529  23.994  0.00  0.00    -0.179 NA
ATOM     20  C   UNL     1      -3.696  -0.987  24.677  0.00  0.00    +0.245 C 
ATOM     21  O   UNL     1      -3.674  -0.623  25.418  0.00  0.00    -0.273 OA
BRANCH  20  22
ATOM     22  C   UNL     1      -3.654  -1.809  24.621  0.00  0.00    +0.079 C 
ATOM     23  C   UNL     1      -3.227  -2.308  25.120  0.00  0.00    +0.009 C 
ATOM     24  C   UNL     1      -3.341  -3.084  24.863  0.00  0.00    +0.001 C 
ATOM     25  C   UNL     1      -3.839  -3.064  24.205  0.00  0.00    +0.001 C 
ATOM     26  C   UNL     1      -4.032  -2.276  24.055  0.00  0.00    +0.009 C 
ENDBRANCH  20  22
ENDBRANCH  18  19
ENDBRANCH  13  15
TORSDOF 8
ENDMDL
MODEL 2
REMARK VINA RESULT:      -9.5      0.873      2.165
REMARK  Name = 
REMARK  8 active torsions:
REMARK  status: ('A' for Active; 'I' for Inactive)
REMARK    1  A    between atoms: C_2  and  O_3
REMARK    2  A    between atoms: O_3  and  C_4
REMARK    3  A    between atoms: C_4  and  C_5
REMARK    4  A    between atoms: C_5  and  N_6
REMARK    5  A    between atoms: C_7  and  C_13
REMARK    6  A    between atoms: C_13  and  C_15
REMARK    7  A    between atoms: C_18  and  N_19
REMARK    8  A    between atoms: C_20  and  C_22
REMARK                            x       y       z     vdW  Elec       q    Type
REMARK                         _______ _______ _______ _____ _____    ______ ____
ROOT
ATOM     13  C   UNL     1      -2.723   2.687  24.057  0.00  0.00    +0.195 C 
ATOM     14  O   UNL     1      -2.982   3.110  23.398  0.00  0.00    -0.216 OA
ENDROOT
BRANCH  13   7
ATOM      6  N   UNL     1      -2.903   3.553  25.179  0.00  0.00    -0.271 N 
ATOM      7  C   UNL     1      -2.411   3.088  24.707  0.00  0.00    +0.139 C 
ATOM      8  C   UNL     1      -1.609   3.023  24.885  0.00  0.00    +0.165 C 
ATOM      9  O   UNL     1      -1.297   3.424  25.535  0.00  0.00    -0.343 OA
ATOM     10  C   UNL     1      -1.787   3.889  26.007  0.00  0.00    +0.227 C 
ATOM     11  C   UNL     1      -2.591   3.953  25.829  0.00  0.00    +0.256 C 
ATOM     12  O   UNL     1      -3.082   4.419  26.302  0.00  0.00    -0.272 OA
BRANCH   6   5
ATOM      5  C   UNL     1      -3.705   3.617  25.001  0.00  0.00    +0.126 C 
BRANCH   5   4
ATOM      4  C   UNL     1      -4.266   3.579  25.605  0.00  0.00    +0.164 C 
BRANCH   4   3
ATOM      3  O   UNL     1      -5.069   3.539  25.421  0.00  0.00    -0.352 OA
BRANCH   3   2
ATOM      1  C   UNL     1      -6.098   2.572  25.643  0.00  0.00    +0.035 C 
ATOM      2  C   UNL     1      -5.592   3.156  25.931  0.00  0.00    +0.142 C 
ENDBRANCH   3   2
ENDBRANCH   4   3
ENDBRANCH   5   4
ENDBRANCH   6   5
ENDBRANCH  13   7
BRANCH  13  15
ATOM     15  C   UNL     1      -2.775   1.864  24.066  0.00  0.00    +0.010 A 
ATOM     16  C   UNL     1      -3.330   1.480  23.590  0.00  0.00    -0.000 A 
ATOM     17  C   UNL     1      -3.382   0.657  23.600  0.00  0.00    +0.016 A 
ATOM     18  C   UNL     1      -2.880   0.217  24.084  0.00  0.00    +0.073 A 
ATOM     27  C   UNL     1      -2.325   0.601  24.560  0.00  0.00    +0.016 A 
ATOM     28  C   UNL     1      -2.273   1.424  24.551  0.00  0.00    -0.000 A 
BRANCH  18  19
ATOM     19  N   UNL     1      -2.932  -0.607  24.094  0.00  0.00    -0.179 NA
ATOM     20  C   UNL     1      -3.513  -0.977  24.547  0.00  0.00    +0.245 C 
ATOM     21  O   UNL     1      -4.042  -0.525  24.991  0.00  0.00    -0.273 OA
BRANCH  20  22
ATOM     22  C   UNL     1      -3.566  -1.800  24.558  0.00  0.00    +0.079 C 
ATOM     23  C   UNL     1      -3.231  -2.301  25.122  0.00  0.00    +0.009 C 
ATOM     24  C   UNL     1      -3.421  -3.078  24.918  0.00  0.00    +0.001 C 
ATOM     25  C   UNL     1      -3.874  -3.057  24.228  0.00  0.00    +0.001 C 
ATOM     26  C   UNL     1      -3.964  -2.268  24.006  0.00  0.00    +0.009 C 
ENDBRANCH  20  22
ENDBRANCH  18  19
ENDBRANCH  13  15
TORSDOF 8
ENDMDL
MODEL 3
REMARK VINA RESULT:      -9.5      1.732      2.923
REMARK  Name = 
REMARK  8 active torsions:
REMARK  status: ('A' for Active; 'I' for Inactive)
REMARK    1  A    between atoms: C_2  and  O_3
REMARK    2  A    between atoms: O_3  and  C_4
REMARK    3  A    between atoms: C_4  and  C_5
REMARK    4  A    between atoms: C_5  and  N_6
REMARK    5  A    between atoms: C_7  and  C_13
REMARK    6  A    between atoms: C_13  and  C_15
REMARK    7  A    between atoms: C_18  and  N_19
REMARK    8  A    between atoms: C_20  and  C_22
REMARK                            x       y       z     vdW  Elec       q    Type
REMARK                         _______ _______ _______ _____ _____    ______ ____
ROOT
ATOM     13  C   UNL     1      -0.847   1.819  25.629  0.00  0.00    +0.195 C 
ATOM     14  O   UNL     1      -0.744   1.918  26.442  0.00  0.00    -0.216 OA
ENDROOT
BRANCH  13   7
ATOM      6  N   UNL     1      -0.804   3.179  25.192  0.00  0.00    -0.271 N 
ATOM      7  C   UNL     1      -0.569   2.392  25.106  0.00  0.00    +0.139 C 
ATOM      8  C   UNL     1      -0.056   2.180  24.497  0.00  0.00    +0.165 C 
ATOM      9  O   UNL     1       0.223   2.753  23.973  0.00  0.00    -0.343 OA
ATOM     10  C   UNL     1      -0.012   3.539  24.058  0.00  0.00    +0.227 C 
ATOM     11  C   UNL     1      -0.525   3.752  24.669  0.00  0.00    +0.256 C 
ATOM     12  O   UNL     1      -0.760   4.538  24.754  0.00  0.00    -0.272 OA
BRANCH   6   5
ATOM      5  C   UNL     1      -1.317   3.391  25.802  0.00  0.00    +0.126 C 
BRANCH   5   4
ATOM      4  C   UNL     1      -1.920   3.936  25.662  0.00  0.00    +0.164 C 
BRANCH   4   3
ATOM      3  O   UNL     1      -2.509   4.055  26.228  0.00  0.00    -0.352 OA
BRANCH   3   2
ATOM      1  C   UNL     1      -3.933   3.974  26.149  0.00  0.00    +0.035 C 
ATOM      2  C   UNL     1      -3.233   4.385  26.008  0.00  0.00    +0.142 C 
ENDBRANCH   3   2
ENDBRANCH   4   3
ENDBRANCH   5   4
ENDBRANCH   6   5
ENDBRANCH  13   7
BRANCH  13  15
ATOM     15  C   UNL     1      -1.229   1.148  25.340  0.00  0.00    +0.010 A 
ATOM     16  C   UNL     1      -0.897   0.401  25.458  0.00  0.00    -0.000 A 
ATOM     17  C   UNL     1      -1.279  -0.270  25.168  0.00  0.00    +0.016 A 
ATOM     18  C   UNL     1      -1.993  -0.196  24.763  0.00  0.00    +0.073 A 
ATOM     27  C   UNL     1      -2.326   0.551  24.645  0.00  0.00    +0.016 A 
ATOM     28  C   UNL     1      -1.944   1.222  24.934  0.00  0.00    -0.000 A 
BRANCH  18  19
ATOM     19  N   UNL     1      -2.376  -0.868  24.473  0.00  0.00    -0.179 NA
ATOM     20  C   UNL     1      -3.041  -1.162  24.861  0.00  0.00    +0.245 C 
ATOM     21  O   UNL     1      -3.325  -0.785  25.539  0.00  0.00    -0.273 OA
BRANCH  20  22
ATOM     22  C   UNL     1      -3.425  -1.833  24.573  0.00  0.00    +0.079 C 
ATOM     23  C   UNL     1      -4.040  -1.842  24.025  0.00  0.00    +0.009 C 
ATOM     24  C   UNL     1      -4.256  -2.628  23.896  0.00  0.00    +0.001 C 
ATOM     25  C   UNL     1      -3.773  -3.105  24.365  0.00  0.00    +0.001 C 
ATOM     26  C   UNL     1      -3.259  -2.614  24.784  0.00  0.00    +0.009 C 
ENDBRANCH  20  22
ENDBRANCH  18  19
ENDBRANCH  13  15
TORSDOF 8
ENDMDL
MODEL 4
REMARK VINA RESULT:      -9.1      2.019      6.024
REMARK  Name = 
REMARK  8 active torsions:
REMARK  status: ('A' for Active; 'I' for Inactive)
REMARK    1  A    between atoms: C_2  and  O_3
REMARK    2  A    between atoms: O_3  and  C_4
REMARK    3  A    between atoms: C_4  and  C_5
REMARK    4  A    between atoms: C_5  and  N_6
REMARK    5  A    between atoms: C_7  and  C_13
REMARK    6  A    between atoms: C_13  and  C_15
REMARK    7  A    between atoms: C_18  and  N_19
REMARK    8  A    between atoms: C_20  and  C_22
REMARK                            x       y       z     vdW  Elec       q    Type
REMARK                         _______ _______ _______ _____ _____    ______ ____
ROOT
ATOM     13  C   UNL     1      -1.698  -0.328  25.586  0.00  0.00    +0.195 C 
ATOM     14  O   UNL     1      -2.231  -0.547  26.178  0.00  0.00    -0.216 OA
ENDROOT
BRANCH  13   7
ATOM      6  N   UNL     1      -1.690  -1.566  24.875  0.00  0.00    -0.271 N 
ATOM      7  C   UNL     1      -1.289  -0.907  25.166  0.00  0.00    +0.139 C 
ATOM      8  C   UNL     1      -0.479  -0.826  25.036  0.00  0.00    +0.165 C 
ATOM      9  O   UNL     1      -0.069  -1.405  24.615  0.00  0.00    -0.343 OA
ATOM     10  C   UNL     1      -0.469  -2.065  24.324  0.00  0.00    +0.227 C 
ATOM     11  C   UNL     1      -1.280  -2.146  24.454  0.00  0.00    +0.256 C 
ATOM     12  O   UNL     1      -1.681  -2.805  24.163  0.00  0.00    -0.272 OA
BRANCH   6   5
ATOM      5  C   UNL     1      -2.500  -1.647  25.005  0.00  0.00    +0.126 C 
BRANCH   5   4
ATOM      4  C   UNL     1      -2.984  -1.957  24.413  0.00  0.00    +0.164 C 
BRANCH   4   3
ATOM      3  O   UNL     1      -3.793  -2.051  24.548  0.00  0.00    -0.352 OA
BRANCH   3   2
ATOM      1  C   UNL     1      -4.790  -2.487  23.622  0.00  0.00    +0.035 C 
ATOM      2  C   UNL     1      -4.335  -1.883  23.949  0.00  0.00    +0.142 C 
ENDBRANCH   3   2
ENDBRANCH   4   3
ENDBRANCH   5   4
ENDBRANCH   6   5
ENDBRANCH  13   7
BRANCH  13  15
ATOM     15  C   UNL     1      -1.576   0.470  25.416  0.00  0.00    +0.010 A 
ATOM     16  C   UNL     1      -0.951   0.877  25.771  0.00  0.00    -0.000 A 
ATOM     17  C   UNL     1      -0.829   1.675  25.601  0.00  0.00    +0.016 A 
ATOM     18  C   UNL     1      -1.330   2.066  25.076  0.00  0.00    +0.073 A 
ATOM     27  C   UNL     1      -1.955   1.659  24.721  0.00  0.00    +0.016 A 
ATOM     28  C   UNL     1      -2.077   0.862  24.891  0.00  0.00    -0.000 A 
BRANCH  18  19
ATOM     19  N   UNL     1      -1.208   2.864  24.905  0.00  0.00    -0.179 NA
ATOM     20  C   UNL     1      -1.554   3.444  25.379  0.00  0.00    +0.245 C 
ATOM     21  O   UNL     1      -2.022   3.226  26.023  0.00  0.00    -0.273 OA
BRANCH  20  22
ATOM     22  C   UNL     1      -1.432   4.242  25.209  0.00  0.00    +0.079 C 
ATOM     23  C   UNL     1      -1.972   4.853  25.337  0.00  0.00    +0.009 C 
ATOM     24  C   UNL     1      -1.623   5.558  25.088  0.00  0.00    +0.001 C 
ATOM     25  C   UNL     1      -0.867   5.383  24.807  0.00  0.00    +0.001 C 
ATOM     26  C   UNL     1      -0.749   4.569  24.881  0.00  0.00    +0.009 C 
ENDBRANCH  20  22
ENDBRANCH  18  19
ENDBRANCH  13  15
TORSDOF 8
ENDMDL
MODEL 5
REMARK VINA RESULT:      -8.7      1.595      5.445
REMARK  Name = 
REMARK  8 active torsions:
REMARK  status: ('A' for Active; 'I' for Inactive)
REMARK    1  A    between atoms: C_2  and  O_3
REMARK    2  A    between atoms: O_3  and  C_4
REMARK    3  A    between atoms: C_4  and  C_5
REMARK    4  A    between atoms: C_5  and  N_6
REMARK    5  A    between atoms: C_7  and  C_13
REMARK    6  A    between atoms: C_13  and  C_15
REMARK    7  A    between atoms: C_18  and  N_19
REMARK    8  A    between atoms: C_20  and  C_22
REMARK                            x       y       z     vdW  Elec       q    Type
REMARK                         _______ _______ _______ _____ _____    ______ ____
ROOT
ATOM     13  C   UNL     1      -3.285  -0.313  25.394  0.00  0.00    +0.195 C 
ATOM     14  O   UNL     1      -3.189  -0.634  26.148  0.00  0.00    -0.216 OA
ENDROOT
BRANCH  13   7
ATOM      6  N   UNL     1      -3.358  -1.524  24.640  0.00  0.00    -0.271 N 
ATOM      7  C   UNL     1      -3.633  -0.762  24.796  0.00  0.00    +0.139 C 
ATOM      8  C   UNL     1      -4.255  -0.449  24.354  0.00  0.00    +0.165 C 
ATOM      9  O   UNL     1      -4.603  -0.899  23.756  0.00  0.00    -0.343 OA
ATOM     10  C   UNL     1      -4.328  -1.661  23.600  0.00  0.00    +0.227 C 
ATOM     11  C   UNL     1      -3.705  -1.974  24.042  0.00  0.00    +0.256 C 
ATOM     12  O   UNL     1      -3.431  -2.736  23.885  0.00  0.00    -0.272 OA
BRANCH   6   5
ATOM      5  C   UNL     1      -2.736  -1.837  25.082  0.00  0.00    +0.126 C 
BRANCH   5   4
ATOM      4  C   UNL     1      -2.115  -2.226  24.703  0.00  0.00    +0.164 C 
BRANCH   4   3
ATOM      3  O   UNL     1      -1.474  -2.505  25.140  0.00  0.00    -0.352 OA
BRANCH   3   2
ATOM      1  C   UNL     1      -0.075  -2.231  25.239  0.00  0.00    +0.035 C 
ATOM      2  C   UNL     1      -0.718  -2.513  24.808  0.00  0.00    +0.142 C 
ENDBRANCH   3   2
ENDBRANCH   4   3
ENDBRANCH   5   4
ENDBRANCH   6   5
ENDBRANCH  13   7
BRANCH  13  15
ATOM     15  C   UNL     1      -3.034   0.457  25.238  0.00  0.00    +0.010 A 
ATOM     16  C   UNL     1      -3.569   1.084  25.289  0.00  0.00    -0.000 A 
ATOM     17  C   UNL     1      -3.317   1.854  25.133  0.00  0.00    +0.016 A 
ATOM     18  C   UNL     1      -2.532   1.998  24.926  0.00  0.00    +0.073 A 
ATOM     27  C   UNL     1      -1.997   1.371  24.875  0.00  0.00    +0.016 A 
ATOM     28  C   UNL     1      -2.248   0.601  25.031  0.00  0.00    -0.000 A 
BRANCH  18  19
ATOM     19  N   UNL     1      -2.280   2.768  24.770  0.00  0.00    -0.179 NA
ATOM     20  C   UNL     1      -1.840   3.180  25.333  0.00  0.00    +0.245 C 
ATOM     21  O   UNL     1      -1.651   2.821  26.053  0.00  0.00    -0.273 OA
BRANCH  20  22
ATOM     22  C   UNL     1      -1.587   3.949  25.178  0.00  0.00    +0.079 C 
ATOM     23  C   UNL     1      -2.021   4.638  25.311  0.00  0.00    +0.009 C 
ATOM     24  C   UNL     1      -1.558   5.280  25.078  0.00  0.00    +0.001 C 
ATOM     25  C   UNL     1      -0.837   4.987  24.801  0.00  0.00    +0.001 C 
ATOM     26  C   UNL     1      -0.855   4.165  24.863  0.00  0.00    +0.009 C 
ENDBRANCH  20  22
ENDBRANCH  18  19
ENDBRANCH  13  15
TORSDOF 8
ENDMDL
MODEL 6
REMARK VINA RESULT:      -8.5      2.906      5.053
REMARK  Name = 
REMARK  8 active torsions:
REMARK  status: ('A' for Active; 'I' for Inactive)
REMARK    1  A    between atoms: C_2  and  O_3
REMARK    2  A    between atoms: O_3  and  C_4
REMARK    3  A    between atoms: C_4  and  C_5
REMARK    4  A    between atoms: C_5  and  N_6
REMARK    5  A    between atoms: C_7  and  C_13
REMARK    6  A    between atoms: C_13  and  C_15
REMARK    7  A    between atoms: C_18  and  N_19
REMARK    8  A    between atoms: C_20  and  C_22
REMARK                            x       y       z     vdW  Elec       q    Type
REMARK                         _______ _______ _______ _____ _____    ______ ____
ROOT
ATOM     13  C   UNL     1      -0.577   1.225  24.644  0.00  0.00    +0.195 C 
ATOM     14  O   UNL     1       0.129   1.591  24.424  0.00  0.00    -0.216 OA
ENDROOT
BRANCH  13   7
ATOM      6  N   UNL     1      -0.240  -0.103  24.237  0.00  0.00    -0.271 N 
ATOM      7  C   UNL     1      -0.596   0.410  24.776  0.00  0.00    +0.139 C 
ATOM      8  C   UNL     1      -0.970   0.110  25.447  0.00  0.00    +0.165 C 
ATOM      9  O   UNL     1      -0.988  -0.704  25.579  0.00  0.00    -0.343 OA
ATOM     10  C   UNL     1      -0.632  -1.218  25.041  0.00  0.00    +0.227 C 
ATOM     11  C   UNL     1      -0.258  -0.917  24.369  0.00  0.00    +0.256 C 
ATOM     12  O   UNL     1       0.098  -1.431  23.831  0.00  0.00    -0.272 OA
BRANCH   6   5
ATOM      5  C   UNL     1       0.134   0.197  23.566  0.00  0.00    +0.126 C 
BRANCH   5   4
ATOM      4  C   UNL     1       0.823  -0.157  23.285  0.00  0.00    +0.164 C 
BRANCH   4   3
ATOM      3  O   UNL     1       1.275   0.220  22.706  0.00  0.00    -0.352 OA
BRANCH   3   2
ATOM      1  C   UNL     1       2.667   0.295  22.391  0.00  0.00    +0.035 C 
ATOM      2  C   UNL     1       1.965  -0.135  22.423  0.00  0.00    +0.142 C 
ENDBRANCH   3   2
ENDBRANCH   4   3
ENDBRANCH   5   4
ENDBRANCH   6   5
ENDBRANCH  13   7
BRANCH  13  15
ATOM     15  C   UNL     1      -1.264   1.672  24.731  0.00  0.00    +0.010 A 
ATOM     16  C   UNL     1      -1.388   2.108  25.421  0.00  0.00    -0.000 A 
ATOM     17  C   UNL     1      -2.076   2.556  25.508  0.00  0.00    +0.016 A 
ATOM     18  C   UNL     1      -2.640   2.567  24.907  0.00  0.00    +0.073 A 
ATOM     27  C   UNL     1      -2.516   2.131  24.216  0.00  0.00    +0.016 A 
ATOM     28  C   UNL     1      -1.829   1.684  24.129  0.00  0.00    -0.000 A 
BRANCH  18  19
ATOM     19  N   UNL     1      -3.328   3.015  24.993  0.00  0.00    -0.179 NA
ATOM     20  C   UNL     1      -4.022   2.655  25.257  0.00  0.00    +0.245 C 
ATOM     21  O   UNL     1      -4.029   1.849  25.433  0.00  0.00    -0.273 OA
BRANCH  20  22
ATOM     22  C   UNL     1      -4.710   3.102  25.344  0.00  0.00    +0.079 C 
ATOM     23  C   UNL     1      -4.757   3.925  25.357  0.00  0.00    +0.009 C 
ATOM     24  C   UNL     1      -5.549   4.134  25.454  0.00  0.00    +0.001 C 
ATOM     25  C   UNL     1      -5.992   3.440  25.502  0.00  0.00    +0.001 C 
ATOM     26  C   UNL     1      -5.474   2.801  25.433  0.00  0.00    +0.009 C 
ENDBRANCH  20  22
ENDBRANCH  18  19
ENDBRANCH  13  15
TORSDOF 8
ENDMDL
