MODEL 1
REMARK VINA RESULT:     -14.4      0.000      0.000
REMARK  Name = 
REMARK  4 active torsions:
REMARK  status: ('A' for Active; 'I' for Inactive)
REMARK    1  A    between atoms: C_4  and  C_17
REMARK    2  A    between atoms: N_5  and  C_6
REMARK    3  A    between atoms: C_6  and  C_7
REMARK    4  A    between atoms: C_19  and  C_22
REMARK                            x       y       z     vdW  Elec       q    Type
REMARK                         _______ _______ _______ _____ _____    ______ ____
ROOT
ATOM      1  O   UNL     1      -6.133   3.230  25.605  0.00  0.00    -0.222 OA
ATOM      2  C   UNL     1      -5.441   2.837  25.386  0.00  0.00    +0.170 C 
ATOM      3  C   UNL     1      -5.396   2.081  25.057  0.00  0.00    +0.060 C 
ATOM      4  C   UNL     1      -4.601   1.908  24.925  0.00  0.00    +0.140 C 
ATOM      5  N   UNL     1      -4.154   2.556  25.171  0.00  0.00    -0.260 NA
ATOM     16  C   UNL     1      -4.674   3.130  25.456  0.00  0.00    +0.106 C 
ENDROOT
BRANCH   4  17
ATOM     17  C   UNL     1      -4.305   1.208  24.603  0.00  0.00    +0.251 A 
ATOM     18  N   UNL     1      -4.296   0.471  24.970  0.00  0.00    -0.190 NA
ATOM     19  C   UNL     1      -3.951  -0.070  24.450  0.00  0.00    +0.203 A 
ATOM     20  N   UNL     1      -3.746   0.335  23.762  0.00  0.00    -0.056 NA
ATOM     21  O   UNL     1      -3.964   1.125  23.855  0.00  0.00    -0.336 OA
BRANCH  19  22
ATOM     22  C   UNL     1      -3.832  -0.873  24.594  0.00  0.00    +0.039 A 
ATOM     23  C   UNL     1      -4.091  -1.433  24.045  0.00  0.00    +0.005 A 
ATOM     24  C   UNL     1      -3.972  -2.236  24.188  0.00  0.00    +0.030 A 
ATOM     25  C   UNL     1      -3.595  -2.481  24.880  0.00  0.00    +0.140 A 
ATOM     26  F   UNL     1      -3.476  -3.284  25.023  0.00  0.00    -0.204 F 
ATOM     27  C   UNL     1      -3.336  -1.921  25.428  0.00  0.00    +0.030 A 
ATOM     28  C   UNL     1      -3.455  -1.118  25.285  0.00  0.00    +0.005 A 
ENDBRANCH  19  22
ENDBRANCH   4  17
BRANCH   5   6
ATOM      6  C   UNL     1      -3.331   2.619  25.139  0.00  0.00    +0.101 C 
BRANCH   6   7
ATOM      7  C   UNL     1      -2.961   3.316  25.378  0.00  0.00    +0.014 A 
ATOM      8  C   UNL     1      -3.277   3.882  25.889  0.00  0.00    +0.096 A 
ATOM      9  N   UNL     1      -2.722   4.485  25.976  0.00  0.00    -0.244 NA
ATOM     10  C   UNL     1      -2.062   4.292  25.520  0.00  0.00    +0.081 A 
ATOM     11  C   UNL     1      -2.211   3.569  25.151  0.00  0.00    +0.016 A 
ATOM     12  C   UNL     1      -1.642   3.236  24.655  0.00  0.00    +0.001 A 
ATOM     13  C   UNL     1      -0.926   3.624  24.528  0.00  0.00    +0.000 A 
ATOM     14  C   UNL     1      -0.777   4.347  24.897  0.00  0.00    +0.002 A 
ATOM     15  C   UNL     1      -1.345   4.681  25.393  0.00  0.00    +0.019 A 
ENDBRANCH   6   7
ENDBRANCH   5   6
TORSDOF 4
ENDMDL
MODEL 2
REMARK VINA RESULT:     -13.7      2.916      5.850
REMARK  Name = 
REMARK  4 active torsions:
REMARK  status: ('A' for Active; 'I' for Inactive)
REMARK    1  A    between atoms: C_4  and  C_17
REMARK    2  A    between atoms: N_5  and  C_6
REMARK    3  A    between atoms: C_6  and  C_7
REMARK    4  A    between atoms: C_19  and  C_22
REMARK                            x       y       z     vdW  Elec       q    Type
REMARK                         _______ _______ _______ _____ _____    ______ ____
ROOT
ATOM      1  O   UNL     1       0.844  -0.301  22.975  0.00  0.00    -0.222 OA
ATOM      2  C   UNL     1       0.311   0.005  23.525  0.00  0.00    +0.170 C 
ATOM      3  C   UNL     1       0.361   0.742  23.891  0.00  0.00    +0.060 C 
ATOM      4  C   UNL     1      -0.284   0.820  24.398  0.00  0.00    +0.140 C 
ATOM      5  N   UNL     1      -0.735   0.132  24.346  0.00  0.00    -0.260 NA
ATOM     16  C   UNL     1      -0.366  -0.373  23.806  0.00  0.00    +0.106 C 
ENDROOT
BRANCH   4  17
ATOM     17  C   UNL     1      -0.451   1.474  24.874  0.00  0.00    +0.251 A 
ATOM     18  N   UNL     1      -0.737   2.202  24.615  0.00  0.00    -0.190 NA
ATOM     19  C   UNL     1      -0.823   2.692  25.274  0.00  0.00    +0.203 A 
ATOM     20  N   UNL     1      -0.589   2.265  25.939  0.00  0.00    -0.056 NA
ATOM     21  O   UNL     1      -0.359   1.512  25.693  0.00  0.00    -0.336 OA
BRANCH  19  22
ATOM     22  C   UNL     1      -1.095   3.471  25.267  0.00  0.00    +0.039 A 
ATOM     23  C   UNL     1      -0.614   4.073  24.972  0.00  0.00    +0.005 A 
ATOM     24  C   UNL     1      -0.885   4.852  24.966  0.00  0.00    +0.030 A 
ATOM     25  C   UNL     1      -1.637   5.029  25.254  0.00  0.00    +0.140 A 
ATOM     26  F   UNL     1      -1.909   5.808  25.248  0.00  0.00    -0.204 F 
ATOM     27  C   UNL     1      -2.118   4.427  25.549  0.00  0.00    +0.030 A 
ATOM     28  C   UNL     1      -1.846   3.648  25.556  0.00  0.00    +0.005 A 
ENDBRANCH  19  22
ENDBRANCH   4  17
BRANCH   5   6
ATOM      6  C   UNL     1      -1.431  -0.026  24.760  0.00  0.00    +0.101 C 
BRANCH   6   7
ATOM      7  C   UNL     1      -1.764  -0.780  24.735  0.00  0.00    +0.014 A 
ATOM      8  C   UNL     1      -1.359  -1.493  24.828  0.00  0.00    +0.096 A 
ATOM      9  N   UNL     1      -1.906  -2.107  24.763  0.00  0.00    -0.244 NA
ATOM     10  C   UNL     1      -2.648  -1.774  24.631  0.00  0.00    +0.081 A 
ATOM     11  C   UNL     1      -2.561  -0.954  24.613  0.00  0.00    +0.016 A 
ATOM     12  C   UNL     1      -3.219  -0.472  24.489  0.00  0.00    +0.001 A 
ATOM     13  C   UNL     1      -3.963  -0.809  24.382  0.00  0.00    +0.000 A 
ATOM     14  C   UNL     1      -4.051  -1.630  24.399  0.00  0.00    +0.002 A 
ATOM     15  C   UNL     1      -3.394  -2.112  24.523  0.00  0.00    +0.019 A 
ENDBRANCH   6   7
ENDBRANCH   5   6
TORSDOF 4
ENDMDL
MODEL 3
REMARK VINA RESULT:     -13.6      1.891      4.853
REMARK  Name = 
REMARK  4 active torsions:
REMARK  status: ('A' for Active; 'I' for Inactive)
REMARK    1  A    between atoms: C_4  and  C_17
REMARK    2  A    between atoms: N_5  and  C_6
REMARK    3  A    between atoms: C_6  and  C_7
REMARK    4  A    between atoms: C_19  and  C_22
REMARK                            x       y       z     vdW  Elec       q    Type
REMARK                         _______ _______ _______ _____ _____    ______ ____
ROOT
ATOM      1  O   UNL     1      -6.401   1.583  26.054  0.00  0.00    -0.222 OA
ATOM      2  C   UNL     1      -5.691   1.547  25.636  0.00  0.00    +0.170 C 
ATOM      3  C   UNL     1      -5.235   2.192  25.397  0.00  0.00    +0.060 C 
ATOM      4  C   UNL     1      -4.574   1.904  24.998  0.00  0.00    +0.140 C 
ATOM      5  N   UNL     1      -4.619   1.081  24.989  0.00  0.00    -0.260 NA
ATOM     16  C   UNL     1      -5.310   0.861  25.384  0.00  0.00    +0.106 C 
ENDROOT
BRANCH   4  17
ATOM     17  C   UNL     1      -3.972   2.361  24.665  0.00  0.00    +0.251 A 
ATOM     18  N   UNL     1      -3.385   2.764  25.079  0.00  0.00    -0.190 NA
ATOM     19  C   UNL     1      -2.901   3.147  24.529  0.00  0.00    +0.203 A 
ATOM     20  N   UNL     1      -3.192   2.978  23.776  0.00  0.00    -0.056 NA
ATOM     21  O   UNL     1      -3.854   2.492  23.859  0.00  0.00    -0.336 OA
BRANCH  19  22
ATOM     22  C   UNL     1      -2.245   3.614  24.702  0.00  0.00    +0.039 A 
ATOM     23  C   UNL     1      -2.348   4.383  24.984  0.00  0.00    +0.005 A 
ATOM     24  C   UNL     1      -1.692   4.850  25.157  0.00  0.00    +0.030 A 
ATOM     25  C   UNL     1      -0.931   4.550  25.049  0.00  0.00    +0.140 A 
ATOM     26  F   UNL     1      -0.274   5.018  25.222  0.00  0.00    -0.204 F 
ATOM     27  C   UNL     1      -0.828   3.781  24.768  0.00  0.00    +0.030 A 
ATOM     28  C   UNL     1      -1.484   3.314  24.594  0.00  0.00    +0.005 A 
ENDBRANCH  19  22
ENDBRANCH   4  17
BRANCH   5   6
ATOM      6  C   UNL     1      -4.072   0.568  24.646  0.00  0.00    +0.101 C 
BRANCH   6   7
ATOM      7  C   UNL     1      -3.905  -0.156  25.003  0.00  0.00    +0.014 A 
ATOM      8  C   UNL     1      -3.714  -0.273  25.797  0.00  0.00    +0.096 A 
ATOM      9  N   UNL     1      -3.591  -1.080  25.914  0.00  0.00    -0.244 NA
ATOM     10  C   UNL     1      -3.706  -1.462  25.192  0.00  0.00    +0.081 A 
ATOM     11  C   UNL     1      -3.900  -0.891  24.630  0.00  0.00    +0.016 A 
ATOM     12  C   UNL     1      -4.048  -1.116  23.849  0.00  0.00    +0.001 A 
ATOM     13  C   UNL     1      -4.001  -1.909  23.632  0.00  0.00    +0.000 A 
ATOM     14  C   UNL     1      -3.807  -2.480  24.195  0.00  0.00    +0.002 A 
ATOM     15  C   UNL     1      -3.659  -2.258  24.975  0.00  0.00    +0.019 A 
ENDBRANCH   6   7
ENDBRANCH   5   6
TORSDOF 4
ENDMDL
MODEL 4
REMARK VINA RESULT:     -13.3      2.293      5.145
REMARK  Name = 
REMARK  4 active torsions:
REMARK  status: ('A' for Active; 'I' for Inactive)
REMARK    1  A    between atoms: C_4  and  C_17
REMARK    2  A    between atoms: N_5  and  C_6
REMARK    3  A    between atoms: C_6  and  C_7
REMARK    4  A    between atoms: C_19  and  C_22
REMARK                            x       y       z     vdW  Elec       q    Type
REMARK                         _______ _______ _______ _____ _____    ______ ____
ROOT
ATOM      1  O   UNL     1       0.369   0.873  23.984  0.00  0.00    -0.222 OA
ATOM      2  C   UNL     1      -0.451   0.835  24.071  0.00  0.00    +0.170 C 
ATOM      3  C   UNL     1      -0.986   1.439  23.900  0.00  0.00    +0.060 C 
ATOM      4  C   UNL     1      -1.745   1.163  24.067  0.00  0.00    +0.140 C 
ATOM      5  N   UNL     1      -1.680   0.388  24.342  0.00  0.00    -0.260 NA
ATOM     16  C   UNL     1      -0.880   0.186  24.344  0.00  0.00    +0.106 C 
ENDROOT
BRANCH   4  17
ATOM     17  C   UNL     1      -2.446   1.588  23.976  0.00  0.00    +0.251 A 
ATOM     18  N   UNL     1      -2.900   1.912  24.583  0.00  0.00    -0.190 NA
ATOM     19  C   UNL     1      -3.551   2.289  24.242  0.00  0.00    +0.203 A 
ATOM     20  N   UNL     1      -3.499   2.196  23.424  0.00  0.00    -0.056 NA
ATOM     21  O   UNL     1      -2.816   1.764  23.259  0.00  0.00    -0.336 OA
BRANCH  19  22
ATOM     22  C   UNL     1      -4.148   2.687  24.648  0.00  0.00    +0.039 A 
ATOM     23  C   UNL     1      -4.879   2.322  24.769  0.00  0.00    +0.005 A 
ATOM     24  C   UNL     1      -5.476   2.719  25.175  0.00  0.00    +0.030 A 
ATOM     25  C   UNL     1      -5.344   3.482  25.460  0.00  0.00    +0.140 A 
ATOM     26  F   UNL     1      -5.942   3.880  25.866  0.00  0.00    -0.204 F 
ATOM     27  C   UNL     1      -4.614   3.847  25.339  0.00  0.00    +0.030 A 
ATOM     28  C   UNL     1      -4.017   3.449  24.933  0.00  0.00    +0.005 A 
ENDBRANCH  19  22
ENDBRANCH   4  17
BRANCH   5   6
ATOM      6  C   UNL     1      -2.305  -0.099  24.574  0.00  0.00    +0.101 C 
BRANCH   6   7
ATOM      7  C   UNL     1      -2.196  -0.914  24.622  0.00  0.00    +0.014 A 
ATOM      8  C   UNL     1      -1.488  -1.300  24.798  0.00  0.00    +0.096 A 
ATOM      9  N   UNL     1      -1.630  -2.112  24.787  0.00  0.00    -0.244 NA
ATOM     10  C   UNL     1      -2.426  -2.229  24.606  0.00  0.00    +0.081 A 
ATOM     11  C   UNL     1      -2.776  -1.489  24.504  0.00  0.00    +0.016 A 
ATOM     12  C   UNL     1      -3.577  -1.434  24.316  0.00  0.00    +0.001 A 
ATOM     13  C   UNL     1      -4.029  -2.118  24.230  0.00  0.00    +0.000 A 
ATOM     14  C   UNL     1      -3.679  -2.859  24.332  0.00  0.00    +0.002 A 
ATOM     15  C   UNL     1      -2.878  -2.915  24.520  0.00  0.00    +0.019 A 
ENDBRANCH   6   7
ENDBRANCH   5   6
TORSDOF 4
ENDMDL
MODEL 5
REMARK VINA RESULT:     -13.2      1.843      2.918
REMARK  Name = 
REMARK  4 active torsions:
REMARK  status: ('A' for Active; 'I' for Inactive)
REMARK    1  A    between atoms: C_4  and  C_17
REMARK    2  A    between atoms: N_5  and  C_6
REMARK    3  A    between atoms: C_6  and  C_7
REMARK    4  A    between atoms: C_19  and  C_22
REMARK                            x       y       z     vdW  Elec       q    Type
REMARK                         _______ _______ _______ _____ _____    ______ ____
ROOT
ATOM      1  O   UNL     1       0.675   1.726  24.221  0.00  0.00    -0.222 OA
ATOM      2  C   UNL     1      -0.066   1.510  24.512  0.00  0.00    +0.170 C 
ATOM      3  C   UNL     1      -0.346   0.739  24.599  0.00  0.00    +0.060 C 
ATOM      4  C   UNL     1      -1.110   0.778  24.908  0.00  0.00    +0.140 C 
ATOM      5  N   UNL     1      -1.302   1.573  25.013  0.00  0.00    -0.260 NA
ATOM     16  C   UNL     1      -0.656   2.025  24.768  0.00  0.00    +0.106 C 
ENDROOT
BRANCH   4  17
ATOM     17  C   UNL     1      -1.596   0.134  25.081  0.00  0.00    +0.251 A 
ATOM     18  N   UNL     1      -2.088  -0.259  24.550  0.00  0.00    -0.190 NA
ATOM     19  C   UNL     1      -2.472  -0.866  24.958  0.00  0.00    +0.203 A 
ATOM     20  N   UNL     1      -2.215  -0.847  25.741  0.00  0.00    -0.056 NA
ATOM     21  O   UNL     1      -1.674  -0.229  25.819  0.00  0.00    -0.336 OA
BRANCH  19  22
ATOM     22  C   UNL     1      -3.015  -1.397  24.638  0.00  0.00    +0.039 A 
ATOM     23  C   UNL     1      -3.698  -1.117  24.269  0.00  0.00    +0.005 A 
ATOM     24  C   UNL     1      -4.242  -1.648  23.950  0.00  0.00    +0.030 A 
ATOM     25  C   UNL     1      -4.104  -2.460  23.999  0.00  0.00    +0.140 A 
ATOM     26  F   UNL     1      -4.647  -2.991  23.679  0.00  0.00    -0.204 F 
ATOM     27  C   UNL     1      -3.420  -2.740  24.368  0.00  0.00    +0.030 A 
ATOM     28  C   UNL     1      -2.877  -2.209  24.687  0.00  0.00    +0.005 A 
ENDBRANCH  19  22
ENDBRANCH   4  17
BRANCH   5   6
ATOM      6  C   UNL     1      -2.014   1.865  25.311  0.00  0.00    +0.101 C 
BRANCH   6   7
ATOM      7  C   UNL     1      -2.190   2.668  25.244  0.00  0.00    +0.014 A 
ATOM      8  C   UNL     1      -1.668   3.292  25.381  0.00  0.00    +0.096 A 
ATOM      9  N   UNL     1      -2.075   3.998  25.251  0.00  0.00    -0.244 NA
ATOM     10  C   UNL     1      -2.848   3.810  25.034  0.00  0.00    +0.081 A 
ATOM     11  C   UNL     1      -2.919   2.988  25.030  0.00  0.00    +0.016 A 
ATOM     12  C   UNL     1      -3.640   2.638  24.832  0.00  0.00    +0.001 A 
ATOM     13  C   UNL     1      -4.288   3.109  24.638  0.00  0.00    +0.000 A 
ATOM     14  C   UNL     1      -4.217   3.930  24.642  0.00  0.00    +0.002 A 
ATOM     15  C   UNL     1      -3.497   4.282  24.840  0.00  0.00    +0.019 A 
ENDBRANCH   6   7
ENDBRANCH   5   6
TORSDOF 4
ENDMDL
MODEL 6
REMARK VINA RESULT:     -10.5     16.537     19.136
REMARK  Name = 
REMARK  4 active torsions:
REMARK  status: ('A' for Active; 'I' for Inactive)
REMARK    1  A    between atoms: C_4  and  C_17
REMARK    2  A    between atoms: N_5  and  C_6
REMARK    3  A    between atoms: C_6  and  C_7
REMARK    4  A    between atoms: C_19  and  C_22
REMARK                            x       y       z     vdW  Elec       q    Type
REMARK                         _______ _______ _______ _____ _____    ______ ____
ROOT
ATOM      1  O   UNL     1      13.930   7.883  16.652  0.00  0.00    -0.222 OA
ATOM      2  C   UNL     1      13.827   7.667  17.442  0.00  0.00    +0.170 C 
ATOM      3  C   UNL     1      13.106   7.595  17.835  0.00  0.00    +0.060 C 
ATOM      4  C   UNL     1      13.260   7.368  18.613  0.00  0.00    +0.140 C 
ATOM      5  N   UNL     1      14.077   7.299  18.701  0.00  0.00    -0.260 NA
ATOM     16  C   UNL     1      14.427   7.484  17.977  0.00  0.00    +0.106 C 
ENDROOT
BRANCH   4  17
ATOM     17  C   UNL     1      12.696   7.234  19.200  0.00  0.00    +0.251 A 
ATOM     18  N   UNL     1      12.443   7.779  19.764  0.00  0.00    -0.190 NA
ATOM     19  C   UNL     1      11.876   7.412  20.238  0.00  0.00    +0.203 A 
ATOM     20  N   UNL     1      11.778   6.640  19.966  0.00  0.00    -0.056 NA
ATOM     21  O   UNL     1      12.284   6.529  19.324  0.00  0.00    -0.336 OA
BRANCH  19  22
ATOM     22  C   UNL     1      11.477   7.757  20.872  0.00  0.00    +0.039 A 
ATOM     23  C   UNL     1      11.066   8.465  20.766  0.00  0.00    +0.005 A 
ATOM     24  C   UNL     1      10.667   8.810  21.400  0.00  0.00    +0.030 A 
ATOM     25  C   UNL     1      10.679   8.447  22.141  0.00  0.00    +0.140 A 
ATOM     26  F   UNL     1      10.280   8.792  22.775  0.00  0.00    -0.204 F 
ATOM     27  C   UNL     1      11.090   7.739  22.247  0.00  0.00    +0.030 A 
ATOM     28  C   UNL     1      11.488   7.395  21.613  0.00  0.00    +0.005 A 
ENDBRANCH  19  22
ENDBRANCH   4  17
BRANCH   5   6
ATOM      6  C   UNL     1      14.475   7.084  19.392  0.00  0.00    +0.101 C 
BRANCH   6   7
ATOM      7  C   UNL     1      15.238   6.776  19.349  0.00  0.00    +0.014 A 
ATOM      8  C   UNL     1      15.574   6.400  18.696  0.00  0.00    +0.096 A 
ATOM      9  N   UNL     1      16.344   6.181  18.895  0.00  0.00    -0.244 NA
ATOM     10  C   UNL     1      16.484   6.421  19.671  0.00  0.00    +0.081 A 
ATOM     11  C   UNL     1      15.801   6.789  19.952  0.00  0.00    +0.016 A 
ATOM     12  C   UNL     1      15.780   7.088  20.721  0.00  0.00    +0.001 A 
ATOM     13  C   UNL     1      16.441   7.020  21.208  0.00  0.00    +0.000 A 
ATOM     14  C   UNL     1      17.124   6.652  20.928  0.00  0.00    +0.002 A 
ATOM     15  C   UNL     1      17.146   6.353  20.160  0.00  0.00    +0.019 A 
ENDBRANCH   6   7
ENDBRANCH   5   6
TORSDOF 4
ENDMDL
