MODEL 1
REMARK VINA RESULT:      -6.0      0.000      0.000
REMARK  Name = 
REMARK  4 active torsions:
REMARK  status: ('A' for Active; 'I' for Inactive)
REMARK    1  A    between atoms: N_2  and  C_4
REMARK    2  A    between atoms: C_7  and  C_8
REMARK    3  A    between atoms: C_8  and  N_9
REMARK    4  A    between atoms: N_9  and  S_10
REMARK                            x       y       z     vdW  Elec       q    Type
REMARK                         _______ _______ _______ _____ _____    ______ ____
ROOT
ATOM      4  C   UNL     1      -4.051   1.800  24.530  0.00  0.00    +0.121 C 
ATOM      5  C   UNL     1      -4.767   1.498  24.805  0.00  0.00    +0.161 C 
ATOM      6  O   UNL     1      -4.725   0.675  24.774  0.00  0.00    -0.351 OA
ATOM      7  C   UNL     1      -3.982   0.468  24.478  0.00  0.00    +0.166 C 
ATOM     14  C   UNL     1      -3.566   1.163  24.328  0.00  0.00    +0.197 C 
ATOM     15  O   UNL     1      -2.799   1.214  24.028  0.00  0.00    -0.219 OA
ENDROOT
BRANCH   4   2
ATOM      1  C   UNL     1      -3.571   3.007  25.125  0.00  0.00    +0.090 C 
ATOM      2  N   UNL     1      -3.853   2.599  24.467  0.00  0.00    -0.267 NA
ATOM      3  C   UNL     1      -3.939   2.990  23.745  0.00  0.00    +0.090 C 
ENDBRANCH   4   2
BRANCH   7   8
ATOM      8  C   UNL     1      -3.706  -0.300  24.356  0.00  0.00    +0.147 C 
BRANCH   8   9
ATOM      9  N   UNL     1      -4.189  -0.945  24.530  0.00  0.00    -0.079 NA
BRANCH   9  10
ATOM     10  S   UNL     1      -3.909  -1.712  24.420  0.00  0.00    +0.059 S 
ATOM     11  C   UNL     1      -3.628  -2.480  24.310  0.00  0.00    +0.197 C 
ATOM     12  O   UNL     1      -3.621  -1.719  25.194  0.00  0.00    -0.156 OA
ATOM     13  O   UNL     1      -4.195  -1.706  23.647  0.00  0.00    -0.156 OA
ENDBRANCH   9  10
ENDBRANCH   8   9
ENDBRANCH   7   8
TORSDOF 4
ENDMDL
MODEL 2
REMARK VINA RESULT:      -5.9      2.854      3.637
REMARK  Name = 
REMARK  4 active torsions:
REMARK  status: ('A' for Active; 'I' for Inactive)
REMARK    1  A    between atoms: N_2  and  C_4
REMARK    2  A    between atoms: C_7  and  C_8
REMARK    3  A    between atoms: C_8  and  N_9
REMARK    4  A    between atoms: N_9  and  S_10
REMARK                            x       y       z     vdW  Elec       q    Type
REMARK                         _______ _______ _______ _____ _____    ______ ____
ROOT
ATOM      4  C   UNL     1      -2.277   4.011  25.452  0.00  0.00    +0.121 C 
ATOM      5  C   UNL     1      -2.682   4.164  26.154  0.00  0.00    +0.161 C 
ATOM      6  O   UNL     1      -3.425   3.811  26.102  0.00  0.00    -0.351 OA
ATOM      7  C   UNL     1      -3.480   3.439  25.368  0.00  0.00    +0.166 C 
ATOM     14  C   UNL     1      -2.771   3.562  24.966  0.00  0.00    +0.197 C 
ATOM     15  O   UNL     1      -2.587   3.285  24.211  0.00  0.00    -0.219 OA
ENDROOT
BRANCH   4   2
ATOM      1  C   UNL     1      -1.376   5.046  25.055  0.00  0.00    +0.090 C 
ATOM      2  N   UNL     1      -1.513   4.261  25.267  0.00  0.00    -0.267 NA
ATOM      3  C   UNL     1      -0.885   3.726  25.295  0.00  0.00    +0.090 C 
ENDBRANCH   4   2
BRANCH   7   8
ATOM      8  C   UNL     1      -4.131   3.017  25.085  0.00  0.00    +0.147 C 
BRANCH   8   9
ATOM      9  N   UNL     1      -4.703   2.742  25.611  0.00  0.00    -0.079 NA
BRANCH   9  10
ATOM     10  S   UNL     1      -5.356   2.323  25.329  0.00  0.00    +0.059 S 
ATOM     11  C   UNL     1      -6.008   1.905  25.047  0.00  0.00    +0.197 C 
ATOM     12  O   UNL     1      -4.940   1.616  25.414  0.00  0.00    -0.156 OA
ATOM     13  O   UNL     1      -5.772   3.030  25.244  0.00  0.00    -0.156 OA
ENDBRANCH   9  10
ENDBRANCH   8   9
ENDBRANCH   7   8
TORSDOF 4
ENDMDL
MODEL 3
REMARK VINA RESULT:      -5.9      1.662      3.636
REMARK  Name = 
REMARK  4 active torsions:
REMARK  status: ('A' for Active; 'I' for Inactive)
REMARK    1  A    between atoms: N_2  and  C_4
REMARK    2  A    between atoms: C_7  and  C_8
REMARK    3  A    between atoms: C_8  and  N_9
REMARK    4  A    between atoms: N_9  and  S_10
REMARK                            x       y       z     vdW  Elec       q    Type
REMARK                         _______ _______ _______ _____ _____    ______ ____
ROOT
ATOM      4  C   UNL     1      -3.565  -1.414  24.575  0.00  0.00    +0.121 C 
ATOM      5  C   UNL     1      -3.969  -1.200  23.889  0.00  0.00    +0.161 C 
ATOM      6  O   UNL     1      -4.314  -0.462  24.016  0.00  0.00    -0.351 OA
ATOM      7  C   UNL     1      -4.123  -0.220  24.781  0.00  0.00    +0.166 C 
ATOM     14  C   UNL     1      -3.661  -0.808  25.127  0.00  0.00    +0.197 C 
ATOM     15  O   UNL     1      -3.349  -0.794  25.890  0.00  0.00    -0.219 OA
ENDROOT
BRANCH   4   2
ATOM      1  C   UNL     1      -3.530  -2.799  24.926  0.00  0.00    +0.090 C 
ATOM      2  N   UNL     1      -3.140  -2.112  24.690  0.00  0.00    -0.267 NA
ATOM      3  C   UNL     1      -2.323  -2.123  24.569  0.00  0.00    +0.090 C 
ENDBRANCH   4   2
BRANCH   7   8
ATOM      8  C   UNL     1      -4.356   0.487  25.138  0.00  0.00    +0.147 C 
BRANCH   8   9
ATOM      9  N   UNL     1      -4.720   1.075  24.689  0.00  0.00    -0.079 NA
BRANCH   9  10
ATOM     10  S   UNL     1      -4.931   1.791  25.040  0.00  0.00    +0.059 S 
ATOM     11  C   UNL     1      -5.143   2.507  25.391  0.00  0.00    +0.197 C 
ATOM     12  O   UNL     1      -4.210   2.119  24.809  0.00  0.00    -0.156 OA
ATOM     13  O   UNL     1      -5.652   1.464  25.271  0.00  0.00    -0.156 OA
ENDBRANCH   9  10
ENDBRANCH   8   9
ENDBRANCH   7   8
TORSDOF 4
ENDMDL
MODEL 4
REMARK VINA RESULT:      -5.5      1.908      2.228
REMARK  Name = 
REMARK  4 active torsions:
REMARK  status: ('A' for Active; 'I' for Inactive)
REMARK    1  A    between atoms: N_2  and  C_4
REMARK    2  A    between atoms: C_7  and  C_8
REMARK    3  A    between atoms: C_8  and  N_9
REMARK    4  A    between atoms: N_9  and  S_10
REMARK                            x       y       z     vdW  Elec       q    Type
REMARK                         _______ _______ _______ _____ _____    ______ ____
ROOT
ATOM      4  C   UNL     1      -3.277   2.040  24.522  0.00  0.00    +0.121 C 
ATOM      5  C   UNL     1      -2.660   2.333  24.984  0.00  0.00    +0.161 C 
ATOM      6  O   UNL     1      -2.132   1.716  25.124  0.00  0.00    -0.351 OA
ATOM      7  C   UNL     1      -2.422   1.041  24.748  0.00  0.00    +0.166 C 
ATOM     14  C   UNL     1      -3.129   1.241  24.376  0.00  0.00    +0.197 C 
ATOM     15  O   UNL     1      -3.606   0.733  23.935  0.00  0.00    -0.219 OA
ENDROOT
BRANCH   4   2
ATOM      1  C   UNL     1      -4.649   2.420  24.649  0.00  0.00    +0.090 C 
ATOM      2  N   UNL     1      -3.927   2.470  24.252  0.00  0.00    -0.267 NA
ATOM      3  C   UNL     1      -3.857   2.951  23.584  0.00  0.00    +0.090 C 
ENDBRANCH   4   2
BRANCH   7   8
ATOM      8  C   UNL     1      -2.065   0.296  24.746  0.00  0.00    +0.147 C 
BRANCH   8   9
ATOM      9  N   UNL     1      -1.384   0.164  25.191  0.00  0.00    -0.079 NA
BRANCH   9  10
ATOM     10  S   UNL     1      -1.035  -0.583  25.199  0.00  0.00    +0.059 S 
ATOM     11  C   UNL     1      -0.686  -1.331  25.207  0.00  0.00    +0.197 C 
ATOM     12  O   UNL     1      -1.450  -0.770  25.888  0.00  0.00    -0.156 OA
ATOM     13  O   UNL     1      -0.621  -0.397  24.511  0.00  0.00    -0.156 OA
ENDBRANCH   9  10
ENDBRANCH   8   9
ENDBRANCH   7   8
TORSDOF 4
ENDMDL
