MODEL 1
REMARK VINA RESULT:     -11.0      0.000      0.000
REMARK  Name = 
REMARK  4 active torsions:
REMARK  status: ('A' for Active; 'I' for Inactive)
REMARK    1  A    between atoms: O_2  and  C_3
REMARK    2  A    between atoms: C_8  and  C_10
REMARK    3  A    between atoms: N_13  and  C_14
REMARK    4  A    between atoms: C_14  and  C_15
REMARK                            x       y       z     vdW  Elec       q    Type
REMARK                         _______ _______ _______ _____ _____    ______ ____
ROOT
ATOM     10  C   UNL     1      -4.494   1.163  24.893  0.00  0.00    +0.076 C 
ATOM     11  C   UNL     1      -5.158   1.411  25.314  0.00  0.00    +0.026 C 
ATOM     12  C   UNL     1      -5.177   2.236  25.299  0.00  0.00    +0.073 C 
ATOM     13  N   UNL     1      -4.524   2.497  24.869  0.00  0.00    -0.268 NA
ATOM     21  C   UNL     1      -4.102   1.834  24.618  0.00  0.00    +0.080 C 
ENDROOT
BRANCH  10   8
ATOM      3  C   UNL     1      -3.198  -2.129  24.637  0.00  0.00    +0.140 A 
ATOM      4  C   UNL     1      -3.092  -1.404  25.015  0.00  0.00    +0.058 A 
ATOM      5  C   UNL     1      -3.599  -0.774  24.851  0.00  0.00    +0.103 A 
ATOM      6  C   UNL     1      -4.213  -0.870  24.308  0.00  0.00    +0.100 A 
ATOM      7  N   UNL     1      -4.622  -0.156  24.258  0.00  0.00    -0.229 NA
ATOM      8  C   UNL     1      -4.262   0.381  24.770  0.00  0.00    +0.140 A 
ATOM      9  N   UNL     1      -3.630  -0.002  25.136  0.00  0.00    -0.229 NA
ATOM     22  C   UNL     1      -4.319  -1.596  23.929  0.00  0.00    +0.024 A 
ATOM     23  C   UNL     1      -3.812  -2.225  24.094  0.00  0.00    +0.039 A 
BRANCH   3   2
ATOM      1  C   UNL     1      -1.924  -2.761  24.498  0.00  0.00    +0.252 C 
ATOM      2  O   UNL     1      -2.691  -2.758  24.801  0.00  0.00    -0.471 OA
ENDBRANCH   3   2
ENDBRANCH  10   8
BRANCH  13  14
ATOM     14  C   UNL     1      -4.327   3.284  24.716  0.00  0.00    +0.101 C 
BRANCH  14  15
ATOM     15  C   UNL     1      -3.649   3.613  25.053  0.00  0.00    +0.013 A 
ATOM     16  C   UNL     1      -3.666   3.883  25.833  0.00  0.00    +0.000 A 
ATOM     17  C   UNL     1      -2.989   4.212  26.169  0.00  0.00    +0.020 A 
ATOM     18  C   UNL     1      -2.295   4.271  25.727  0.00  0.00    +0.099 A 
ATOM     19  N   UNL     1      -2.278   4.001  24.947  0.00  0.00    -0.243 NA
ATOM     20  C   UNL     1      -2.956   3.672  24.610  0.00  0.00    +0.096 A 
ENDBRANCH  14  15
ENDBRANCH  13  14
TORSDOF 4
ENDMDL
MODEL 2
REMARK VINA RESULT:     -10.6      1.960      5.145
REMARK  Name = 
REMARK  4 active torsions:
REMARK  status: ('A' for Active; 'I' for Inactive)
REMARK    1  A    between atoms: O_2  and  C_3
REMARK    2  A    between atoms: C_8  and  C_10
REMARK    3  A    between atoms: N_13  and  C_14
REMARK    4  A    between atoms: C_14  and  C_15
REMARK                            x       y       z     vdW  Elec       q    Type
REMARK                         _______ _______ _______ _____ _____    ______ ____
ROOT
ATOM     10  C   UNL     1      -3.288   1.309  24.349  0.00  0.00    +0.076 C 
ATOM     11  C   UNL     1      -3.252   0.999  23.586  0.00  0.00    +0.026 C 
ATOM     12  C   UNL     1      -3.662   0.283  23.582  0.00  0.00    +0.073 C 
ATOM     13  N   UNL     1      -3.951   0.151  24.343  0.00  0.00    -0.268 NA
ATOM     21  C   UNL     1      -3.720   0.786  24.817  0.00  0.00    +0.080 C 
ENDROOT
BRANCH  10   8
ATOM      3  C   UNL     1      -1.496   4.242  25.230  0.00  0.00    +0.140 A 
ATOM      4  C   UNL     1      -1.437   3.529  24.820  0.00  0.00    +0.058 A 
ATOM      5  C   UNL     1      -2.080   3.012  24.794  0.00  0.00    +0.103 A 
ATOM      6  C   UNL     1      -2.783   3.210  25.179  0.00  0.00    +0.100 A 
ATOM      7  N   UNL     1      -3.320   2.596  25.059  0.00  0.00    -0.229 NA
ATOM      8  C   UNL     1      -2.951   2.019  24.601  0.00  0.00    +0.140 A 
ATOM      9  N   UNL     1      -2.184   2.277  24.437  0.00  0.00    -0.229 NA
ATOM     22  C   UNL     1      -2.842   3.924  25.590  0.00  0.00    +0.024 A 
ATOM     23  C   UNL     1      -2.199   4.439  25.614  0.00  0.00    +0.039 A 
BRANCH   3   2
ATOM      1  C   UNL     1      -0.877   5.467  24.835  0.00  0.00    +0.252 C 
ATOM      2  O   UNL     1      -0.854   4.757  25.255  0.00  0.00    -0.471 OA
ENDBRANCH   3   2
ENDBRANCH  10   8
BRANCH  13  14
ATOM     14  C   UNL     1      -4.394  -0.500  24.587  0.00  0.00    +0.101 C 
BRANCH  14  15
ATOM     15  C   UNL     1      -4.036  -1.241  24.659  0.00  0.00    +0.013 A 
ATOM     16  C   UNL     1      -4.104  -1.793  24.049  0.00  0.00    +0.000 A 
ATOM     17  C   UNL     1      -3.745  -2.532  24.121  0.00  0.00    +0.020 A 
ATOM     18  C   UNL     1      -3.319  -2.720  24.802  0.00  0.00    +0.099 A 
ATOM     19  N   UNL     1      -3.251  -2.168  25.411  0.00  0.00    -0.243 NA
ATOM     20  C   UNL     1      -3.610  -1.427  25.340  0.00  0.00    +0.096 A 
ENDBRANCH  14  15
ENDBRANCH  13  14
TORSDOF 4
ENDMDL
MODEL 3
REMARK VINA RESULT:     -10.2      2.033      2.844
REMARK  Name = 
REMARK  4 active torsions:
REMARK  status: ('A' for Active; 'I' for Inactive)
REMARK    1  A    between atoms: O_2  and  C_3
REMARK    2  A    between atoms: C_8  and  C_10
REMARK    3  A    between atoms: N_13  and  C_14
REMARK    4  A    between atoms: C_14  and  C_15
REMARK                            x       y       z     vdW  Elec       q    Type
REMARK                         _______ _______ _______ _____ _____    ______ ____
ROOT
ATOM     10  C   UNL     1      -0.930   0.808  24.907  0.00  0.00    +0.076 C 
ATOM     11  C   UNL     1      -0.349   1.088  24.393  0.00  0.00    +0.026 C 
ATOM     12  C   UNL     1      -0.098   1.825  24.666  0.00  0.00    +0.073 C 
ATOM     13  N   UNL     1      -0.524   2.000  25.351  0.00  0.00    -0.268 NA
ATOM     21  C   UNL     1      -1.038   1.372  25.499  0.00  0.00    +0.080 C 
ENDROOT
BRANCH  10   8
ATOM      3  C   UNL     1      -3.007  -2.055  24.637  0.00  0.00    +0.140 A 
ATOM      4  C   UNL     1      -3.019  -1.234  24.707  0.00  0.00    +0.058 A 
ATOM      5  C   UNL     1      -2.311  -0.812  24.752  0.00  0.00    +0.103 A 
ATOM      6  C   UNL     1      -1.590  -1.213  24.725  0.00  0.00    +0.100 A 
ATOM      7  N   UNL     1      -0.985  -0.655  24.780  0.00  0.00    -0.229 NA
ATOM      8  C   UNL     1      -1.332   0.091  24.840  0.00  0.00    +0.140 A 
ATOM      9  N   UNL     1      -2.150  -0.007  24.823  0.00  0.00    -0.229 NA
ATOM     22  C   UNL     1      -1.578  -2.036  24.654  0.00  0.00    +0.024 A 
ATOM     23  C   UNL     1      -2.286  -2.456  24.610  0.00  0.00    +0.039 A 
BRANCH   3   2
ATOM      1  C   UNL     1      -4.154  -2.472  23.894  0.00  0.00    +0.252 C 
ATOM      2  O   UNL     1      -3.714  -2.475  24.592  0.00  0.00    -0.471 OA
ENDBRANCH   3   2
ENDBRANCH  10   8
BRANCH  13  14
ATOM     14  C   UNL     1      -0.450   2.683  25.807  0.00  0.00    +0.101 C 
BRANCH  14  15
ATOM     15  C   UNL     1      -0.901   3.351  25.627  0.00  0.00    +0.013 A 
ATOM     16  C   UNL     1      -0.588   3.943  25.145  0.00  0.00    +0.000 A 
ATOM     17  C   UNL     1      -1.039   4.610  24.967  0.00  0.00    +0.020 A 
ATOM     18  C   UNL     1      -1.803   4.686  25.269  0.00  0.00    +0.099 A 
ATOM     19  N   UNL     1      -2.116   4.093  25.751  0.00  0.00    -0.243 NA
ATOM     20  C   UNL     1      -1.665   3.426  25.930  0.00  0.00    +0.096 A 
ENDBRANCH  14  15
ENDBRANCH  13  14
TORSDOF 4
ENDMDL
