MODEL 1
REMARK VINA RESULT:     -17.7      0.000      0.000
REMARK  Name = 
REMARK  2 active torsions:
REMARK  status: ('A' for Active; 'I' for Inactive)
REMARK    1  A    between atoms: C_5  and  C_8
REMARK    2  A    between atoms: C_17  and  C_24
REMARK                            x       y       z     vdW  Elec       q    Type
REMARK                         _______ _______ _______ _____ _____    ______ ____
ROOT
ATOM      8  C   UNL     1      -3.836   3.338  24.401  0.00  0.00    +0.249 C 
ATOM      9  O   UNL     1      -3.674   4.212  24.253  0.00  0.00    -0.270 OA
ATOM     10  N   UNL     1      -3.215   2.729  24.201  0.00  0.00    -0.276 N 
ATOM     11  C   UNL     1      -2.454   2.561  23.901  0.00  0.00    +0.096 C 
ATOM     12  C   UNL     1      -2.452   1.577  23.993  0.00  0.00    +0.043 C 
ATOM     13  C   UNL     1      -2.295   0.778  24.002  0.00  0.00    +0.011 C 
ATOM     14  C   UNL     1      -2.823   1.205  24.181  0.00  0.00    +0.058 C 
ATOM     15  C   UNL     1      -2.809   2.155  24.086  0.00  0.00    +0.099 C 
ATOM     16  C   UNL     1      -3.672   1.194  24.533  0.00  0.00    +0.037 A 
ATOM     17  C   UNL     1      -4.240   0.669  24.817  0.00  0.00    -0.011 A 
ATOM     18  C   UNL     1      -4.965   0.953  25.090  0.00  0.00    +0.002 A 
ATOM     19  C   UNL     1      -5.120   1.763  25.079  0.00  0.00    +0.060 A 
ATOM     20  C   UNL     1      -4.552   2.289  24.795  0.00  0.00    +0.261 A 
ATOM     21  O   UNL     1      -4.708   3.303  24.765  0.00  0.00    -0.267 OA
ATOM     22  N   UNL     1      -3.827   2.004  24.522  0.00  0.00    -0.299 N 
ATOM     23  C   UNL     1      -3.340   1.576  24.360  0.00  0.00    +0.110 C 
ENDROOT
BRANCH   8   5
ATOM      1  F   UNL     1      -6.297   1.522  25.923  0.00  0.00    -0.204 F 
ATOM      2  C   UNL     1      -5.711   1.947  25.530  0.00  0.00    +0.140 A 
ATOM      3  C   UNL     1      -5.688   1.770  24.739  0.00  0.00    +0.030 A 
ATOM      4  C   UNL     1      -5.013   2.269  24.324  0.00  0.00    +0.007 A 
ATOM      5  C   UNL     1      -4.537   2.798  24.742  0.00  0.00    +0.054 A 
ATOM      6  C   UNL     1      -4.647   2.902  25.552  0.00  0.00    +0.007 A 
ATOM      7  C   UNL     1      -5.235   2.477  25.946  0.00  0.00    +0.030 A 
ENDBRANCH   8   5
BRANCH  17  24
ATOM     24  C   UNL     1      -4.084  -0.142  24.828  0.00  0.00    +0.023 C 
ATOM     25  C   UNL     1      -4.277  -0.608  24.175  0.00  0.00    +0.004 C 
ATOM     26  C   UNL     1      -4.121  -1.418  24.186  0.00  0.00    +0.000 C 
ATOM     27  C   UNL     1      -3.772  -1.762  24.850  0.00  0.00    +0.000 C 
ATOM     28  C   UNL     1      -3.580  -1.296  25.503  0.00  0.00    +0.000 C 
ATOM     29  C   UNL     1      -3.736  -0.486  25.492  0.00  0.00    +0.004 C 
ENDBRANCH  17  24
TORSDOF 2
ENDMDL
MODEL 2
REMARK VINA RESULT:     -17.2      1.195      2.283
REMARK  Name = 
REMARK  2 active torsions:
REMARK  status: ('A' for Active; 'I' for Inactive)
REMARK    1  A    between atoms: C_5  and  C_8
REMARK    2  A    between atoms: C_17  and  C_24
REMARK                            x       y       z     vdW  Elec       q    Type
REMARK                         _______ _______ _______ _____ _____    ______ ____
ROOT
ATOM      8  C   UNL     1      -3.927   3.246  24.306  0.00  0.00    +0.249 C 
ATOM      9  O   UNL     1      -4.095   4.131  24.325  0.00  0.00    -0.270 OA
ATOM     10  N   UNL     1      -4.505   2.674  24.673  0.00  0.00    -0.276 N 
ATOM     11  C   UNL     1      -5.224   2.553  25.081  0.00  0.00    +0.096 C 
ATOM     12  C   UNL     1      -5.209   1.568  25.154  0.00  0.00    +0.043 C 
ATOM     13  C   UNL     1      -5.345   0.777  25.295  0.00  0.00    +0.011 C 
ATOM     14  C   UNL     1      -4.852   1.173  24.990  0.00  0.00    +0.058 C 
ATOM     15  C   UNL     1      -4.881   2.125  24.927  0.00  0.00    +0.099 C 
ATOM     16  C   UNL     1      -4.047   1.110  24.550  0.00  0.00    +0.037 A 
ATOM     17  C   UNL     1      -3.500   0.548  24.295  0.00  0.00    -0.011 A 
ATOM     18  C   UNL     1      -2.818   0.789  23.898  0.00  0.00    +0.002 A 
ATOM     19  C   UNL     1      -2.683   1.591  23.757  0.00  0.00    +0.060 A 
ATOM     20  C   UNL     1      -3.231   2.152  24.013  0.00  0.00    +0.261 A 
ATOM     21  O   UNL     1      -3.100   3.158  23.857  0.00  0.00    -0.267 OA
ATOM     22  N   UNL     1      -3.913   1.911  24.409  0.00  0.00    -0.299 N 
ATOM     23  C   UNL     1      -4.368   1.512  24.694  0.00  0.00    +0.110 C 
ENDROOT
BRANCH   8   5
ATOM      1  F   UNL     1      -1.309   1.254  23.385  0.00  0.00    -0.204 F 
ATOM      2  C   UNL     1      -1.956   1.724  23.584  0.00  0.00    +0.140 A 
ATOM      3  C   UNL     1      -2.583   1.602  23.084  0.00  0.00    +0.030 A 
ATOM      4  C   UNL     1      -3.299   2.149  23.339  0.00  0.00    +0.007 A 
ATOM      5  C   UNL     1      -3.253   2.662  23.983  0.00  0.00    +0.054 A 
ATOM      6  C   UNL     1      -2.560   2.707  24.427  0.00  0.00    +0.007 A 
ATOM      7  C   UNL     1      -1.912   2.237  24.228  0.00  0.00    +0.030 A 
ENDBRANCH   8   5
BRANCH  17  24
ATOM     24  C   UNL     1      -3.634  -0.253  24.436  0.00  0.00    +0.023 C 
ATOM     25  C   UNL     1      -4.033  -0.709  23.876  0.00  0.00    +0.004 C 
ATOM     26  C   UNL     1      -4.167  -1.511  24.017  0.00  0.00    +0.000 C 
ATOM     27  C   UNL     1      -3.903  -1.857  24.718  0.00  0.00    +0.000 C 
ATOM     28  C   UNL     1      -3.504  -1.401  25.277  0.00  0.00    +0.000 C 
ATOM     29  C   UNL     1      -3.370  -0.599  25.136  0.00  0.00    +0.004 C 
ENDBRANCH  17  24
TORSDOF 2
ENDMDL
