MODEL 1
REMARK VINA RESULT:     -13.6      0.000      0.000
REMARK  Name = 
REMARK  5 active torsions:
REMARK  status: ('A' for Active; 'I' for Inactive)
REMARK    1  A    between atoms: S_2  and  N_4
REMARK    2  A    between atoms: S_2  and  C_27
REMARK    3  A    between atoms: C_7  and  C_9
REMARK    4  A    between atoms: N_17  and  S_18
REMARK    5  A    between atoms: S_18  and  C_21
REMARK                            x       y       z     vdW  Elec       q    Type
REMARK                         _______ _______ _______ _____ _____    ______ ____
ROOT
ATOM      9  C   UNL     1      -2.200   2.570  24.333  0.00  0.00    +0.142 A 
ATOM     10  N   UNL     1      -1.412   2.781  24.215  0.00  0.00    -0.229 NA
ATOM     11  C   UNL     1      -1.298   3.531  24.537  0.00  0.00    +0.100 A 
ATOM     12  C   UNL     1      -2.016   3.784  24.855  0.00  0.00    +0.101 A 
ATOM     13  C   UNL     1      -2.068   4.524  25.218  0.00  0.00    +0.021 A 
ATOM     14  C   UNL     1      -1.403   5.009  25.263  0.00  0.00    +0.002 A 
ATOM     15  C   UNL     1      -0.685   4.756  24.946  0.00  0.00    +0.002 A 
ATOM     16  C   UNL     1      -0.632   4.017  24.583  0.00  0.00    +0.021 A 
ATOM     17  N   UNL     1      -2.574   3.191  24.728  0.00  0.00    -0.194 N 
ENDROOT
BRANCH   9   7
ATOM      4  N   UNL     1      -2.991   0.602  24.091  0.00  0.00    -0.155 NA
ATOM      5  C   UNL     1      -3.205   0.948  23.374  0.00  0.00    +0.096 C 
ATOM      6  C   UNL     1      -2.935   1.728  23.377  0.00  0.00    +0.028 C 
ATOM      7  C   UNL     1      -2.554   1.863  24.097  0.00  0.00    +0.078 C 
ATOM      8  C   UNL     1      -2.588   1.167  24.538  0.00  0.00    +0.103 C 
BRANCH   4   2
ATOM      1  O   UNL     1      -2.355  -0.282  24.509  0.00  0.00    -0.153 OA
ATOM      2  S   UNL     1      -3.151  -0.174  24.322  0.00  0.00    +0.063 S 
ATOM      3  O   UNL     1      -3.948  -0.066  24.136  0.00  0.00    -0.153 OA
BRANCH   2  27
ATOM     27  C   UNL     1      -3.310  -0.950  24.554  0.00  0.00    +0.122 A 
ATOM     28  C   UNL     1      -3.195  -1.179  25.338  0.00  0.00    +0.020 A 
ATOM     29  C   UNL     1      -3.354  -1.954  25.570  0.00  0.00    +0.001 A 
ATOM     30  C   UNL     1      -3.629  -2.502  25.017  0.00  0.00    +0.000 A 
ATOM     31  C   UNL     1      -3.745  -2.273  24.233  0.00  0.00    +0.001 A 
ATOM     32  C   UNL     1      -3.585  -1.497  24.002  0.00  0.00    +0.020 A 
ENDBRANCH   2  27
ENDBRANCH   4   2
ENDBRANCH   9   7
BRANCH  17  18
ATOM     18  S   UNL     1      -3.365   3.213  24.957  0.00  0.00    +0.087 S 
ATOM     19  O   UNL     1      -3.570   3.526  24.221  0.00  0.00    -0.148 OA
ATOM     20  O   UNL     1      -3.162   2.899  25.692  0.00  0.00    -0.148 OA
BRANCH  18  21
ATOM     21  C   UNL     1      -4.158   3.235  25.186  0.00  0.00    +0.128 A 
ATOM     22  C   UNL     1      -4.388   2.901  25.905  0.00  0.00    +0.020 A 
ATOM     23  C   UNL     1      -5.181   2.923  26.134  0.00  0.00    +0.001 A 
ATOM     24  C   UNL     1      -5.742   3.278  25.645  0.00  0.00    +0.000 A 
ATOM     25  C   UNL     1      -5.512   3.612  24.926  0.00  0.00    +0.001 A 
ATOM     26  C   UNL     1      -4.719   3.590  24.697  0.00  0.00    +0.020 A 
ENDBRANCH  18  21
ENDBRANCH  17  18
TORSDOF 5
ENDMDL
MODEL 2
REMARK VINA RESULT:     -12.6      2.142      4.157
REMARK  Name = 
REMARK  5 active torsions:
REMARK  status: ('A' for Active; 'I' for Inactive)
REMARK    1  A    between atoms: S_2  and  N_4
REMARK    2  A    between atoms: S_2  and  C_27
REMARK    3  A    between atoms: C_7  and  C_9
REMARK    4  A    between atoms: N_17  and  S_18
REMARK    5  A    between atoms: S_18  and  C_21
REMARK                            x       y       z     vdW  Elec       q    Type
REMARK                         _______ _______ _______ _____ _____    ______ ____
ROOT
ATOM      9  C   UNL     1      -3.014   1.250  24.940  0.00  0.00    +0.142 A 
ATOM     10  N   UNL     1      -3.254   2.035  25.018  0.00  0.00    -0.229 NA
ATOM     11  C   UNL     1      -4.077   2.055  24.983  0.00  0.00    +0.100 A 
ATOM     12  C   UNL     1      -4.347   1.281  24.884  0.00  0.00    +0.101 A 
ATOM     13  C   UNL     1      -5.157   1.131  24.830  0.00  0.00    +0.021 A 
ATOM     14  C   UNL     1      -5.696   1.753  24.876  0.00  0.00    +0.002 A 
ATOM     15  C   UNL     1      -5.426   2.526  24.976  0.00  0.00    +0.002 A 
ATOM     16  C   UNL     1      -4.617   2.678  25.030  0.00  0.00    +0.021 A 
ATOM     17  N   UNL     1      -3.690   0.784  24.857  0.00  0.00    -0.194 N 
ENDROOT
BRANCH   9   7
ATOM      4  N   UNL     1      -1.010   0.627  24.546  0.00  0.00    -0.155 NA
ATOM      5  C   UNL     1      -1.062   0.491  25.358  0.00  0.00    +0.096 C 
ATOM      6  C   UNL     1      -1.820   0.707  25.604  0.00  0.00    +0.028 C 
ATOM      7  C   UNL     1      -2.235   0.978  24.944  0.00  0.00    +0.078 C 
ATOM      8  C   UNL     1      -1.735   0.928  24.290  0.00  0.00    +0.103 C 
BRANCH   4   2
ATOM      1  O   UNL     1      -0.251  -0.251  24.428  0.00  0.00    -0.153 OA
ATOM      2  S   UNL     1      -0.350   0.487  24.072  0.00  0.00    +0.063 S 
ATOM      3  O   UNL     1      -0.449   1.225  23.715  0.00  0.00    -0.153 OA
BRANCH   2  27
ATOM     27  C   UNL     1       0.311   0.346  23.598  0.00  0.00    +0.122 A 
ATOM     28  C   UNL     1       0.970   0.840  23.652  0.00  0.00    +0.020 A 
ATOM     29  C   UNL     1       1.631   0.700  23.178  0.00  0.00    +0.001 A 
ATOM     30  C   UNL     1       1.633   0.065  22.650  0.00  0.00    +0.000 A 
ATOM     31  C   UNL     1       0.974  -0.428  22.596  0.00  0.00    +0.001 A 
ATOM     32  C   UNL     1       0.313  -0.287  23.070  0.00  0.00    +0.020 A 
ENDBRANCH   2  27
ENDBRANCH   4   2
ENDBRANCH   9   7
BRANCH  17  18
ATOM     18  S   UNL     1      -3.706  -0.035  24.763  0.00  0.00    +0.087 S 
ATOM     19  O   UNL     1      -3.726  -0.129  25.583  0.00  0.00    -0.148 OA
ATOM     20  O   UNL     1      -3.686   0.058  23.944  0.00  0.00    -0.148 OA
BRANCH  18  21
ATOM     21  C   UNL     1      -3.721  -0.855  24.669  0.00  0.00    +0.128 A 
ATOM     22  C   UNL     1      -3.851  -1.182  23.923  0.00  0.00    +0.020 A 
ATOM     23  C   UNL     1      -3.867  -2.002  23.829  0.00  0.00    +0.001 A 
ATOM     24  C   UNL     1      -3.752  -2.494  24.481  0.00  0.00    +0.000 A 
ATOM     25  C   UNL     1      -3.622  -2.167  25.228  0.00  0.00    +0.001 A 
ATOM     26  C   UNL     1      -3.607  -1.347  25.321  0.00  0.00    +0.020 A 
ENDBRANCH  18  21
ENDBRANCH  17  18
TORSDOF 5
ENDMDL
MODEL 3
REMARK VINA RESULT:     -12.5      1.228      2.576
REMARK  Name = 
REMARK  5 active torsions:
REMARK  status: ('A' for Active; 'I' for Inactive)
REMARK    1  A    between atoms: S_2  and  N_4
REMARK    2  A    between atoms: S_2  and  C_27
REMARK    3  A    between atoms: C_7  and  C_9
REMARK    4  A    between atoms: N_17  and  S_18
REMARK    5  A    between atoms: S_18  and  C_21
REMARK                            x       y       z     vdW  Elec       q    Type
REMARK                         _______ _______ _______ _____ _____    ______ ____
ROOT
ATOM      9  C   UNL     1      -3.473   2.284  24.839  0.00  0.00    +0.142 A 
ATOM     10  N   UNL     1      -4.141   2.704  25.079  0.00  0.00    -0.229 NA
ATOM     11  C   UNL     1      -3.888   3.381  25.475  0.00  0.00    +0.100 A 
ATOM     12  C   UNL     1      -3.063   3.381  25.480  0.00  0.00    +0.101 A 
ATOM     13  C   UNL     1      -2.653   3.998  25.842  0.00  0.00    +0.021 A 
ATOM     14  C   UNL     1      -3.066   4.616  26.199  0.00  0.00    +0.002 A 
ATOM     15  C   UNL     1      -3.891   4.616  26.194  0.00  0.00    +0.002 A 
ATOM     16  C   UNL     1      -4.303   3.999  25.832  0.00  0.00    +0.021 A 
ATOM     17  N   UNL     1      -2.806   2.703  25.087  0.00  0.00    -0.194 N 
ENDROOT
BRANCH   9   7
ATOM      4  N   UNL     1      -3.519   0.268  24.138  0.00  0.00    -0.155 NA
ATOM      5  C   UNL     1      -3.416   0.680  23.431  0.00  0.00    +0.096 C 
ATOM      6  C   UNL     1      -3.386   1.486  23.607  0.00  0.00    +0.028 C 
ATOM      7  C   UNL     1      -3.471   1.571  24.424  0.00  0.00    +0.078 C 
ATOM      8  C   UNL     1      -3.552   0.819  24.752  0.00  0.00    +0.103 C 
BRANCH   4   2
ATOM      1  O   UNL     1      -4.347  -0.468  24.504  0.00  0.00    -0.153 OA
ATOM      2  S   UNL     1      -3.577  -0.551  24.219  0.00  0.00    +0.063 S 
ATOM      3  O   UNL     1      -2.807  -0.635  23.934  0.00  0.00    -0.153 OA
BRANCH   2  27
ATOM     27  C   UNL     1      -3.637  -1.370  24.299  0.00  0.00    +0.122 A 
ATOM     28  C   UNL     1      -3.144  -1.770  24.828  0.00  0.00    +0.020 A 
ATOM     29  C   UNL     1      -3.203  -2.588  24.909  0.00  0.00    +0.001 A 
ATOM     30  C   UNL     1      -3.755  -3.008  24.461  0.00  0.00    +0.000 A 
ATOM     31  C   UNL     1      -4.247  -2.609  23.933  0.00  0.00    +0.001 A 
ATOM     32  C   UNL     1      -4.187  -1.790  23.852  0.00  0.00    +0.020 A 
ENDBRANCH   2  27
ENDBRANCH   4   2
ENDBRANCH   9   7
BRANCH  17  18
ATOM     18  S   UNL     1      -2.021   2.482  24.963  0.00  0.00    +0.087 S 
ATOM     19  O   UNL     1      -2.025   2.875  24.237  0.00  0.00    -0.148 OA
ATOM     20  O   UNL     1      -2.018   2.089  25.688  0.00  0.00    -0.148 OA
BRANCH  18  21
ATOM     21  C   UNL     1      -1.236   2.261  24.839  0.00  0.00    +0.128 A 
ATOM     22  C   UNL     1      -0.842   1.807  25.405  0.00  0.00    +0.020 A 
ATOM     23  C   UNL     1      -0.056   1.586  25.281  0.00  0.00    +0.001 A 
ATOM     24  C   UNL     1       0.334   1.819  24.593  0.00  0.00    +0.000 A 
ATOM     25  C   UNL     1      -0.060   2.272  24.028  0.00  0.00    +0.001 A 
ATOM     26  C   UNL     1      -0.845   2.494  24.151  0.00  0.00    +0.020 A 
ENDBRANCH  18  21
ENDBRANCH  17  18
TORSDOF 5
ENDMDL
MODEL 4
REMARK VINA RESULT:     -12.4      1.167      4.445
REMARK  Name = 
REMARK  5 active torsions:
REMARK  status: ('A' for Active; 'I' for Inactive)
REMARK    1  A    between atoms: S_2  and  N_4
REMARK    2  A    between atoms: S_2  and  C_27
REMARK    3  A    between atoms: C_7  and  C_9
REMARK    4  A    between atoms: N_17  and  S_18
REMARK    5  A    between atoms: S_18  and  C_21
REMARK                            x       y       z     vdW  Elec       q    Type
REMARK                         _______ _______ _______ _____ _____    ______ ____
ROOT
ATOM      9  C   UNL     1      -2.689   0.256  24.343  0.00  0.00    +0.142 A 
ATOM     10  N   UNL     1      -2.185  -0.395  24.298  0.00  0.00    -0.229 NA
ATOM     11  C   UNL     1      -2.588  -1.051  24.593  0.00  0.00    +0.100 A 
ATOM     12  C   UNL     1      -3.342  -0.805  24.821  0.00  0.00    +0.101 A 
ATOM     13  C   UNL     1      -3.874  -1.350  25.139  0.00  0.00    +0.021 A 
ATOM     14  C   UNL     1      -3.652  -2.138  25.230  0.00  0.00    +0.002 A 
ATOM     15  C   UNL     1      -2.898  -2.384  25.002  0.00  0.00    +0.002 A 
ATOM     16  C   UNL     1      -2.366  -1.841  24.684  0.00  0.00    +0.021 A 
ATOM     17  N   UNL     1      -3.405   0.002  24.666  0.00  0.00    -0.194 N 
ENDROOT
BRANCH   9   7
ATOM      4  N   UNL     1      -2.131   2.306  24.130  0.00  0.00    -0.155 NA
ATOM      5  C   UNL     1      -2.336   2.115  23.354  0.00  0.00    +0.096 C 
ATOM      6  C   UNL     1      -2.570   1.324  23.339  0.00  0.00    +0.028 C 
ATOM      7  C   UNL     1      -2.510   1.026  24.106  0.00  0.00    +0.078 C 
ATOM      8  C   UNL     1      -2.239   1.633  24.595  0.00  0.00    +0.103 C 
BRANCH   4   2
ATOM      1  O   UNL     1      -2.526   3.401  24.056  0.00  0.00    -0.153 OA
ATOM      2  S   UNL     1      -1.866   3.041  24.395  0.00  0.00    +0.063 S 
ATOM      3  O   UNL     1      -1.206   2.680  24.735  0.00  0.00    -0.153 OA
BRANCH   2  27
ATOM     27  C   UNL     1      -1.602   3.776  24.660  0.00  0.00    +0.122 A 
ATOM     28  C   UNL     1      -2.103   4.261  25.102  0.00  0.00    +0.020 A 
ATOM     29  C   UNL     1      -1.839   4.996  25.367  0.00  0.00    +0.001 A 
ATOM     30  C   UNL     1      -1.072   5.247  25.190  0.00  0.00    +0.000 A 
ATOM     31  C   UNL     1      -0.572   4.763  24.749  0.00  0.00    +0.001 A 
ATOM     32  C   UNL     1      -0.837   4.027  24.484  0.00  0.00    +0.020 A 
ENDBRANCH   2  27
ENDBRANCH   4   2
ENDBRANCH   9   7
BRANCH  17  18
ATOM     18  S   UNL     1      -4.066   0.474  24.810  0.00  0.00    +0.087 S 
ATOM     19  O   UNL     1      -3.797   0.618  25.577  0.00  0.00    -0.148 OA
ATOM     20  O   UNL     1      -4.335   0.330  24.044  0.00  0.00    -0.148 OA
BRANCH  18  21
ATOM     21  C   UNL     1      -4.728   0.945  24.953  0.00  0.00    +0.128 A 
ATOM     22  C   UNL     1      -4.816   1.321  25.683  0.00  0.00    +0.020 A 
ATOM     23  C   UNL     1      -5.478   1.792  25.826  0.00  0.00    +0.001 A 
ATOM     24  C   UNL     1      -6.051   1.889  25.240  0.00  0.00    +0.000 A 
ATOM     25  C   UNL     1      -5.962   1.514  24.511  0.00  0.00    +0.001 A 
ATOM     26  C   UNL     1      -5.300   1.042  24.367  0.00  0.00    +0.020 A 
ENDBRANCH  18  21
ENDBRANCH  17  18
TORSDOF 5
ENDMDL
MODEL 5
REMARK VINA RESULT:     -12.3      1.684      4.534
REMARK  Name = 
REMARK  5 active torsions:
REMARK  status: ('A' for Active; 'I' for Inactive)
REMARK    1  A    between atoms: S_2  and  N_4
REMARK    2  A    between atoms: S_2  and  C_27
REMARK    3  A    between atoms: C_7  and  C_9
REMARK    4  A    between atoms: N_17  and  S_18
REMARK    5  A    between atoms: S_18  and  C_21
REMARK                            x       y       z     vdW  Elec       q    Type
REMARK                         _______ _______ _______ _____ _____    ______ ____
ROOT
ATOM      9  C   UNL     1      -2.337  -0.200  24.463  0.00  0.00    +0.142 A 
ATOM     10  N   UNL     1      -2.550  -0.993  24.394  0.00  0.00    -0.229 NA
ATOM     11  C   UNL     1      -1.906  -1.451  24.629  0.00  0.00    +0.100 A 
ATOM     12  C   UNL     1      -1.294  -0.941  24.843  0.00  0.00    +0.101 A 
ATOM     13  C   UNL     1      -0.574  -1.247  25.104  0.00  0.00    +0.021 A 
ATOM     14  C   UNL     1      -0.465  -2.063  25.150  0.00  0.00    +0.002 A 
ATOM     15  C   UNL     1      -1.076  -2.574  24.936  0.00  0.00    +0.002 A 
ATOM     16  C   UNL     1      -1.797  -2.268  24.675  0.00  0.00    +0.021 A 
ATOM     17  N   UNL     1      -1.561  -0.167  24.741  0.00  0.00    -0.194 N 
ENDROOT
BRANCH   9   7
ATOM      4  N   UNL     1      -3.673   1.465  24.407  0.00  0.00    -0.155 NA
ATOM      5  C   UNL     1      -3.434   1.426  23.618  0.00  0.00    +0.096 C 
ATOM      6  C   UNL     1      -2.905   0.797  23.543  0.00  0.00    +0.028 C 
ATOM      7  C   UNL     1      -2.816   0.448  24.286  0.00  0.00    +0.078 C 
ATOM      8  C   UNL     1      -3.291   0.861  24.820  0.00  0.00    +0.103 C 
BRANCH   4   2
ATOM      1  O   UNL     1      -4.547   1.414  25.177  0.00  0.00    -0.153 OA
ATOM      2  S   UNL     1      -4.200   2.012  24.727  0.00  0.00    +0.063 S 
ATOM      3  O   UNL     1      -3.854   2.611  24.278  0.00  0.00    -0.153 OA
BRANCH   2  27
ATOM     27  C   UNL     1      -4.729   2.559  25.049  0.00  0.00    +0.122 A 
ATOM     28  C   UNL     1      -5.512   2.342  25.191  0.00  0.00    +0.020 A 
ATOM     29  C   UNL     1      -6.040   2.888  25.512  0.00  0.00    +0.001 A 
ATOM     30  C   UNL     1      -5.785   3.653  25.690  0.00  0.00    +0.000 A 
ATOM     31  C   UNL     1      -5.003   3.870  25.548  0.00  0.00    +0.001 A 
ATOM     32  C   UNL     1      -4.474   3.323  25.227  0.00  0.00    +0.020 A 
ENDBRANCH   2  27
ENDBRANCH   4   2
ENDBRANCH   9   7
BRANCH  17  18
ATOM     18  S   UNL     1      -1.128   0.519  24.890  0.00  0.00    +0.087 S 
ATOM     19  O   UNL     1      -0.876   0.530  24.104  0.00  0.00    -0.148 OA
ATOM     20  O   UNL     1      -1.379   0.507  25.675  0.00  0.00    -0.148 OA
BRANCH  18  21
ATOM     21  C   UNL     1      -0.694   1.205  25.039  0.00  0.00    +0.128 A 
ATOM     22  C   UNL     1      -0.234   1.539  24.442  0.00  0.00    +0.020 A 
ATOM     23  C   UNL     1       0.200   2.226  24.591  0.00  0.00    +0.001 A 
ATOM     24  C   UNL     1       0.172   2.577  25.337  0.00  0.00    +0.000 A 
ATOM     25  C   UNL     1      -0.288   2.242  25.934  0.00  0.00    +0.001 A 
ATOM     26  C   UNL     1      -0.721   1.556  25.785  0.00  0.00    +0.020 A 
ENDBRANCH  18  21
ENDBRANCH  17  18
TORSDOF 5
ENDMDL
