MODEL 1
REMARK VINA RESULT:      -9.6      0.000      0.000
REMARK  Name = 
REMARK  8 active torsions:
REMARK  status: ('A' for Active; 'I' for Inactive)
REMARK    1  A    between atoms: N_2  and  C_3
REMARK    2  A    between atoms: C_3  and  C_4
REMARK    3  A    between atoms: C_10  and  C_12
REMARK    4  A    between atoms: C_12  and  C_13
REMARK    5  A    between atoms: C_26  and  N_34
REMARK    6  A    between atoms: N_34  and  C_36
REMARK    7  A    between atoms: C_36  and  C_37
REMARK    8  A    between atoms: C_37  and  C_38
REMARK                            x       y       z     vdW  Elec       q    Type
REMARK                         _______ _______ _______ _____ _____    ______ ____
ROOT
ATOM     13  C   UNL     1      -6.428 -10.529  16.871  0.00  0.00    +0.016 C 
ATOM     14  C   UNL     1      -5.916 -10.614  17.512  0.00  0.00    +0.022 C 
ATOM     15  C   UNL     1      -5.103 -10.666  17.386  0.00  0.00    +0.093 C 
ATOM     16  N   UNL     1      -4.753 -10.641  16.680  0.00  0.00    -0.278 N 
ATOM     17  C   UNL     1      -5.313 -10.548  15.978  0.00  0.00    +0.098 C 
ATOM     18  C   UNL     1      -6.119 -10.475  15.812  0.00  0.00    +0.042 C 
ATOM     19  C   UNL     1      -6.205 -10.409  14.993  0.00  0.00    -0.026 C 
ATOM     20  C   UNL     1      -5.453 -10.441  14.655  0.00  0.00    +0.016 C 
ATOM     21  C   UNL     1      -5.052 -10.412  13.846  0.00  0.00    +0.231 C 
ATOM     22  O   UNL     1      -4.287 -10.488  14.101  0.00  0.00    -0.471 OA
ATOM     23  C   UNL     1      -3.750 -10.552  14.419  0.00  0.00    +0.136 A 
ATOM     24  C   UNL     1      -4.234 -10.467  13.755  0.00  0.00    +0.038 A 
ATOM     25  C   UNL     1      -3.900 -10.437  13.002  0.00  0.00    +0.018 A 
ATOM     26  C   UNL     1      -3.081 -10.492  12.911  0.00  0.00    +0.048 A 
ATOM     27  C   UNL     1      -2.597 -10.577  13.575  0.00  0.00    +0.015 A 
ATOM     28  C   UNL     1      -2.931 -10.607  14.328  0.00  0.00    +0.030 A 
ATOM     29  C   UNL     1      -2.447 -10.691  14.990  0.00  0.00    +0.119 C 
ATOM     30  N   UNL     1      -2.782 -10.721  15.745  0.00  0.00    -0.204 NA
ATOM     31  C   UNL     1      -3.601 -10.666  15.835  0.00  0.00    +0.174 C 
ATOM     32  C   UNL     1      -3.935 -10.696  16.589  0.00  0.00    +0.243 C 
ATOM     33  O   UNL     1      -3.451 -10.780  17.251  0.00  0.00    -0.273 OA
ENDROOT
BRANCH  26  34
ATOM     34  N   UNL     1      -2.747 -10.463  12.158  0.00  0.00    -0.305 N 
ATOM     35  C   UNL     1      -1.928 -10.513  12.067  0.00  0.00    +0.112 C 
BRANCH  34  36
ATOM     36  C   UNL     1      -3.231 -10.383  11.495  0.00  0.00    +0.097 C 
BRANCH  36  37
ATOM     37  C   UNL     1      -2.908 -10.143  10.775  0.00  0.00    +0.067 C 
BRANCH  37  38
ATOM     38  C   UNL     1      -3.403  -9.949  10.145  0.00  0.00    +0.061 A 
ATOM     39  N   UNL     1      -3.856 -10.533   9.780  0.00  0.00    -0.248 NA
ATOM     40  C   UNL     1      -4.352 -10.339   9.150  0.00  0.00    +0.098 A 
ATOM     41  C   UNL     1      -4.395  -9.558   8.884  0.00  0.00    +0.021 A 
ATOM     42  C   UNL     1      -3.941  -8.973   9.249  0.00  0.00    +0.003 A 
ATOM     43  C   UNL     1      -3.446  -9.169   9.879  0.00  0.00    +0.015 A 
ENDBRANCH  37  38
ENDBRANCH  36  37
ENDBRANCH  34  36
ENDBRANCH  26  34
BRANCH  13  12
ATOM     12  C   UNL     1      -7.236 -10.480  17.033  0.00  0.00    +0.086 C 
BRANCH  12  10
ATOM      1  C   UNL     1      -8.842 -10.145  16.855  0.00  0.00    +0.115 C 
ATOM      2  N   UNL     1      -8.353  -9.620  17.263  0.00  0.00    -0.274 N 
ATOM     10  C   UNL     1      -7.551  -9.787  17.353  0.00  0.00    +0.226 C 
ATOM     11  O   UNL     1      -7.063  -9.262  17.761  0.00  0.00    -0.275 OA
BRANCH   2   3
ATOM      3  C   UNL     1      -8.669  -8.927  17.582  0.00  0.00    +0.122 C 
BRANCH   3   4
ATOM      4  C   UNL     1      -9.317  -8.566  17.223  0.00  0.00    +0.017 A 
ATOM      5  C   UNL     1     -10.054  -8.574  17.596  0.00  0.00    +0.001 A 
ATOM      6  C   UNL     1     -10.701  -8.212  17.236  0.00  0.00    +0.020 A 
ATOM      7  C   UNL     1     -10.614  -7.842  16.505  0.00  0.00    +0.099 A 
ATOM      8  N   UNL     1      -9.879  -7.834  16.131  0.00  0.00    -0.243 NA
ATOM      9  C   UNL     1      -9.230  -8.195  16.491  0.00  0.00    +0.096 A 
ENDBRANCH   3   4
ENDBRANCH   2   3
ENDBRANCH  12  10
ENDBRANCH  13  12
TORSDOF 8
ENDMDL
MODEL 2
REMARK VINA RESULT:      -8.2      3.810      6.960
REMARK  Name = 
REMARK  8 active torsions:
REMARK  status: ('A' for Active; 'I' for Inactive)
REMARK    1  A    between atoms: N_2  and  C_3
REMARK    2  A    between atoms: C_3  and  C_4
REMARK    3  A    between atoms: C_10  and  C_12
REMARK    4  A    between atoms: C_12  and  C_13
REMARK    5  A    between atoms: C_26  and  N_34
REMARK    6  A    between atoms: N_34  and  C_36
REMARK    7  A    between atoms: C_36  and  C_37
REMARK    8  A    between atoms: C_37  and  C_38
REMARK                            x       y       z     vdW  Elec       q    Type
REMARK                         _______ _______ _______ _____ _____    ______ ____
ROOT
ATOM     13  C   UNL     1      -4.030 -10.408  11.920  0.00  0.00    +0.016 C 
ATOM     14  C   UNL     1      -3.467 -10.487  11.322  0.00  0.00    +0.022 C 
ATOM     15  C   UNL     1      -3.655 -10.272  10.548  0.00  0.00    +0.093 C 
ATOM     16  N   UNL     1      -4.352  -9.984  10.316  0.00  0.00    -0.278 N 
ATOM     17  C   UNL     1      -4.968  -9.897  10.971  0.00  0.00    +0.098 C 
ATOM     18  C   UNL     1      -5.057 -10.024  11.782  0.00  0.00    +0.042 C 
ATOM     19  C   UNL     1      -5.823  -9.798  11.992  0.00  0.00    -0.026 C 
ATOM     20  C   UNL     1      -6.205  -9.532  11.311  0.00  0.00    +0.016 C 
ATOM     21  C   UNL     1      -7.003  -9.203  11.046  0.00  0.00    +0.231 C 
ATOM     22  O   UNL     1      -6.828  -9.112  10.261  0.00  0.00    -0.471 OA
ATOM     23  C   UNL     1      -6.573  -9.089   9.688  0.00  0.00    +0.136 A 
ATOM     24  C   UNL     1      -7.158  -8.997  10.262  0.00  0.00    +0.038 A 
ATOM     25  C   UNL     1      -7.898  -8.698  10.053  0.00  0.00    +0.018 A 
ATOM     26  C   UNL     1      -8.053  -8.492   9.268  0.00  0.00    +0.048 A 
ATOM     27  C   UNL     1      -7.467  -8.585   8.694  0.00  0.00    +0.015 A 
ATOM     28  C   UNL     1      -6.727  -8.883   8.904  0.00  0.00    +0.030 A 
ATOM     29  C   UNL     1      -6.143  -8.975   8.329  0.00  0.00    +0.119 C 
ATOM     30  N   UNL     1      -5.402  -9.273   8.539  0.00  0.00    -0.204 NA
ATOM     31  C   UNL     1      -5.247  -9.480   9.324  0.00  0.00    +0.174 C 
ATOM     32  C   UNL     1      -4.507  -9.778   9.533  0.00  0.00    +0.243 C 
ATOM     33  O   UNL     1      -3.923  -9.870   8.959  0.00  0.00    -0.273 OA
ENDROOT
BRANCH  26  34
ATOM     34  N   UNL     1      -8.793  -8.194   9.059  0.00  0.00    -0.305 N 
ATOM     35  C   UNL     1      -9.439  -8.702   8.992  0.00  0.00    +0.112 C 
BRANCH  34  36
ATOM     36  C   UNL     1      -8.887  -7.387   8.916  0.00  0.00    +0.097 C 
BRANCH  36  37
ATOM     37  C   UNL     1      -9.609  -7.098   8.641  0.00  0.00    +0.067 C 
BRANCH  37  38
ATOM     38  C   UNL     1      -9.783  -6.294   8.706  0.00  0.00    +0.061 A 
ATOM     39  N   UNL     1      -9.208  -5.732   8.528  0.00  0.00    -0.248 NA
ATOM     40  C   UNL     1      -9.382  -4.928   8.592  0.00  0.00    +0.098 A 
ATOM     41  C   UNL     1     -10.133  -4.686   8.835  0.00  0.00    +0.021 A 
ATOM     42  C   UNL     1     -10.710  -5.250   9.014  0.00  0.00    +0.003 A 
ATOM     43  C   UNL     1     -10.534  -6.054   8.949  0.00  0.00    +0.015 A 
ENDBRANCH  37  38
ENDBRANCH  36  37
ENDBRANCH  34  36
ENDBRANCH  26  34
BRANCH  13  12
ATOM     12  C   UNL     1      -3.809 -10.633  12.682  0.00  0.00    +0.086 C 
BRANCH  12  10
ATOM      1  C   UNL     1      -3.406 -10.781  14.276  0.00  0.00    +0.115 C 
ATOM      2  N   UNL     1      -2.818 -10.652  13.712  0.00  0.00    -0.274 N 
ATOM     10  C   UNL     1      -3.018 -10.577  12.916  0.00  0.00    +0.226 C 
ATOM     11  O   UNL     1      -2.430 -10.448  12.352  0.00  0.00    -0.275 OA
BRANCH   2   3
ATOM      3  C   UNL     1      -2.028 -10.596  13.946  0.00  0.00    +0.122 C 
BRANCH   3   4
ATOM      4  C   UNL     1      -1.837 -10.552  14.747  0.00  0.00    +0.017 A 
ATOM      5  C   UNL     1      -1.086 -10.301  14.979  0.00  0.00    +0.001 A 
ATOM      6  C   UNL     1      -0.895 -10.256  15.780  0.00  0.00    +0.020 A 
ATOM      7  C   UNL     1      -1.454 -10.462  16.349  0.00  0.00    +0.099 A 
ATOM      8  N   UNL     1      -2.206 -10.713  16.118  0.00  0.00    -0.243 NA
ATOM      9  C   UNL     1      -2.397 -10.758  15.317  0.00  0.00    +0.096 A 
ENDBRANCH   3   4
ENDBRANCH   2   3
ENDBRANCH  12  10
ENDBRANCH  13  12
TORSDOF 8
ENDMDL
MODEL 3
REMARK VINA RESULT:      -8.0     14.207     15.235
REMARK  Name = 
REMARK  8 active torsions:
REMARK  status: ('A' for Active; 'I' for Inactive)
REMARK    1  A    between atoms: N_2  and  C_3
REMARK    2  A    between atoms: C_3  and  C_4
REMARK    3  A    between atoms: C_10  and  C_12
REMARK    4  A    between atoms: C_12  and  C_13
REMARK    5  A    between atoms: C_26  and  N_34
REMARK    6  A    between atoms: N_34  and  C_36
REMARK    7  A    between atoms: C_36  and  C_37
REMARK    8  A    between atoms: C_37  and  C_38
REMARK                            x       y       z     vdW  Elec       q    Type
REMARK                         _______ _______ _______ _____ _____    ______ ____
ROOT
ATOM     13  C   UNL     1      -3.794   0.202  24.697  0.00  0.00    +0.016 C 
ATOM     14  C   UNL     1      -3.829  -0.425  25.231  0.00  0.00    +0.022 C 
ATOM     15  C   UNL     1      -3.162  -0.892  25.362  0.00  0.00    +0.093 C 
ATOM     16  N   UNL     1      -2.464  -0.791  25.009  0.00  0.00    -0.278 N 
ATOM     17  C   UNL     1      -2.426  -0.104  24.425  0.00  0.00    +0.098 C 
ATOM     18  C   UNL     1      -2.903   0.493  24.113  0.00  0.00    +0.042 C 
ATOM     19  C   UNL     1      -2.449   0.928  23.577  0.00  0.00    -0.026 C 
ATOM     20  C   UNL     1      -1.693   0.599  23.559  0.00  0.00    +0.016 C 
ATOM     21  C   UNL     1      -0.893   0.714  23.155  0.00  0.00    +0.231 C 
ATOM     22  O   UNL     1      -0.502   0.103  23.512  0.00  0.00    -0.471 OA
ATOM     23  C   UNL     1      -0.314  -0.391  23.850  0.00  0.00    +0.136 A 
ATOM     24  C   UNL     1      -0.245   0.228  23.309  0.00  0.00    +0.038 A 
ATOM     25  C   UNL     1       0.471   0.361  22.923  0.00  0.00    +0.018 A 
ATOM     26  C   UNL     1       1.120  -0.126  23.078  0.00  0.00    +0.048 A 
ATOM     27  C   UNL     1       1.051  -0.745  23.618  0.00  0.00    +0.015 A 
ATOM     28  C   UNL     1       0.335  -0.878  24.005  0.00  0.00    +0.030 A 
ATOM     29  C   UNL     1       0.267  -1.498  24.545  0.00  0.00    +0.119 C 
ATOM     30  N   UNL     1      -0.451  -1.631  24.932  0.00  0.00    -0.204 NA
ATOM     31  C   UNL     1      -1.099  -1.144  24.777  0.00  0.00    +0.174 C 
ATOM     32  C   UNL     1      -1.816  -1.277  25.163  0.00  0.00    +0.243 C 
ATOM     33  O   UNL     1      -1.884  -1.897  25.704  0.00  0.00    -0.273 OA
ENDROOT
BRANCH  26  34
ATOM     34  N   UNL     1       1.836   0.007  22.691  0.00  0.00    -0.305 N 
ATOM     35  C   UNL     1       1.856   0.077  21.870  0.00  0.00    +0.112 C 
BRANCH  34  36
ATOM     36  C   UNL     1       2.534   0.071  23.127  0.00  0.00    +0.097 C 
BRANCH  36  37
ATOM     37  C   UNL     1       3.239   0.273  22.749  0.00  0.00    +0.067 C 
BRANCH  37  38
ATOM     38  C   UNL     1       3.961   0.141  23.125  0.00  0.00    +0.061 A 
ATOM     39  N   UNL     1       4.132  -0.600  23.442  0.00  0.00    -0.248 NA
ATOM     40  C   UNL     1       4.854  -0.732  23.819  0.00  0.00    +0.098 A 
ATOM     41  C   UNL     1       5.407  -0.121  23.878  0.00  0.00    +0.021 A 
ATOM     42  C   UNL     1       5.236   0.621  23.561  0.00  0.00    +0.003 A 
ATOM     43  C   UNL     1       4.513   0.752  23.185  0.00  0.00    +0.015 A 
ENDBRANCH  37  38
ENDBRANCH  36  37
ENDBRANCH  34  36
ENDBRANCH  26  34
BRANCH  13  12
ATOM     12  C   UNL     1      -4.481   0.649  24.590  0.00  0.00    +0.086 C 
BRANCH  12  10
ATOM      1  C   UNL     1      -5.216   2.095  24.291  0.00  0.00    +0.115 C 
ATOM      2  N   UNL     1      -5.150   1.818  25.065  0.00  0.00    -0.274 N 
ATOM     10  C   UNL     1      -4.783   1.096  25.216  0.00  0.00    +0.226 C 
ATOM     11  O   UNL     1      -4.717   0.819  25.990  0.00  0.00    -0.275 OA
BRANCH   2   3
ATOM      3  C   UNL     1      -5.453   2.266  25.690  0.00  0.00    +0.122 C 
BRANCH   3   4
ATOM      4  C   UNL     1      -5.396   3.088  25.673  0.00  0.00    +0.017 A 
ATOM      5  C   UNL     1      -4.654   3.451  25.665  0.00  0.00    +0.001 A 
ATOM      6  C   UNL     1      -4.598   4.273  25.649  0.00  0.00    +0.020 A 
ATOM      7  C   UNL     1      -5.281   4.734  25.641  0.00  0.00    +0.099 A 
ATOM      8  N   UNL     1      -6.023   4.372  25.649  0.00  0.00    -0.243 NA
ATOM      9  C   UNL     1      -6.080   3.549  25.665  0.00  0.00    +0.096 A 
ENDBRANCH   3   4
ENDBRANCH   2   3
ENDBRANCH  12  10
ENDBRANCH  13  12
TORSDOF 8
ENDMDL
MODEL 4
REMARK VINA RESULT:      -7.8      2.976      4.070
REMARK  Name = 
REMARK  8 active torsions:
REMARK  status: ('A' for Active; 'I' for Inactive)
REMARK    1  A    between atoms: N_2  and  C_3
REMARK    2  A    between atoms: C_3  and  C_4
REMARK    3  A    between atoms: C_10  and  C_12
REMARK    4  A    between atoms: C_12  and  C_13
REMARK    5  A    between atoms: C_26  and  N_34
REMARK    6  A    between atoms: N_34  and  C_36
REMARK    7  A    between atoms: C_36  and  C_37
REMARK    8  A    between atoms: C_37  and  C_38
REMARK                            x       y       z     vdW  Elec       q    Type
REMARK                         _______ _______ _______ _____ _____    ______ ____
ROOT
ATOM     13  C   UNL     1      -6.741 -10.412  14.702  0.00  0.00    +0.016 C 
ATOM     14  C   UNL     1      -5.932 -10.513  14.828  0.00  0.00    +0.022 C 
ATOM     15  C   UNL     1      -5.398 -10.359  14.218  0.00  0.00    +0.093 C 
ATOM     16  N   UNL     1      -5.597 -10.113  13.496  0.00  0.00    -0.278 N 
ATOM     17  C   UNL     1      -6.482 -10.002  13.358  0.00  0.00    +0.098 C 
ATOM     18  C   UNL     1      -7.202 -10.075  13.756  0.00  0.00    +0.042 C 
ATOM     19  C   UNL     1      -7.804  -9.862  13.233  0.00  0.00    -0.026 C 
ATOM     20  C   UNL     1      -7.456  -9.659  12.514  0.00  0.00    +0.016 C 
ATOM     21  C   UNL     1      -7.683  -9.377  11.686  0.00  0.00    +0.231 C 
ATOM     22  O   UNL     1      -6.937  -9.334  11.377  0.00  0.00    -0.471 OA
ATOM     23  C   UNL     1      -6.321  -9.343  11.257  0.00  0.00    +0.136 A 
ATOM     24  C   UNL     1      -7.123  -9.231  11.098  0.00  0.00    +0.038 A 
ATOM     25  C   UNL     1      -7.364  -8.975  10.353  0.00  0.00    +0.018 A 
ATOM     26  C   UNL     1      -6.803  -8.829   9.765  0.00  0.00    +0.048 A 
ATOM     27  C   UNL     1      -6.001  -8.940   9.924  0.00  0.00    +0.015 A 
ATOM     28  C   UNL     1      -5.759  -9.197  10.670  0.00  0.00    +0.030 A 
ATOM     29  C   UNL     1      -4.958  -9.308  10.828  0.00  0.00    +0.119 C 
ATOM     30  N   UNL     1      -4.716  -9.565  11.575  0.00  0.00    -0.204 NA
ATOM     31  C   UNL     1      -5.278  -9.710  12.162  0.00  0.00    +0.174 C 
ATOM     32  C   UNL     1      -5.036  -9.967  12.908  0.00  0.00    +0.243 C 
ATOM     33  O   UNL     1      -4.235 -10.078  13.066  0.00  0.00    -0.273 OA
ENDROOT
BRANCH  26  34
ATOM     34  N   UNL     1      -7.044  -8.572   9.019  0.00  0.00    -0.305 N 
ATOM     35  C   UNL     1      -6.924  -9.052   8.359  0.00  0.00    +0.112 C 
BRANCH  34  36
ATOM     36  C   UNL     1      -7.405  -7.836   8.933  0.00  0.00    +0.097 C 
BRANCH  36  37
ATOM     37  C   UNL     1      -7.827  -7.661   8.246  0.00  0.00    +0.067 C 
BRANCH  37  38
ATOM     38  C   UNL     1      -8.312  -6.994   8.219  0.00  0.00    +0.061 A 
ATOM     39  N   UNL     1      -9.132  -7.079   8.252  0.00  0.00    -0.248 NA
ATOM     40  C   UNL     1      -9.617  -6.412   8.224  0.00  0.00    +0.098 A 
ATOM     41  C   UNL     1      -9.282  -5.660   8.163  0.00  0.00    +0.021 A 
ATOM     42  C   UNL     1      -8.462  -5.575   8.129  0.00  0.00    +0.003 A 
ATOM     43  C   UNL     1      -7.978  -6.243   8.157  0.00  0.00    +0.015 A 
ENDBRANCH  37  38
ENDBRANCH  36  37
ENDBRANCH  34  36
ENDBRANCH  26  34
BRANCH  13  12
ATOM     12  C   UNL     1      -7.247 -10.576  15.333  0.00  0.00    +0.086 C 
BRANCH  12  10
ATOM      1  C   UNL     1      -8.530 -10.644  16.368  0.00  0.00    +0.115 C 
ATOM      2  N   UNL     1      -7.931 -10.090  16.490  0.00  0.00    -0.274 N 
ATOM     10  C   UNL     1      -7.289 -10.056  15.973  0.00  0.00    +0.226 C 
ATOM     11  O   UNL     1      -6.690  -9.502  16.095  0.00  0.00    -0.275 OA
BRANCH   2   3
ATOM      3  C   UNL     1      -7.974  -9.570  17.130  0.00  0.00    +0.122 C 
BRANCH   3   4
ATOM      4  C   UNL     1      -8.702  -9.261  17.362  0.00  0.00    +0.017 A 
ATOM      5  C   UNL     1      -9.181  -9.680  17.888  0.00  0.00    +0.001 A 
ATOM      6  C   UNL     1      -9.909  -9.371  18.119  0.00  0.00    +0.020 A 
ATOM      7  C   UNL     1     -10.159  -8.642  17.826  0.00  0.00    +0.099 A 
ATOM      8  N   UNL     1      -9.682  -8.222  17.301  0.00  0.00    -0.243 NA
ATOM      9  C   UNL     1      -8.953  -8.531  17.069  0.00  0.00    +0.096 A 
ENDBRANCH   3   4
ENDBRANCH   2   3
ENDBRANCH  12  10
ENDBRANCH  13  12
TORSDOF 8
ENDMDL
MODEL 5
REMARK VINA RESULT:      -7.4     14.358     16.660
REMARK  Name = 
REMARK  8 active torsions:
REMARK  status: ('A' for Active; 'I' for Inactive)
REMARK    1  A    between atoms: N_2  and  C_3
REMARK    2  A    between atoms: C_3  and  C_4
REMARK    3  A    between atoms: C_10  and  C_12
REMARK    4  A    between atoms: C_12  and  C_13
REMARK    5  A    between atoms: C_26  and  N_34
REMARK    6  A    between atoms: N_34  and  C_36
REMARK    7  A    between atoms: C_36  and  C_37
REMARK    8  A    between atoms: C_37  and  C_38
REMARK                            x       y       z     vdW  Elec       q    Type
REMARK                         _______ _______ _______ _____ _____    ______ ____
ROOT
ATOM     13  C   UNL     1       0.826   0.129  23.386  0.00  0.00    +0.016 C 
ATOM     14  C   UNL     1       0.981  -0.626  23.680  0.00  0.00    +0.022 C 
ATOM     15  C   UNL     1       0.393  -1.038  24.088  0.00  0.00    +0.093 C 
ATOM     16  N   UNL     1      -0.333  -0.765  24.229  0.00  0.00    -0.278 N 
ATOM     17  C   UNL     1      -0.502   0.062  23.907  0.00  0.00    +0.098 C 
ATOM     18  C   UNL     1      -0.132   0.669  23.488  0.00  0.00    +0.042 C 
ATOM     19  C   UNL     1      -0.674   1.286  23.402  0.00  0.00    -0.026 C 
ATOM     20  C   UNL     1      -1.378   1.058  23.767  0.00  0.00    +0.016 C 
ATOM     21  C   UNL     1      -2.210   1.370  23.929  0.00  0.00    +0.231 C 
ATOM     22  O   UNL     1      -2.491   0.727  24.332  0.00  0.00    -0.471 OA
ATOM     23  C   UNL     1      -2.588   0.179  24.622  0.00  0.00    +0.136 A 
ATOM     24  C   UNL     1      -2.775   0.932  24.341  0.00  0.00    +0.038 A 
ATOM     25  C   UNL     1      -3.526   1.246  24.472  0.00  0.00    +0.018 A 
ATOM     26  C   UNL     1      -4.091   0.807  24.884  0.00  0.00    +0.048 A 
ATOM     27  C   UNL     1      -3.904   0.054  25.165  0.00  0.00    +0.015 A 
ATOM     28  C   UNL     1      -3.152  -0.261  25.034  0.00  0.00    +0.030 A 
ATOM     29  C   UNL     1      -2.966  -1.013  25.315  0.00  0.00    +0.119 C 
ATOM     30  N   UNL     1      -2.214  -1.328  25.184  0.00  0.00    -0.204 NA
ATOM     31  C   UNL     1      -1.649  -0.889  24.771  0.00  0.00    +0.174 C 
ATOM     32  C   UNL     1      -0.898  -1.203  24.640  0.00  0.00    +0.243 C 
ATOM     33  O   UNL     1      -0.712  -1.956  24.921  0.00  0.00    -0.273 OA
ENDROOT
BRANCH  26  34
ATOM     34  N   UNL     1      -4.842   1.121  25.015  0.00  0.00    -0.305 N 
ATOM     35  C   UNL     1      -5.477   0.620  25.179  0.00  0.00    +0.112 C 
BRANCH  34  36
ATOM     36  C   UNL     1      -4.959   1.937  24.983  0.00  0.00    +0.097 C 
BRANCH  36  37
ATOM     37  C   UNL     1      -5.438   2.308  25.542  0.00  0.00    +0.067 C 
BRANCH  37  38
ATOM     38  C   UNL     1      -5.476   3.131  25.573  0.00  0.00    +0.061 A 
ATOM     39  N   UNL     1      -6.206   3.509  25.636  0.00  0.00    -0.248 NA
ATOM     40  C   UNL     1      -6.244   4.332  25.666  0.00  0.00    +0.098 A 
ATOM     41  C   UNL     1      -5.550   4.779  25.634  0.00  0.00    +0.021 A 
ATOM     42  C   UNL     1      -4.819   4.401  25.571  0.00  0.00    +0.003 A 
ATOM     43  C   UNL     1      -4.783   3.577  25.541  0.00  0.00    +0.015 A 
ENDBRANCH  37  38
ENDBRANCH  36  37
ENDBRANCH  34  36
ENDBRANCH  26  34
BRANCH  13  12
ATOM     12  C   UNL     1       1.437   0.512  22.983  0.00  0.00    +0.086 C 
BRANCH  12  10
ATOM      1  C   UNL     1       2.931   1.203  23.091  0.00  0.00    +0.115 C 
ATOM      2  N   UNL     1       2.852   0.434  22.803  0.00  0.00    -0.274 N 
ATOM     10  C   UNL     1       2.106   0.088  22.748  0.00  0.00    +0.226 C 
ATOM     11  O   UNL     1       2.026  -0.681  22.459  0.00  0.00    -0.275 OA
BRANCH   2   3
ATOM      3  C   UNL     1       3.521   0.011  22.568  0.00  0.00    +0.122 C 
BRANCH   3   4
ATOM      4  C   UNL     1       4.213   0.053  23.013  0.00  0.00    +0.017 A 
ATOM      5  C   UNL     1       4.482  -0.611  23.423  0.00  0.00    +0.001 A 
ATOM      6  C   UNL     1       5.174  -0.568  23.869  0.00  0.00    +0.020 A 
ATOM      7  C   UNL     1       5.598   0.138  23.906  0.00  0.00    +0.099 A 
ATOM      8  N   UNL     1       5.331   0.802  23.497  0.00  0.00    -0.243 NA
ATOM      9  C   UNL     1       4.638   0.760  23.050  0.00  0.00    +0.096 A 
ENDBRANCH   3   4
ENDBRANCH   2   3
ENDBRANCH  12  10
ENDBRANCH  13  12
TORSDOF 8
ENDMDL
MODEL 6
REMARK VINA RESULT:      -6.8     14.533     15.875
REMARK  Name = 
REMARK  8 active torsions:
REMARK  status: ('A' for Active; 'I' for Inactive)
REMARK    1  A    between atoms: N_2  and  C_3
REMARK    2  A    between atoms: C_3  and  C_4
REMARK    3  A    between atoms: C_10  and  C_12
REMARK    4  A    between atoms: C_12  and  C_13
REMARK    5  A    between atoms: C_26  and  N_34
REMARK    6  A    between atoms: N_34  and  C_36
REMARK    7  A    between atoms: C_36  and  C_37
REMARK    8  A    between atoms: C_37  and  C_38
REMARK                            x       y       z     vdW  Elec       q    Type
REMARK                         _______ _______ _______ _____ _____    ______ ____
ROOT
ATOM     13  C   UNL     1      -2.347   2.113  24.971  0.00  0.00    +0.016 C 
ATOM     14  C   UNL     1      -2.749   1.407  25.111  0.00  0.00    +0.022 C 
ATOM     15  C   UNL     1      -2.396   0.686  24.918  0.00  0.00    +0.093 C 
ATOM     16  N   UNL     1      -1.679   0.607  24.597  0.00  0.00    -0.278 N 
ATOM     17  C   UNL     1      -1.239   1.380  24.444  0.00  0.00    +0.098 C 
ATOM     18  C   UNL     1      -1.337   2.196  24.530  0.00  0.00    +0.042 C 
ATOM     19  C   UNL     1      -0.655   2.565  24.248  0.00  0.00    -0.026 C 
ATOM     20  C   UNL     1      -0.137   1.977  23.989  0.00  0.00    +0.016 C 
ATOM     21  C   UNL     1       0.684   1.885  23.622  0.00  0.00    +0.231 C 
ATOM     22  O   UNL     1       0.693   1.078  23.576  0.00  0.00    -0.471 OA
ATOM     23  C   UNL     1       0.579   0.461  23.594  0.00  0.00    +0.136 A 
ATOM     24  C   UNL     1       1.008   1.149  23.441  0.00  0.00    +0.038 A 
ATOM     25  C   UNL     1       1.760   1.100  23.106  0.00  0.00    +0.018 A 
ATOM     26  C   UNL     1       2.084   0.363  22.925  0.00  0.00    +0.048 A 
ATOM     27  C   UNL     1       1.655  -0.325  23.078  0.00  0.00    +0.015 A 
ATOM     28  C   UNL     1       0.903  -0.277  23.412  0.00  0.00    +0.030 A 
ATOM     29  C   UNL     1       0.474  -0.965  23.565  0.00  0.00    +0.119 C 
ATOM     30  N   UNL     1      -0.279  -0.916  23.900  0.00  0.00    -0.204 NA
ATOM     31  C   UNL     1      -0.603  -0.178  24.081  0.00  0.00    +0.174 C 
ATOM     32  C   UNL     1      -1.355  -0.130  24.416  0.00  0.00    +0.243 C 
ATOM     33  O   UNL     1      -1.783  -0.818  24.569  0.00  0.00    -0.273 OA
ENDROOT
BRANCH  26  34
ATOM     34  N   UNL     1       2.836   0.314  22.590  0.00  0.00    -0.305 N 
ATOM     35  C   UNL     1       2.921   0.164  21.783  0.00  0.00    +0.112 C 
BRANCH  34  36
ATOM     36  C   UNL     1       3.505   0.416  23.063  0.00  0.00    +0.097 C 
BRANCH  36  37
ATOM     37  C   UNL     1       4.233   0.115  22.817  0.00  0.00    +0.067 C 
BRANCH  37  38
ATOM     38  C   UNL     1       4.823  -0.040  23.372  0.00  0.00    +0.061 A 
ATOM     39  N   UNL     1       4.908  -0.800  23.682  0.00  0.00    -0.248 NA
ATOM     40  C   UNL     1       5.499  -0.955  24.237  0.00  0.00    +0.098 A 
ATOM     41  C   UNL     1       6.005  -0.351  24.482  0.00  0.00    +0.021 A 
ATOM     42  C   UNL     1       5.920   0.410  24.171  0.00  0.00    +0.003 A 
ATOM     43  C   UNL     1       5.329   0.564  23.617  0.00  0.00    +0.015 A 
ENDBRANCH  37  38
ENDBRANCH  36  37
ENDBRANCH  34  36
ENDBRANCH  26  34
BRANCH  13  12
ATOM     12  C   UNL     1      -2.730   2.815  25.176  0.00  0.00    +0.086 C 
BRANCH  12  10
ATOM      1  C   UNL     1      -3.845   3.438  26.221  0.00  0.00    +0.115 C 
ATOM      2  N   UNL     1      -4.059   3.264  25.443  0.00  0.00    -0.274 N 
ATOM     10  C   UNL     1      -3.503   2.953  24.921  0.00  0.00    +0.226 C 
ATOM     11  O   UNL     1      -3.718   2.780  24.143  0.00  0.00    -0.275 OA
BRANCH   2   3
ATOM      3  C   UNL     1      -4.833   3.403  25.189  0.00  0.00    +0.122 C 
BRANCH   3   4
ATOM      4  C   UNL     1      -5.452   2.944  25.482  0.00  0.00    +0.017 A 
ATOM      5  C   UNL     1      -5.841   2.411  24.987  0.00  0.00    +0.001 A 
ATOM      6  C   UNL     1      -6.460   1.952  25.281  0.00  0.00    +0.020 A 
ATOM      7  C   UNL     1      -6.691   2.026  26.069  0.00  0.00    +0.099 A 
ATOM      8  N   UNL     1      -6.302   2.559  26.564  0.00  0.00    -0.243 NA
ATOM      9  C   UNL     1      -5.683   3.018  26.271  0.00  0.00    +0.096 A 
ENDBRANCH   3   4
ENDBRANCH   2   3
ENDBRANCH  12  10
ENDBRANCH  13  12
TORSDOF 8
ENDMDL
