MODEL 1
REMARK VINA RESULT:     -13.5      0.000      0.000
REMARK  Name = 
REMARK  4 active torsions:
REMARK  status: ('A' for Active; 'I' for Inactive)
REMARK    1  A    between atoms: C_2  and  C_26
REMARK    2  A    between atoms: N_3  and  C_4
REMARK    3  A    between atoms: N_12  and  S_14
REMARK    4  A    between atoms: S_14  and  C_17
REMARK                            x       y       z     vdW  Elec       q    Type
REMARK                         _______ _______ _______ _____ _____    ______ ____
ROOT
ATOM      4  C   UNL     1      -4.192   1.008  24.815  0.00  0.00    +0.130 A 
ATOM      5  C   UNL     1      -5.091   0.894  25.189  0.00  0.00    +0.023 A 
ATOM      6  C   UNL     1      -5.399   1.636  25.377  0.00  0.00    +0.014 A 
ATOM      7  C   UNL     1      -4.951   2.315  25.240  0.00  0.00    +0.041 A 
ATOM      8  C   UNL     1      -4.993   3.228  25.330  0.00  0.00    +0.056 C 
ATOM      9  C   UNL     1      -5.419   3.740  25.551  0.00  0.00    +0.011 C 
ATOM     10  C   UNL     1      -4.674   3.674  25.229  0.00  0.00    +0.041 C 
ATOM     11  C   UNL     1      -3.769   3.800  24.854  0.00  0.00    +0.098 C 
ATOM     12  N   UNL     1      -3.567   3.003  24.706  0.00  0.00    -0.155 NA
ATOM     13  C   UNL     1      -4.120   3.366  24.969  0.00  0.00    +0.102 C 
ATOM     22  C   UNL     1      -4.620   2.721  25.131  0.00  0.00    +0.110 C 
ATOM     23  N   UNL     1      -4.195   2.251  24.914  0.00  0.00    -0.298 N 
ATOM     24  C   UNL     1      -3.888   1.509  24.726  0.00  0.00    +0.276 A 
ATOM     25  O   UNL     1      -2.964   1.482  24.331  0.00  0.00    -0.266 OA
ENDROOT
BRANCH   4   3
ATOM      1  O   UNL     1      -3.717  -0.866  26.064  0.00  0.00    -0.266 OA
ATOM      2  C   UNL     1      -3.888  -0.622  25.241  0.00  0.00    +0.288 C 
ATOM      3  N   UNL     1      -4.076   0.059  24.692  0.00  0.00    -0.169 NA
BRANCH   2  26
ATOM     26  C   UNL     1      -3.862  -1.318  24.794  0.00  0.00    +0.156 A 
ATOM     27  C   UNL     1      -3.359  -1.869  25.144  0.00  0.00    +0.123 A 
ATOM     28  N   UNL     1      -3.248  -2.607  24.792  0.00  0.00    -0.239 NA
ATOM     29  C   UNL     1      -3.639  -2.793  24.091  0.00  0.00    +0.120 A 
ATOM     30  C   UNL     1      -4.143  -2.242  23.740  0.00  0.00    +0.120 A 
ATOM     31  N   UNL     1      -4.254  -1.503  24.092  0.00  0.00    -0.236 NA
ENDBRANCH   2  26
ENDBRANCH   4   3
BRANCH  12  14
ATOM     14  S   UNL     1      -2.958   2.423  24.402  0.00  0.00    +0.069 S 
ATOM     15  O   UNL     1      -2.423   1.814  24.071  0.00  0.00    -0.152 OA
ATOM     16  O   UNL     1      -3.520   1.864  23.969  0.00  0.00    -0.152 OA
BRANCH  14  17
ATOM     17  C   UNL     1      -2.421   3.099  24.909  0.00  0.00    +0.152 A 
ATOM     18  C   UNL     1      -2.082   2.944  25.644  0.00  0.00    +0.027 A 
ATOM     19  C   UNL     1      -1.685   3.625  25.890  0.00  0.00    +0.009 A 
ATOM     20  C   UNL     1      -1.780   4.200  25.305  0.00  0.00    +0.037 A 
ATOM     21  S   UNL     1      -2.235   3.875  24.699  0.00  0.00    -0.067 S 
ENDBRANCH  14  17
ENDBRANCH  12  14
TORSDOF 4
ENDMDL
MODEL 2
REMARK VINA RESULT:     -13.1      1.731      4.524
REMARK  Name = 
REMARK  4 active torsions:
REMARK  status: ('A' for Active; 'I' for Inactive)
REMARK    1  A    between atoms: C_2  and  C_26
REMARK    2  A    between atoms: N_3  and  C_4
REMARK    3  A    between atoms: N_12  and  S_14
REMARK    4  A    between atoms: S_14  and  C_17
REMARK                            x       y       z     vdW  Elec       q    Type
REMARK                         _______ _______ _______ _____ _____    ______ ____
ROOT
ATOM      4  C   UNL     1      -3.775   0.104  24.831  0.00  0.00    +0.130 A 
ATOM      5  C   UNL     1      -4.579  -0.201  24.361  0.00  0.00    +0.023 A 
ATOM      6  C   UNL     1      -4.494  -1.000  24.176  0.00  0.00    +0.014 A 
ATOM      7  C   UNL     1      -3.807  -1.402  24.391  0.00  0.00    +0.041 A 
ATOM      8  C   UNL     1      -3.421  -2.235  24.341  0.00  0.00    +0.056 C 
ATOM      9  C   UNL     1      -3.541  -2.883  24.101  0.00  0.00    +0.011 C 
ATOM     10  C   UNL     1      -2.949  -2.487  24.495  0.00  0.00    +0.041 C 
ATOM     11  C   UNL     1      -2.134  -2.190  24.968  0.00  0.00    +0.098 C 
ATOM     12  N   UNL     1      -2.332  -1.389  25.098  0.00  0.00    -0.155 NA
ATOM     13  C   UNL     1      -2.627  -1.962  24.796  0.00  0.00    +0.102 C 
ATOM     22  C   UNL     1      -3.343  -1.614  24.553  0.00  0.00    +0.110 C 
ATOM     23  N   UNL     1      -3.204  -1.004  24.791  0.00  0.00    -0.298 N 
ATOM     24  C   UNL     1      -3.289  -0.205  24.975  0.00  0.00    +0.276 A 
ATOM     25  O   UNL     1      -2.530   0.238  25.462  0.00  0.00    -0.266 OA
ENDROOT
BRANCH   4   3
ATOM      1  O   UNL     1      -3.902   2.050  23.609  0.00  0.00    -0.266 OA
ATOM      2  C   UNL     1      -4.127   1.719  24.388  0.00  0.00    +0.288 C 
ATOM      3  N   UNL     1      -4.116   1.002  24.921  0.00  0.00    -0.169 NA
BRANCH   2  26
ATOM     26  C   UNL     1      -4.508   2.336  24.789  0.00  0.00    +0.156 A 
ATOM     27  C   UNL     1      -4.016   2.996  24.840  0.00  0.00    +0.123 A 
ATOM     28  N   UNL     1      -4.281   3.679  25.218  0.00  0.00    -0.239 NA
ATOM     29  C   UNL     1      -5.038   3.702  25.545  0.00  0.00    +0.120 A 
ATOM     30  C   UNL     1      -5.530   3.042  25.495  0.00  0.00    +0.120 A 
ATOM     31  N   UNL     1      -5.265   2.358  25.116  0.00  0.00    -0.236 NA
ENDBRANCH   2  26
ENDBRANCH   4   3
BRANCH  12  14
ATOM     14  S   UNL     1      -2.091  -0.597  25.436  0.00  0.00    +0.069 S 
ATOM     15  O   UNL     1      -1.931   0.187  25.790  0.00  0.00    -0.152 OA
ATOM     16  O   UNL     1      -2.896  -0.344  25.757  0.00  0.00    -0.152 OA
BRANCH  14  17
ATOM     17  C   UNL     1      -1.245  -0.966  25.047  0.00  0.00    +0.152 A 
ATOM     18  C   UNL     1      -0.911  -0.684  24.348  0.00  0.00    +0.027 A 
ATOM     19  C   UNL     1      -0.224  -1.117  24.201  0.00  0.00    +0.009 A 
ATOM     20  C   UNL     1      -0.134  -1.666  24.811  0.00  0.00    +0.037 A 
ATOM     21  S   UNL     1      -0.765  -1.573  25.334  0.00  0.00    -0.067 S 
ENDBRANCH  14  17
ENDBRANCH  12  14
TORSDOF 4
ENDMDL
MODEL 3
REMARK VINA RESULT:     -12.5      2.185      3.160
REMARK  Name = 
REMARK  4 active torsions:
REMARK  status: ('A' for Active; 'I' for Inactive)
REMARK    1  A    between atoms: C_2  and  C_26
REMARK    2  A    between atoms: N_3  and  C_4
REMARK    3  A    between atoms: N_12  and  S_14
REMARK    4  A    between atoms: S_14  and  C_17
REMARK                            x       y       z     vdW  Elec       q    Type
REMARK                         _______ _______ _______ _____ _____    ______ ____
ROOT
ATOM      4  C   UNL     1      -1.791   2.150  24.749  0.00  0.00    +0.130 A 
ATOM      5  C   UNL     1      -1.151   2.612  25.332  0.00  0.00    +0.023 A 
ATOM      6  C   UNL     1      -1.543   3.218  25.733  0.00  0.00    +0.014 A 
ATOM      7  C   UNL     1      -2.348   3.344  25.603  0.00  0.00    +0.041 A 
ATOM      8  C   UNL     1      -3.035   3.893  25.867  0.00  0.00    +0.056 C 
ATOM      9  C   UNL     1      -3.175   4.437  26.289  0.00  0.00    +0.011 C 
ATOM     10  C   UNL     1      -3.579   3.962  25.765  0.00  0.00    +0.041 C 
ATOM     11  C   UNL     1      -4.231   3.504  25.181  0.00  0.00    +0.098 C 
ATOM     12  N   UNL     1      -3.732   2.928  24.838  0.00  0.00    -0.155 NA
ATOM     13  C   UNL     1      -3.677   3.461  25.308  0.00  0.00    +0.102 C 
ATOM     22  C   UNL     1      -2.867   3.384  25.482  0.00  0.00    +0.110 C 
ATOM     23  N   UNL     1      -2.760   2.866  25.072  0.00  0.00    -0.298 N 
ATOM     24  C   UNL     1      -2.368   2.260  24.672  0.00  0.00    +0.276 A 
ATOM     25  O   UNL     1      -2.912   1.703  24.036  0.00  0.00    -0.266 OA
ENDROOT
BRANCH   4   3
ATOM      1  O   UNL     1      -0.642   0.288  25.464  0.00  0.00    -0.266 OA
ATOM      2  C   UNL     1      -0.714   0.821  24.772  0.00  0.00    +0.288 C 
ATOM      3  N   UNL     1      -1.119   1.538  24.426  0.00  0.00    -0.169 NA
BRANCH   2  26
ATOM     26  C   UNL     1      -0.179   0.528  24.212  0.00  0.00    +0.156 A 
ATOM     27  C   UNL     1      -0.287  -0.282  24.103  0.00  0.00    +0.123 A 
ATOM     28  N   UNL     1       0.187  -0.693  23.568  0.00  0.00    -0.239 NA
ATOM     29  C   UNL     1       0.768  -0.294  23.141  0.00  0.00    +0.120 A 
ATOM     30  C   UNL     1       0.876   0.517  23.248  0.00  0.00    +0.120 A 
ATOM     31  N   UNL     1       0.402   0.929  23.785  0.00  0.00    -0.236 NA
ENDBRANCH   2  26
ENDBRANCH   4   3
BRANCH  12  14
ATOM     14  S   UNL     1      -3.651   2.239  24.275  0.00  0.00    +0.069 S 
ATOM     15  O   UNL     1      -3.500   1.595  23.702  0.00  0.00    -0.152 OA
ATOM     16  O   UNL     1      -2.844   2.451  23.929  0.00  0.00    -0.152 OA
BRANCH  14  17
ATOM     17  C   UNL     1      -4.537   2.092  24.717  0.00  0.00    +0.152 A 
ATOM     18  C   UNL     1      -4.673   1.486  25.261  0.00  0.00    +0.027 A 
ATOM     19  C   UNL     1      -5.459   1.536  25.506  0.00  0.00    +0.009 A 
ATOM     20  C   UNL     1      -5.809   2.173  25.113  0.00  0.00    +0.037 A 
ATOM     21  S   UNL     1      -5.239   2.516  24.626  0.00  0.00    -0.067 S 
ENDBRANCH  14  17
ENDBRANCH  12  14
TORSDOF 4
ENDMDL
MODEL 4
REMARK VINA RESULT:     -12.4      1.839      4.918
REMARK  Name = 
REMARK  4 active torsions:
REMARK  status: ('A' for Active; 'I' for Inactive)
REMARK    1  A    between atoms: C_2  and  C_26
REMARK    2  A    between atoms: N_3  and  C_4
REMARK    3  A    between atoms: N_12  and  S_14
REMARK    4  A    between atoms: S_14  and  C_17
REMARK                            x       y       z     vdW  Elec       q    Type
REMARK                         _______ _______ _______ _____ _____    ______ ____
ROOT
ATOM      4  C   UNL     1      -2.781   0.793  24.928  0.00  0.00    +0.130 A 
ATOM      5  C   UNL     1      -1.989   1.272  24.606  0.00  0.00    +0.023 A 
ATOM      6  C   UNL     1      -1.388   0.726  24.459  0.00  0.00    +0.014 A 
ATOM      7  C   UNL     1      -1.520  -0.077  24.590  0.00  0.00    +0.041 A 
ATOM      8  C   UNL     1      -1.093  -0.890  24.531  0.00  0.00    +0.056 C 
ATOM      9  C   UNL     1      -0.479  -1.177  24.351  0.00  0.00    +0.011 C 
ATOM     10  C   UNL     1      -1.203  -1.428  24.626  0.00  0.00    +0.041 C 
ATOM     11  C   UNL     1      -1.997  -1.920  24.950  0.00  0.00    +0.098 C 
ATOM     12  N   UNL     1      -2.522  -1.280  25.061  0.00  0.00    -0.155 NA
ATOM     13  C   UNL     1      -1.852  -1.379  24.843  0.00  0.00    +0.102 C 
ATOM     22  C   UNL     1      -1.657  -0.584  24.691  0.00  0.00    +0.110 C 
ATOM     23  N   UNL     1      -2.252  -0.335  24.868  0.00  0.00    -0.298 N 
ATOM     24  C   UNL     1      -2.853   0.210  25.015  0.00  0.00    +0.276 A 
ATOM     25  O   UNL     1      -3.728  -0.150  25.353  0.00  0.00    -0.266 OA
ENDROOT
BRANCH   4   3
ATOM      1  O   UNL     1      -3.814   2.353  23.589  0.00  0.00    -0.266 OA
ATOM      2  C   UNL     1      -3.667   2.170  24.432  0.00  0.00    +0.288 C 
ATOM      3  N   UNL     1      -3.291   1.607  25.016  0.00  0.00    -0.169 NA
BRANCH   2  26
ATOM     26  C   UNL     1      -4.034   2.778  24.858  0.00  0.00    +0.156 A 
ATOM     27  C   UNL     1      -4.855   2.698  24.829  0.00  0.00    +0.123 A 
ATOM     28  N   UNL     1      -5.336   3.245  25.217  0.00  0.00    -0.239 NA
ATOM     29  C   UNL     1      -4.997   3.871  25.633  0.00  0.00    +0.120 A 
ATOM     30  C   UNL     1      -4.176   3.951  25.662  0.00  0.00    +0.120 A 
ATOM     31  N   UNL     1      -3.694   3.404  25.274  0.00  0.00    -0.236 NA
ENDBRANCH   2  26
ENDBRANCH   4   3
BRANCH  12  14
ATOM     14  S   UNL     1      -3.336  -1.007  25.310  0.00  0.00    +0.069 S 
ATOM     15  O   UNL     1      -4.097  -0.677  25.589  0.00  0.00    -0.152 OA
ATOM     16  O   UNL     1      -3.091  -0.257  25.748  0.00  0.00    -0.152 OA
BRANCH  14  17
ATOM     17  C   UNL     1      -3.505  -1.856  24.805  0.00  0.00    +0.152 A 
ATOM     18  C   UNL     1      -3.860  -1.873  24.061  0.00  0.00    +0.027 A 
ATOM     19  C   UNL     1      -3.908  -2.660  23.820  0.00  0.00    +0.009 A 
ATOM     20  C   UNL     1      -3.582  -3.130  24.416  0.00  0.00    +0.037 A 
ATOM     21  S   UNL     1      -3.333  -2.632  25.025  0.00  0.00    -0.067 S 
ENDBRANCH  14  17
ENDBRANCH  12  14
TORSDOF 4
ENDMDL
MODEL 5
REMARK VINA RESULT:     -12.4      1.435      2.497
REMARK  Name = 
REMARK  4 active torsions:
REMARK  status: ('A' for Active; 'I' for Inactive)
REMARK    1  A    between atoms: C_2  and  C_26
REMARK    2  A    between atoms: N_3  and  C_4
REMARK    3  A    between atoms: N_12  and  S_14
REMARK    4  A    between atoms: S_14  and  C_17
REMARK                            x       y       z     vdW  Elec       q    Type
REMARK                         _______ _______ _______ _____ _____    ______ ____
ROOT
ATOM      4  C   UNL     1      -2.111   0.605  25.056  0.00  0.00    +0.130 A 
ATOM      5  C   UNL     1      -1.410   0.050  25.460  0.00  0.00    +0.023 A 
ATOM      6  C   UNL     1      -0.799   0.539  25.720  0.00  0.00    +0.014 A 
ATOM      7  C   UNL     1      -0.851   1.355  25.616  0.00  0.00    +0.041 A 
ATOM      8  C   UNL     1      -0.379   2.127  25.779  0.00  0.00    +0.056 C 
ATOM      9  C   UNL     1       0.223   2.356  26.059  0.00  0.00    +0.011 C 
ATOM     10  C   UNL     1      -0.434   2.676  25.699  0.00  0.00    +0.041 C 
ATOM     11  C   UNL     1      -1.134   3.244  25.294  0.00  0.00    +0.098 C 
ATOM     12  N   UNL     1      -1.684   2.654  25.075  0.00  0.00    -0.155 NA
ATOM     13  C   UNL     1      -1.046   2.689  25.391  0.00  0.00    +0.102 C 
ATOM     22  C   UNL     1      -0.934   1.875  25.525  0.00  0.00    +0.110 C 
ATOM     23  N   UNL     1      -1.515   1.683  25.252  0.00  0.00    -0.298 N 
ATOM     24  C   UNL     1      -2.126   1.195  24.992  0.00  0.00    +0.276 A 
ATOM     25  O   UNL     1      -2.915   1.639  24.555  0.00  0.00    -0.266 OA
ENDROOT
BRANCH   4   3
ATOM      1  O   UNL     1      -3.522  -0.860  26.132  0.00  0.00    -0.266 OA
ATOM      2  C   UNL     1      -3.194  -0.690  25.339  0.00  0.00    +0.288 C 
ATOM      3  N   UNL     1      -2.660  -0.161  24.853  0.00  0.00    -0.169 NA
BRANCH   2  26
ATOM     26  C   UNL     1      -3.519  -1.262  24.837  0.00  0.00    +0.156 A 
ATOM     27  C   UNL     1      -3.282  -2.018  25.068  0.00  0.00    +0.123 A 
ATOM     28  N   UNL     1      -3.540  -2.678  24.645  0.00  0.00    -0.239 NA
ATOM     29  C   UNL     1      -4.035  -2.582  23.993  0.00  0.00    +0.120 A 
ATOM     30  C   UNL     1      -4.272  -1.826  23.761  0.00  0.00    +0.120 A 
ATOM     31  N   UNL     1      -4.014  -1.165  24.184  0.00  0.00    -0.236 NA
ENDBRANCH   2  26
ENDBRANCH   4   3
BRANCH  12  14
ATOM     14  S   UNL     1      -2.471   2.459  24.699  0.00  0.00    +0.069 S 
ATOM     15  O   UNL     1      -3.206   2.203  24.300  0.00  0.00    -0.152 OA
ATOM     16  O   UNL     1      -2.226   1.699  24.277  0.00  0.00    -0.152 OA
BRANCH  14  17
ATOM     17  C   UNL     1      -2.643   3.307  25.203  0.00  0.00    +0.152 A 
ATOM     18  C   UNL     1      -3.085   3.335  25.898  0.00  0.00    +0.027 A 
ATOM     19  C   UNL     1      -3.108   4.120  26.153  0.00  0.00    +0.009 A 
ATOM     20  C   UNL     1      -2.681   4.576  25.614  0.00  0.00    +0.037 A 
ATOM     21  S   UNL     1      -2.393   4.074  25.027  0.00  0.00    -0.067 S 
ENDBRANCH  14  17
ENDBRANCH  12  14
TORSDOF 4
ENDMDL
MODEL 6
REMARK VINA RESULT:     -12.2      1.362      4.247
REMARK  Name = 
REMARK  4 active torsions:
REMARK  status: ('A' for Active; 'I' for Inactive)
REMARK    1  A    between atoms: C_2  and  C_26
REMARK    2  A    between atoms: N_3  and  C_4
REMARK    3  A    between atoms: N_12  and  S_14
REMARK    4  A    between atoms: S_14  and  C_17
REMARK                            x       y       z     vdW  Elec       q    Type
REMARK                         _______ _______ _______ _____ _____    ______ ____
ROOT
ATOM      4  C   UNL     1      -3.384   2.712  24.948  0.00  0.00    +0.130 A 
ATOM      5  C   UNL     1      -3.990   3.386  25.323  0.00  0.00    +0.023 A 
ATOM      6  C   UNL     1      -4.743   3.057  25.396  0.00  0.00    +0.014 A 
ATOM      7  C   UNL     1      -4.876   2.276  25.166  0.00  0.00    +0.041 A 
ATOM      8  C   UNL     1      -5.548   1.650  25.119  0.00  0.00    +0.056 C 
ATOM      9  C   UNL     1      -6.230   1.564  25.257  0.00  0.00    +0.011 C 
ATOM     10  C   UNL     1      -5.616   1.121  24.958  0.00  0.00    +0.041 C 
ATOM     11  C   UNL     1      -5.014   0.435  24.580  0.00  0.00    +0.098 C 
ATOM     12  N   UNL     1      -4.302   0.873  24.553  0.00  0.00    -0.155 NA
ATOM     13  C   UNL     1      -4.978   0.977  24.753  0.00  0.00    +0.102 C 
ATOM     22  C   UNL     1      -4.908   1.768  25.003  0.00  0.00    +0.110 C 
ATOM     23  N   UNL     1      -4.256   1.824  24.862  0.00  0.00    -0.298 N 
ATOM     24  C   UNL     1      -3.503   2.153  24.789  0.00  0.00    +0.276 A 
ATOM     25  O   UNL     1      -2.780   1.565  24.414  0.00  0.00    -0.266 OA
ENDROOT
BRANCH   4   3
ATOM      1  O   UNL     1      -1.971   3.686  26.481  0.00  0.00    -0.266 OA
ATOM      2  C   UNL     1      -2.124   3.655  25.620  0.00  0.00    +0.288 C 
ATOM      3  N   UNL     1      -2.632   3.316  24.967  0.00  0.00    -0.169 NA
BRANCH   2  26
ATOM     26  C   UNL     1      -1.556   4.150  25.276  0.00  0.00    +0.156 A 
ATOM     27  C   UNL     1      -1.775   4.941  25.353  0.00  0.00    +0.123 A 
ATOM     28  N   UNL     1      -1.289   5.535  25.050  0.00  0.00    -0.239 NA
ATOM     29  C   UNL     1      -0.585   5.337  24.670  0.00  0.00    +0.120 A 
ATOM     30  C   UNL     1      -0.365   4.546  24.592  0.00  0.00    +0.120 A 
ATOM     31  N   UNL     1      -0.851   3.951  24.896  0.00  0.00    -0.236 NA
ENDBRANCH   2  26
ENDBRANCH   4   3
BRANCH  12  14
ATOM     14  S   UNL     1      -3.433   0.888  24.346  0.00  0.00    +0.069 S 
ATOM     15  O   UNL     1      -2.592   0.978  24.120  0.00  0.00    -0.152 OA
ATOM     16  O   UNL     1      -3.385   1.741  24.056  0.00  0.00    -0.152 OA
BRANCH  14  17
ATOM     17  C   UNL     1      -3.589  -0.042  24.685  0.00  0.00    +0.152 A 
ATOM     18  C   UNL     1      -3.361  -0.289  25.438  0.00  0.00    +0.027 A 
ATOM     19  C   UNL     1      -3.578  -1.081  25.522  0.00  0.00    +0.009 A 
ATOM     20  C   UNL     1      -3.939  -1.322  24.820  0.00  0.00    +0.037 A 
ATOM     21  S   UNL     1      -3.947  -0.680  24.303  0.00  0.00    -0.067 S 
ENDBRANCH  14  17
ENDBRANCH  12  14
TORSDOF 4
ENDMDL
