MODEL 1
REMARK VINA RESULT:     -12.0      0.000      0.000
REMARK  Name = 
REMARK  7 active torsions:
REMARK  status: ('A' for Active; 'I' for Inactive)
REMARK    1  A    between atoms: C_3  and  C_4
REMARK    2  A    between atoms: C_4  and  N_5
REMARK    3  A    between atoms: C_6  and  C_8
REMARK    4  A    between atoms: C_15  and  C_16
REMARK    5  A    between atoms: C_16  and  C_17
REMARK    6  A    between atoms: N_19  and  C_20
REMARK    7  A    between atoms: C_20  and  C_21
REMARK                            x       y       z     vdW  Elec       q    Type
REMARK                         _______ _______ _______ _____ _____    ______ ____
ROOT
ATOM      1  O   UNL     1      -5.893   3.662  25.769  0.00  0.00    -0.218 OA
ATOM      2  C   UNL     1      -5.447   3.015  25.517  0.00  0.00    +0.213 C 
ATOM      3  C   UNL     1      -4.627   2.940  25.570  0.00  0.00    +0.170 C 
ATOM     14  O   UNL     1      -4.417   2.208  25.253  0.00  0.00    -0.351 OA
ATOM     15  C   UNL     1      -5.106   1.830  25.005  0.00  0.00    +0.157 C 
ATOM     27  C   UNL     1      -5.744   2.329  25.168  0.00  0.00    +0.212 C 
ATOM     28  O   UNL     1      -6.537   2.169  25.009  0.00  0.00    -0.218 OA
ENDROOT
BRANCH   3   4
ATOM      4  C   UNL     1      -4.108   3.500  25.884  0.00  0.00    +0.148 C 
BRANCH   4   5
ATOM      5  N   UNL     1      -3.368   3.614  25.541  0.00  0.00    -0.199 NA
ATOM      6  C   UNL     1      -2.799   4.071  25.929  0.00  0.00    +0.265 C 
ATOM      7  O   UNL     1      -2.973   4.412  26.659  0.00  0.00    -0.268 OA
BRANCH   6   8
ATOM      8  C   UNL     1      -2.058   4.185  25.586  0.00  0.00    +0.055 A 
ATOM      9  C   UNL     1      -1.864   4.918  25.258  0.00  0.00    +0.005 A 
ATOM     10  C   UNL     1      -1.121   5.031  24.915  0.00  0.00    +0.000 A 
ATOM     11  C   UNL     1      -0.575   4.414  24.899  0.00  0.00    +0.000 A 
ATOM     12  C   UNL     1      -0.770   3.682  25.226  0.00  0.00    +0.000 A 
ATOM     13  C   UNL     1      -1.511   3.567  25.569  0.00  0.00    +0.005 A 
ENDBRANCH   6   8
ENDBRANCH   4   5
ENDBRANCH   3   4
BRANCH  15  16
ATOM     16  C   UNL     1      -5.152   1.083  24.655  0.00  0.00    +0.119 C 
BRANCH  16  17
ATOM     17  C   UNL     1      -4.461   0.679  24.456  0.00  0.00    +0.244 C 
ATOM     18  O   UNL     1      -3.886   1.046  23.992  0.00  0.00    -0.273 OA
ATOM     19  N   UNL     1      -4.345  -0.093  24.723  0.00  0.00    -0.200 NA
BRANCH  19  20
ATOM     20  C   UNL     1      -3.654  -0.498  24.525  0.00  0.00    +0.143 C 
BRANCH  20  21
ATOM     21  C   UNL     1      -3.600  -1.310  24.657  0.00  0.00    +0.019 A 
ATOM     22  C   UNL     1      -3.810  -1.840  24.060  0.00  0.00    +0.001 A 
ATOM     23  C   UNL     1      -3.756  -2.653  24.192  0.00  0.00    +0.020 A 
ATOM     24  C   UNL     1      -3.494  -2.935  24.920  0.00  0.00    +0.099 A 
ATOM     25  N   UNL     1      -3.284  -2.407  25.518  0.00  0.00    -0.243 NA
ATOM     26  C   UNL     1      -3.338  -1.593  25.386  0.00  0.00    +0.096 A 
ENDBRANCH  20  21
ENDBRANCH  19  20
ENDBRANCH  16  17
ENDBRANCH  15  16
TORSDOF 7
ENDMDL
MODEL 2
REMARK VINA RESULT:     -11.6      1.970      3.625
REMARK  Name = 
REMARK  7 active torsions:
REMARK  status: ('A' for Active; 'I' for Inactive)
REMARK    1  A    between atoms: C_3  and  C_4
REMARK    2  A    between atoms: C_4  and  N_5
REMARK    3  A    between atoms: C_6  and  C_8
REMARK    4  A    between atoms: C_15  and  C_16
REMARK    5  A    between atoms: C_16  and  C_17
REMARK    6  A    between atoms: N_19  and  C_20
REMARK    7  A    between atoms: C_20  and  C_21
REMARK                            x       y       z     vdW  Elec       q    Type
REMARK                         _______ _______ _______ _____ _____    ______ ____
ROOT
ATOM      1  O   UNL     1      -0.527   3.408  24.231  0.00  0.00    -0.218 OA
ATOM      2  C   UNL     1      -0.803   2.646  24.385  0.00  0.00    +0.213 C 
ATOM      3  C   UNL     1      -1.588   2.432  24.520  0.00  0.00    +0.170 C 
ATOM     14  O   UNL     1      -1.612   1.617  24.649  0.00  0.00    -0.351 OA
ATOM     15  C   UNL     1      -0.841   1.328  24.594  0.00  0.00    +0.157 C 
ATOM     27  C   UNL     1      -0.341   1.964  24.430  0.00  0.00    +0.212 C 
ATOM     28  O   UNL     1       0.477   1.923  24.330  0.00  0.00    -0.218 OA
ENDROOT
BRANCH   3   4
ATOM      4  C   UNL     1      -2.236   2.943  24.525  0.00  0.00    +0.148 C 
BRANCH   4   5
ATOM      5  N   UNL     1      -2.974   2.672  24.775  0.00  0.00    -0.199 NA
ATOM      6  C   UNL     1      -3.640   3.151  24.689  0.00  0.00    +0.265 C 
ATOM      7  O   UNL     1      -3.569   3.900  24.353  0.00  0.00    -0.268 OA
BRANCH   6   8
ATOM      8  C   UNL     1      -4.378   2.879  24.939  0.00  0.00    +0.055 A 
ATOM      9  C   UNL     1      -4.729   3.202  25.613  0.00  0.00    +0.005 A 
ATOM     10  C   UNL     1      -5.468   2.930  25.862  0.00  0.00    +0.000 A 
ATOM     11  C   UNL     1      -5.853   2.337  25.440  0.00  0.00    +0.000 A 
ATOM     12  C   UNL     1      -5.502   2.014  24.766  0.00  0.00    +0.000 A 
ATOM     13  C   UNL     1      -4.764   2.285  24.516  0.00  0.00    +0.005 A 
ENDBRANCH   6   8
ENDBRANCH   4   5
ENDBRANCH   3   4
BRANCH  15  16
ATOM     16  C   UNL     1      -0.611   0.540  24.686  0.00  0.00    +0.119 C 
BRANCH  16  17
ATOM     17  C   UNL     1      -1.060   0.032  25.154  0.00  0.00    +0.244 C 
ATOM     18  O   UNL     1      -0.997   0.063  25.976  0.00  0.00    -0.273 OA
ATOM     19  N   UNL     1      -1.574  -0.508  24.800  0.00  0.00    -0.200 NA
BRANCH  19  20
ATOM     20  C   UNL     1      -2.024  -1.018  25.268  0.00  0.00    +0.143 C 
BRANCH  20  21
ATOM     21  C   UNL     1      -2.606  -1.489  24.922  0.00  0.00    +0.019 A 
ATOM     22  C   UNL     1      -3.385  -1.217  24.880  0.00  0.00    +0.001 A 
ATOM     23  C   UNL     1      -3.967  -1.689  24.534  0.00  0.00    +0.020 A 
ATOM     24  C   UNL     1      -3.771  -2.429  24.230  0.00  0.00    +0.099 A 
ATOM     25  N   UNL     1      -2.993  -2.700  24.272  0.00  0.00    -0.243 NA
ATOM     26  C   UNL     1      -2.411  -2.229  24.618  0.00  0.00    +0.096 A 
ENDBRANCH  20  21
ENDBRANCH  19  20
ENDBRANCH  16  17
ENDBRANCH  15  16
TORSDOF 7
ENDMDL
MODEL 3
REMARK VINA RESULT:     -11.5      1.939      5.018
REMARK  Name = 
REMARK  7 active torsions:
REMARK  status: ('A' for Active; 'I' for Inactive)
REMARK    1  A    between atoms: C_3  and  C_4
REMARK    2  A    between atoms: C_4  and  N_5
REMARK    3  A    between atoms: C_6  and  C_8
REMARK    4  A    between atoms: C_15  and  C_16
REMARK    5  A    between atoms: C_16  and  C_17
REMARK    6  A    between atoms: N_19  and  C_20
REMARK    7  A    between atoms: C_20  and  C_21
REMARK                            x       y       z     vdW  Elec       q    Type
REMARK                         _______ _______ _______ _____ _____    ______ ____
ROOT
ATOM      1  O   UNL     1       0.486   1.933  25.454  0.00  0.00    -0.218 OA
ATOM      2  C   UNL     1      -0.315   2.127  25.450  0.00  0.00    +0.213 C 
ATOM      3  C   UNL     1      -0.945   1.594  25.439  0.00  0.00    +0.170 C 
ATOM     14  O   UNL     1      -1.646   2.028  25.438  0.00  0.00    -0.351 OA
ATOM     15  C   UNL     1      -1.451   2.829  25.449  0.00  0.00    +0.157 C 
ATOM     27  C   UNL     1      -0.628   2.891  25.456  0.00  0.00    +0.212 C 
ATOM     28  O   UNL     1      -0.195   3.593  25.467  0.00  0.00    -0.218 OA
ENDROOT
BRANCH   3   4
ATOM      4  C   UNL     1      -0.882   0.771  25.430  0.00  0.00    +0.148 C 
BRANCH   4   5
ATOM      5  N   UNL     1      -1.553   0.308  25.305  0.00  0.00    -0.199 NA
ATOM      6  C   UNL     1      -1.512  -0.511  25.397  0.00  0.00    +0.265 C 
ATOM      7  O   UNL     1      -0.800  -0.866  25.614  0.00  0.00    -0.268 OA
BRANCH   6   8
ATOM      8  C   UNL     1      -2.183  -0.974  25.272  0.00  0.00    +0.055 A 
ATOM      9  C   UNL     1      -2.210  -1.497  24.633  0.00  0.00    +0.005 A 
ATOM     10  C   UNL     1      -2.882  -1.960  24.508  0.00  0.00    +0.000 A 
ATOM     11  C   UNL     1      -3.525  -1.901  25.021  0.00  0.00    +0.000 A 
ATOM     12  C   UNL     1      -3.498  -1.378  25.659  0.00  0.00    +0.000 A 
ATOM     13  C   UNL     1      -2.827  -0.915  25.785  0.00  0.00    +0.005 A 
ENDBRANCH   6   8
ENDBRANCH   4   5
ENDBRANCH   3   4
BRANCH  15  16
ATOM     16  C   UNL     1      -1.985   3.459  25.451  0.00  0.00    +0.119 C 
BRANCH  16  17
ATOM     17  C   UNL     1      -2.667   3.423  24.988  0.00  0.00    +0.244 C 
ATOM     18  O   UNL     1      -2.626   3.582  24.180  0.00  0.00    -0.273 OA
ATOM     19  N   UNL     1      -3.389   3.227  25.335  0.00  0.00    -0.200 NA
BRANCH  19  20
ATOM     20  C   UNL     1      -4.072   3.190  24.872  0.00  0.00    +0.143 C 
BRANCH  20  21
ATOM     21  C   UNL     1      -4.748   2.820  25.164  0.00  0.00    +0.019 A 
ATOM     22  C   UNL     1      -5.015   2.118  24.820  0.00  0.00    +0.001 A 
ATOM     23  C   UNL     1      -5.691   1.747  25.113  0.00  0.00    +0.020 A 
ATOM     24  C   UNL     1      -6.101   2.077  25.747  0.00  0.00    +0.099 A 
ATOM     25  N   UNL     1      -5.835   2.778  26.091  0.00  0.00    -0.243 NA
ATOM     26  C   UNL     1      -5.158   3.149  25.798  0.00  0.00    +0.096 A 
ENDBRANCH  20  21
ENDBRANCH  19  20
ENDBRANCH  16  17
ENDBRANCH  15  16
TORSDOF 7
ENDMDL
MODEL 4
REMARK VINA RESULT:     -11.3      1.905      3.794
REMARK  Name = 
REMARK  7 active torsions:
REMARK  status: ('A' for Active; 'I' for Inactive)
REMARK    1  A    between atoms: C_3  and  C_4
REMARK    2  A    between atoms: C_4  and  N_5
REMARK    3  A    between atoms: C_6  and  C_8
REMARK    4  A    between atoms: C_15  and  C_16
REMARK    5  A    between atoms: C_16  and  C_17
REMARK    6  A    between atoms: N_19  and  C_20
REMARK    7  A    between atoms: C_20  and  C_21
REMARK                            x       y       z     vdW  Elec       q    Type
REMARK                         _______ _______ _______ _____ _____    ______ ____
ROOT
ATOM      1  O   UNL     1      -0.357  -0.755  25.076  0.00  0.00    -0.218 OA
ATOM      2  C   UNL     1      -1.126  -0.461  25.120  0.00  0.00    +0.213 C 
ATOM      3  C   UNL     1      -1.339   0.327  25.242  0.00  0.00    +0.170 C 
ATOM     14  O   UNL     1      -2.163   0.371  25.247  0.00  0.00    -0.351 OA
ATOM     15  C   UNL     1      -2.460  -0.389  25.127  0.00  0.00    +0.157 C 
ATOM     27  C   UNL     1      -1.819  -0.904  25.049  0.00  0.00    +0.212 C 
ATOM     28  O   UNL     1      -1.864  -1.718  24.921  0.00  0.00    -0.218 OA
ENDROOT
BRANCH   3   4
ATOM      4  C   UNL     1      -0.819   0.959  25.342  0.00  0.00    +0.148 C 
BRANCH   4   5
ATOM      5  N   UNL     1      -1.087   1.733  25.247  0.00  0.00    -0.199 NA
ATOM      6  C   UNL     1      -0.616   2.366  25.490  0.00  0.00    +0.265 C 
ATOM      7  O   UNL     1       0.123   2.224  25.828  0.00  0.00    -0.268 OA
BRANCH   6   8
ATOM      8  C   UNL     1      -0.884   3.140  25.396  0.00  0.00    +0.055 A 
ATOM      9  C   UNL     1      -0.523   3.637  24.844  0.00  0.00    +0.005 A 
ATOM     10  C   UNL     1      -0.792   4.412  24.750  0.00  0.00    +0.000 A 
ATOM     11  C   UNL     1      -1.421   4.689  25.206  0.00  0.00    +0.000 A 
ATOM     12  C   UNL     1      -1.782   4.191  25.757  0.00  0.00    +0.000 A 
ATOM     13  C   UNL     1      -1.514   3.417  25.852  0.00  0.00    +0.005 A 
ENDBRANCH   6   8
ENDBRANCH   4   5
ENDBRANCH   3   4
BRANCH  15  16
ATOM     16  C   UNL     1      -3.258  -0.599  25.093  0.00  0.00    +0.119 C 
BRANCH  16  17
ATOM     17  C   UNL     1      -3.788  -0.132  24.667  0.00  0.00    +0.244 C 
ATOM     18  O   UNL     1      -3.879  -0.246  23.855  0.00  0.00    -0.273 OA
ATOM     19  N   UNL     1      -4.227   0.449  25.055  0.00  0.00    -0.200 NA
BRANCH  19  20
ATOM     20  C   UNL     1      -4.758   0.917  24.629  0.00  0.00    +0.143 C 
BRANCH  20  21
ATOM     21  C   UNL     1      -5.044   1.617  24.958  0.00  0.00    +0.019 A 
ATOM     22  C   UNL     1      -4.791   2.345  24.661  0.00  0.00    +0.001 A 
ATOM     23  C   UNL     1      -5.077   3.045  24.989  0.00  0.00    +0.020 A 
ATOM     24  C   UNL     1      -5.615   3.019  25.613  0.00  0.00    +0.099 A 
ATOM     25  N   UNL     1      -5.869   2.292  25.909  0.00  0.00    -0.243 NA
ATOM     26  C   UNL     1      -5.582   1.591  25.581  0.00  0.00    +0.096 A 
ENDBRANCH  20  21
ENDBRANCH  19  20
ENDBRANCH  16  17
ENDBRANCH  15  16
TORSDOF 7
ENDMDL
MODEL 5
REMARK VINA RESULT:     -11.0      2.173      4.381
REMARK  Name = 
REMARK  7 active torsions:
REMARK  status: ('A' for Active; 'I' for Inactive)
REMARK    1  A    between atoms: C_3  and  C_4
REMARK    2  A    between atoms: C_4  and  N_5
REMARK    3  A    between atoms: C_6  and  C_8
REMARK    4  A    between atoms: C_15  and  C_16
REMARK    5  A    between atoms: C_16  and  C_17
REMARK    6  A    between atoms: N_19  and  C_20
REMARK    7  A    between atoms: C_20  and  C_21
REMARK                            x       y       z     vdW  Elec       q    Type
REMARK                         _______ _______ _______ _____ _____    ______ ____
ROOT
ATOM      1  O   UNL     1      -4.544   3.497  25.026  0.00  0.00    -0.218 OA
ATOM      2  C   UNL     1      -3.789   3.168  24.988  0.00  0.00    +0.213 C 
ATOM      3  C   UNL     1      -3.610   2.363  24.957  0.00  0.00    +0.170 C 
ATOM     14  O   UNL     1      -2.790   2.285  24.924  0.00  0.00    -0.351 OA
ATOM     15  C   UNL     1      -2.461   3.041  24.934  0.00  0.00    +0.157 C 
ATOM     27  C   UNL     1      -3.078   3.588  24.973  0.00  0.00    +0.212 C 
ATOM     28  O   UNL     1      -2.998   4.409  24.995  0.00  0.00    -0.218 OA
ENDROOT
BRANCH   3   4
ATOM      4  C   UNL     1      -4.158   1.745  24.959  0.00  0.00    +0.148 C 
BRANCH   4   5
ATOM      5  N   UNL     1      -3.902   0.968  24.854  0.00  0.00    -0.199 NA
ATOM      6  C   UNL     1      -4.435   0.344  24.941  0.00  0.00    +0.265 C 
ATOM      7  O   UNL     1      -5.222   0.497  25.134  0.00  0.00    -0.268 OA
BRANCH   6   8
ATOM      8  C   UNL     1      -4.180  -0.433  24.835  0.00  0.00    +0.055 A 
ATOM      9  C   UNL     1      -3.806  -0.833  25.453  0.00  0.00    +0.005 A 
ATOM     10  C   UNL     1      -3.551  -1.610  25.347  0.00  0.00    +0.000 A 
ATOM     11  C   UNL     1      -3.669  -1.988  24.624  0.00  0.00    +0.000 A 
ATOM     12  C   UNL     1      -4.043  -1.589  24.006  0.00  0.00    +0.000 A 
ATOM     13  C   UNL     1      -4.298  -0.812  24.111  0.00  0.00    +0.005 A 
ENDBRANCH   6   8
ENDBRANCH   4   5
ENDBRANCH   3   4
BRANCH  15  16
ATOM     16  C   UNL     1      -1.655   3.221  24.908  0.00  0.00    +0.119 C 
BRANCH  16  17
ATOM     17  C   UNL     1      -1.102   2.665  25.164  0.00  0.00    +0.244 C 
ATOM     18  O   UNL     1      -0.867   2.650  25.955  0.00  0.00    -0.273 OA
ATOM     19  N   UNL     1      -0.783   2.125  24.629  0.00  0.00    -0.200 NA
BRANCH  19  20
ATOM     20  C   UNL     1      -0.229   1.569  24.884  0.00  0.00    +0.143 C 
BRANCH  20  21
ATOM     21  C   UNL     1      -0.052   0.917  24.411  0.00  0.00    +0.019 A 
ATOM     22  C   UNL     1      -0.374   0.178  24.590  0.00  0.00    +0.001 A 
ATOM     23  C   UNL     1      -0.197  -0.474  24.117  0.00  0.00    +0.020 A 
ATOM     24  C   UNL     1       0.301  -0.389  23.466  0.00  0.00    +0.099 A 
ATOM     25  N   UNL     1       0.624   0.349  23.287  0.00  0.00    -0.243 NA
ATOM     26  C   UNL     1       0.446   1.002  23.761  0.00  0.00    +0.096 A 
ENDBRANCH  20  21
ENDBRANCH  19  20
ENDBRANCH  16  17
ENDBRANCH  15  16
TORSDOF 7
ENDMDL
MODEL 6
REMARK VINA RESULT:     -11.0      1.201      4.504
REMARK  Name = 
REMARK  7 active torsions:
REMARK  status: ('A' for Active; 'I' for Inactive)
REMARK    1  A    between atoms: C_3  and  C_4
REMARK    2  A    between atoms: C_4  and  N_5
REMARK    3  A    between atoms: C_6  and  C_8
REMARK    4  A    between atoms: C_15  and  C_16
REMARK    5  A    between atoms: C_16  and  C_17
REMARK    6  A    between atoms: N_19  and  C_20
REMARK    7  A    between atoms: C_20  and  C_21
REMARK                            x       y       z     vdW  Elec       q    Type
REMARK                         _______ _______ _______ _____ _____    ______ ____
ROOT
ATOM      1  O   UNL     1      -6.314   1.727  25.264  0.00  0.00    -0.218 OA
ATOM      2  C   UNL     1      -5.537   2.002  25.240  0.00  0.00    +0.213 C 
ATOM      3  C   UNL     1      -4.876   1.569  25.003  0.00  0.00    +0.170 C 
ATOM     14  O   UNL     1      -4.215   2.058  25.065  0.00  0.00    -0.351 OA
ATOM     15  C   UNL     1      -4.467   2.793  25.341  0.00  0.00    +0.157 C 
ATOM     27  C   UNL     1      -5.284   2.759  25.449  0.00  0.00    +0.212 C 
ATOM     28  O   UNL     1      -5.764   3.374  25.719  0.00  0.00    -0.218 OA
ENDROOT
BRANCH   3   4
ATOM      4  C   UNL     1      -4.877   0.784  24.748  0.00  0.00    +0.148 C 
BRANCH   4   5
ATOM      5  N   UNL     1      -4.229   0.299  24.904  0.00  0.00    -0.199 NA
ATOM      6  C   UNL     1      -4.169  -0.439  24.539  0.00  0.00    +0.265 C 
ATOM      7  O   UNL     1      -4.756  -0.691  24.018  0.00  0.00    -0.268 OA
BRANCH   6   8
ATOM      8  C   UNL     1      -3.521  -0.925  24.696  0.00  0.00    +0.055 A 
ATOM      9  C   UNL     1      -2.755  -0.619  24.648  0.00  0.00    +0.005 A 
ATOM     10  C   UNL     1      -2.107  -1.106  24.805  0.00  0.00    +0.000 A 
ATOM     11  C   UNL     1      -2.224  -1.896  25.009  0.00  0.00    +0.000 A 
ATOM     12  C   UNL     1      -2.989  -2.201  25.057  0.00  0.00    +0.000 A 
ATOM     13  C   UNL     1      -3.637  -1.716  24.900  0.00  0.00    +0.005 A 
ENDBRANCH   6   8
ENDBRANCH   4   5
ENDBRANCH   3   4
BRANCH  15  16
ATOM     16  C   UNL     1      -3.986   3.449  25.484  0.00  0.00    +0.119 C 
BRANCH  16  17
ATOM     17  C   UNL     1      -3.294   3.555  25.047  0.00  0.00    +0.244 C 
ATOM     18  O   UNL     1      -3.328   3.895  24.296  0.00  0.00    -0.273 OA
ATOM     19  N   UNL     1      -2.569   3.321  25.362  0.00  0.00    -0.200 NA
BRANCH  19  20
ATOM     20  C   UNL     1      -1.876   3.427  24.925  0.00  0.00    +0.143 C 
BRANCH  20  21
ATOM     21  C   UNL     1      -1.195   3.008  25.126  0.00  0.00    +0.019 A 
ATOM     22  C   UNL     1      -0.912   3.026  25.901  0.00  0.00    +0.001 A 
ATOM     23  C   UNL     1      -0.231   2.607  26.102  0.00  0.00    +0.020 A 
ATOM     24  C   UNL     1       0.168   2.170  25.529  0.00  0.00    +0.099 A 
ATOM     25  N   UNL     1      -0.114   2.150  24.754  0.00  0.00    -0.243 NA
ATOM     26  C   UNL     1      -0.796   2.570  24.552  0.00  0.00    +0.096 A 
ENDBRANCH  20  21
ENDBRANCH  19  20
ENDBRANCH  16  17
ENDBRANCH  15  16
TORSDOF 7
ENDMDL
MODEL 7
REMARK VINA RESULT:      -8.7     16.509     19.277
REMARK  Name = 
REMARK  7 active torsions:
REMARK  status: ('A' for Active; 'I' for Inactive)
REMARK    1  A    between atoms: C_3  and  C_4
REMARK    2  A    between atoms: C_4  and  N_5
REMARK    3  A    between atoms: C_6  and  C_8
REMARK    4  A    between atoms: C_15  and  C_16
REMARK    5  A    between atoms: C_16  and  C_17
REMARK    6  A    between atoms: N_19  and  C_20
REMARK    7  A    between atoms: C_20  and  C_21
REMARK                            x       y       z     vdW  Elec       q    Type
REMARK                         _______ _______ _______ _____ _____    ______ ____
ROOT
ATOM      1  O   UNL     1      14.134   7.748  16.426  0.00  0.00    -0.218 OA
ATOM      2  C   UNL     1      13.741   7.805  17.149  0.00  0.00    +0.213 C 
ATOM      3  C   UNL     1      14.029   7.552  17.880  0.00  0.00    +0.170 C 
ATOM     14  O   UNL     1      13.455   7.716  18.450  0.00  0.00    -0.351 OA
ATOM     15  C   UNL     1      12.814   8.070  18.072  0.00  0.00    +0.157 C 
ATOM     27  C   UNL     1      12.990   8.126  17.268  0.00  0.00    +0.212 C 
ATOM     28  O   UNL     1      12.501   8.445  16.685  0.00  0.00    -0.218 OA
ENDROOT
BRANCH   3   4
ATOM      4  C   UNL     1      14.761   7.197  18.016  0.00  0.00    +0.148 C 
BRANCH   4   5
ATOM      5  N   UNL     1      15.078   7.184  18.777  0.00  0.00    -0.199 NA
ATOM      6  C   UNL     1      15.697   6.668  18.957  0.00  0.00    +0.265 C 
ATOM      7  O   UNL     1      15.997   6.166  18.376  0.00  0.00    -0.268 OA
BRANCH   6   8
ATOM      8  C   UNL     1      16.014   6.655  19.718  0.00  0.00    +0.055 A 
ATOM      9  C   UNL     1      16.807   6.851  19.839  0.00  0.00    +0.005 A 
ATOM     10  C   UNL     1      17.123   6.838  20.601  0.00  0.00    +0.000 A 
ATOM     11  C   UNL     1      16.648   6.629  21.241  0.00  0.00    +0.000 A 
ATOM     12  C   UNL     1      15.856   6.432  21.121  0.00  0.00    +0.000 A 
ATOM     13  C   UNL     1      15.539   6.445  20.360  0.00  0.00    +0.005 A 
ENDBRANCH   6   8
ENDBRANCH   4   5
ENDBRANCH   3   4
BRANCH  15  16
ATOM     16  C   UNL     1      12.117   8.325  18.435  0.00  0.00    +0.119 C 
BRANCH  16  17
ATOM     17  C   UNL     1      12.090   8.420  19.254  0.00  0.00    +0.244 C 
ATOM     18  O   UNL     1      12.416   9.093  19.602  0.00  0.00    -0.273 OA
ATOM     19  N   UNL     1      11.737   7.842  19.723  0.00  0.00    -0.200 NA
BRANCH  19  20
ATOM     20  C   UNL     1      11.710   7.936  20.543  0.00  0.00    +0.143 C 
BRANCH  20  21
ATOM     21  C   UNL     1      11.344   7.364  21.012  0.00  0.00    +0.019 A 
ATOM     22  C   UNL     1      11.680   6.613  21.083  0.00  0.00    +0.001 A 
ATOM     23  C   UNL     1      11.313   6.042  21.552  0.00  0.00    +0.020 A 
ATOM     24  C   UNL     1      10.614   6.220  21.948  0.00  0.00    +0.099 A 
ATOM     25  N   UNL     1      10.278   6.970  21.878  0.00  0.00    -0.243 NA
ATOM     26  C   UNL     1      10.644   7.543  21.409  0.00  0.00    +0.096 A 
ENDBRANCH  20  21
ENDBRANCH  19  20
ENDBRANCH  16  17
ENDBRANCH  15  16
TORSDOF 7
ENDMDL
