MODEL 1
REMARK VINA RESULT:     -11.8      0.000      0.000
REMARK  Name = 
REMARK  6 active torsions:
REMARK  status: ('A' for Active; 'I' for Inactive)
REMARK    1  A    between atoms: O_2  and  C_3
REMARK    2  A    between atoms: C_8  and  C_9
REMARK    3  A    between atoms: C_12  and  C_14
REMARK    4  A    between atoms: N_17  and  C_18
REMARK    5  A    between atoms: C_18  and  C_19
REMARK    6  A    between atoms: C_22  and  N_23
REMARK                            x       y       z     vdW  Elec       q    Type
REMARK                         _______ _______ _______ _____ _____    ______ ____
ROOT
ATOM     14  C   UNL     1      -4.131   2.390  25.047  0.00  0.00    +0.096 C 
ATOM     15  C   UNL     1      -4.659   2.438  24.414  0.00  0.00    +0.028 C 
ATOM     16  C   UNL     1      -5.044   1.711  24.348  0.00  0.00    +0.073 C 
ATOM     17  N   UNL     1      -4.754   1.214  24.938  0.00  0.00    -0.268 NA
ATOM     29  C   UNL     1      -4.190   1.634  25.371  0.00  0.00    +0.082 C 
ENDROOT
BRANCH  14  12
ATOM      9  C   UNL     1      -2.609   3.845  25.398  0.00  0.00    +0.252 A 
ATOM     10  N   UNL     1      -3.122   3.996  26.026  0.00  0.00    -0.107 NA
ATOM     11  N   UNL     1      -3.755   3.469  25.972  0.00  0.00    -0.111 NA
ATOM     12  C   UNL     1      -3.633   2.993  25.310  0.00  0.00    +0.227 A 
ATOM     13  O   UNL     1      -2.925   3.225  24.955  0.00  0.00    -0.419 OA
BRANCH   9   8
ATOM      3  C   UNL     1      -1.182   3.864  25.356  0.00  0.00    +0.143 A 
ATOM      4  C   UNL     1      -0.477   4.263  25.199  0.00  0.00    +0.037 A 
ATOM      5  C   UNL     1      -0.495   5.042  24.927  0.00  0.00    +0.003 A 
ATOM      6  C   UNL     1      -1.219   5.421  24.811  0.00  0.00    +0.000 A 
ATOM      7  C   UNL     1      -1.924   5.023  24.969  0.00  0.00    +0.008 A 
ATOM      8  C   UNL     1      -1.904   4.244  25.241  0.00  0.00    +0.089 A 
BRANCH   3   2
ATOM      1  C   UNL     1      -0.440   2.721  25.786  0.00  0.00    +0.252 C 
ATOM      2  O   UNL     1      -1.162   3.086  25.629  0.00  0.00    -0.471 OA
ENDBRANCH   3   2
ENDBRANCH   9   8
ENDBRANCH  14  12
BRANCH  17  18
ATOM     18  C   UNL     1      -4.986   0.434  25.074  0.00  0.00    +0.099 C 
BRANCH  18  19
ATOM     19  C   UNL     1      -4.450  -0.183  24.958  0.00  0.00    -0.006 A 
ATOM     20  C   UNL     1      -4.022  -0.482  25.597  0.00  0.00    -0.002 A 
ATOM     21  C   UNL     1      -3.486  -1.099  25.481  0.00  0.00    +0.016 A 
ATOM     22  C   UNL     1      -3.379  -1.415  24.727  0.00  0.00    +0.073 A 
ATOM     27  C   UNL     1      -3.806  -1.116  24.089  0.00  0.00    +0.016 A 
ATOM     28  C   UNL     1      -4.343  -0.499  24.204  0.00  0.00    -0.002 A 
BRANCH  22  23
ATOM     23  N   UNL     1      -2.843  -2.032  24.611  0.00  0.00    -0.179 NA
ATOM     24  C   UNL     1      -2.038  -1.869  24.530  0.00  0.00    +0.246 C 
ATOM     25  C   UNL     1      -1.502  -2.486  24.415  0.00  0.00    +0.097 C 
ATOM     26  O   UNL     1      -1.769  -1.090  24.565  0.00  0.00    -0.273 OA
ENDBRANCH  22  23
ENDBRANCH  18  19
ENDBRANCH  17  18
TORSDOF 6
ENDMDL
MODEL 2
REMARK VINA RESULT:     -11.8      1.192      5.167
REMARK  Name = 
REMARK  6 active torsions:
REMARK  status: ('A' for Active; 'I' for Inactive)
REMARK    1  A    between atoms: O_2  and  C_3
REMARK    2  A    between atoms: C_8  and  C_9
REMARK    3  A    between atoms: C_12  and  C_14
REMARK    4  A    between atoms: N_17  and  C_18
REMARK    5  A    between atoms: C_18  and  C_19
REMARK    6  A    between atoms: C_22  and  N_23
REMARK                            x       y       z     vdW  Elec       q    Type
REMARK                         _______ _______ _______ _____ _____    ______ ____
ROOT
ATOM     14  C   UNL     1      -4.597   1.289  24.846  0.00  0.00    +0.096 C 
ATOM     15  C   UNL     1      -5.277   1.275  25.314  0.00  0.00    +0.028 C 
ATOM     16  C   UNL     1      -5.426   2.046  25.570  0.00  0.00    +0.073 C 
ATOM     17  N   UNL     1      -4.840   2.535  25.259  0.00  0.00    -0.268 NA
ATOM     29  C   UNL     1      -4.327   2.068  24.812  0.00  0.00    +0.082 C 
ENDROOT
BRANCH  14  12
ATOM      9  C   UNL     1      -3.829  -0.603  24.225  0.00  0.00    +0.252 A 
ATOM     10  N   UNL     1      -3.603  -0.123  23.593  0.00  0.00    -0.107 NA
ATOM     11  N   UNL     1      -3.863   0.644  23.748  0.00  0.00    -0.111 NA
ATOM     12  C   UNL     1      -4.250   0.639  24.476  0.00  0.00    +0.227 A 
ATOM     13  O   UNL     1      -4.229  -0.132  24.771  0.00  0.00    -0.419 OA
BRANCH   9   8
ATOM      3  C   UNL     1      -2.981  -1.672  24.649  0.00  0.00    +0.143 A 
ATOM      4  C   UNL     1      -2.833  -2.480  24.722  0.00  0.00    +0.037 A 
ATOM      5  C   UNL     1      -3.383  -3.027  24.444  0.00  0.00    +0.003 A 
ATOM      6  C   UNL     1      -4.084  -2.766  24.093  0.00  0.00    +0.000 A 
ATOM      7  C   UNL     1      -4.232  -1.958  24.020  0.00  0.00    +0.008 A 
ATOM      8  C   UNL     1      -3.680  -1.411  24.298  0.00  0.00    +0.089 A 
BRANCH   3   2
ATOM      1  C   UNL     1      -1.708  -1.384  25.230  0.00  0.00    +0.252 C 
ATOM      2  O   UNL     1      -2.429  -1.125  24.927  0.00  0.00    -0.471 OA
ENDBRANCH   3   2
ENDBRANCH   9   8
ENDBRANCH  14  12
BRANCH  17  18
ATOM     18  C   UNL     1      -4.776   3.350  25.376  0.00  0.00    +0.099 C 
BRANCH  18  19
ATOM     19  C   UNL     1      -4.036   3.713  25.354  0.00  0.00    -0.006 A 
ATOM     20  C   UNL     1      -3.576   3.755  26.039  0.00  0.00    -0.002 A 
ATOM     21  C   UNL     1      -2.836   4.118  26.017  0.00  0.00    +0.016 A 
ATOM     22  C   UNL     1      -2.555   4.440  25.311  0.00  0.00    +0.073 A 
ATOM     27  C   UNL     1      -3.014   4.398  24.628  0.00  0.00    +0.016 A 
ATOM     28  C   UNL     1      -3.755   4.035  24.648  0.00  0.00    -0.002 A 
BRANCH  22  23
ATOM     23  N   UNL     1      -1.815   4.803  25.290  0.00  0.00    -0.179 NA
ATOM     24  C   UNL     1      -1.162   4.393  24.995  0.00  0.00    +0.246 C 
ATOM     25  C   UNL     1      -0.422   4.757  24.974  0.00  0.00    +0.097 C 
ATOM     26  O   UNL     1      -1.250   3.620  24.722  0.00  0.00    -0.273 OA
ENDBRANCH  22  23
ENDBRANCH  18  19
ENDBRANCH  17  18
TORSDOF 6
ENDMDL
MODEL 3
REMARK VINA RESULT:     -11.8      1.855      2.772
REMARK  Name = 
REMARK  6 active torsions:
REMARK  status: ('A' for Active; 'I' for Inactive)
REMARK    1  A    between atoms: O_2  and  C_3
REMARK    2  A    between atoms: C_8  and  C_9
REMARK    3  A    between atoms: C_12  and  C_14
REMARK    4  A    between atoms: N_17  and  C_18
REMARK    5  A    between atoms: C_18  and  C_19
REMARK    6  A    between atoms: C_22  and  N_23
REMARK                            x       y       z     vdW  Elec       q    Type
REMARK                         _______ _______ _______ _____ _____    ______ ____
ROOT
ATOM     14  C   UNL     1      -0.595   1.045  25.213  0.00  0.00    +0.096 C 
ATOM     15  C   UNL     1      -0.382   0.772  24.463  0.00  0.00    +0.028 C 
ATOM     16  C   UNL     1      -0.467  -0.049  24.457  0.00  0.00    +0.073 C 
ATOM     17  N   UNL     1      -0.732  -0.283  25.202  0.00  0.00    -0.268 NA
ATOM     29  C   UNL     1      -0.812   0.393  25.669  0.00  0.00    +0.082 C 
ENDROOT
BRANCH  14  12
ATOM      9  C   UNL     1      -0.817   3.146  25.516  0.00  0.00    +0.252 A 
ATOM     10  N   UNL     1      -0.358   2.938  26.169  0.00  0.00    -0.107 NA
ATOM     11  N   UNL     1      -0.219   2.125  26.136  0.00  0.00    -0.111 NA
ATOM     12  C   UNL     1      -0.592   1.831  25.461  0.00  0.00    +0.227 A 
ATOM     13  O   UNL     1      -0.962   2.462  25.079  0.00  0.00    -0.419 OA
BRANCH   9   8
ATOM      3  C   UNL     1      -1.847   4.135  25.547  0.00  0.00    +0.143 A 
ATOM      4  C   UNL     1      -2.115   4.894  25.364  0.00  0.00    +0.037 A 
ATOM      5  C   UNL     1      -1.620   5.422  24.968  0.00  0.00    +0.003 A 
ATOM      6  C   UNL     1      -0.857   5.191  24.754  0.00  0.00    +0.000 A 
ATOM      7  C   UNL     1      -0.589   4.432  24.937  0.00  0.00    +0.008 A 
ATOM      8  C   UNL     1      -1.085   3.905  25.334  0.00  0.00    +0.089 A 
BRANCH   3   2
ATOM      1  C   UNL     1      -3.108   3.836  26.150  0.00  0.00    +0.252 C 
ATOM      2  O   UNL     1      -2.343   3.608  25.943  0.00  0.00    -0.471 OA
ENDBRANCH   3   2
ENDBRANCH   9   8
ENDBRANCH  14  12
BRANCH  17  18
ATOM     18  C   UNL     1      -0.891  -1.058  25.439  0.00  0.00    +0.099 C 
BRANCH  18  19
ATOM     19  C   UNL     1      -1.583  -1.431  25.191  0.00  0.00    -0.006 A 
ATOM     20  C   UNL     1      -2.300  -1.263  25.565  0.00  0.00    -0.002 A 
ATOM     21  C   UNL     1      -2.992  -1.637  25.317  0.00  0.00    +0.016 A 
ATOM     22  C   UNL     1      -2.968  -2.178  24.695  0.00  0.00    +0.073 A 
ATOM     27  C   UNL     1      -2.253  -2.346  24.320  0.00  0.00    +0.016 A 
ATOM     28  C   UNL     1      -1.560  -1.972  24.568  0.00  0.00    -0.002 A 
BRANCH  22  23
ATOM     23  N   UNL     1      -3.661  -2.552  24.447  0.00  0.00    -0.179 NA
ATOM     24  C   UNL     1      -4.154  -2.185  23.897  0.00  0.00    +0.246 C 
ATOM     25  C   UNL     1      -4.846  -2.558  23.649  0.00  0.00    +0.097 C 
ATOM     26  O   UNL     1      -3.954  -1.443  23.594  0.00  0.00    -0.273 OA
ENDBRANCH  22  23
ENDBRANCH  18  19
ENDBRANCH  17  18
TORSDOF 6
ENDMDL
MODEL 4
REMARK VINA RESULT:     -10.7      1.559      5.461
REMARK  Name = 
REMARK  6 active torsions:
REMARK  status: ('A' for Active; 'I' for Inactive)
REMARK    1  A    between atoms: O_2  and  C_3
REMARK    2  A    between atoms: C_8  and  C_9
REMARK    3  A    between atoms: C_12  and  C_14
REMARK    4  A    between atoms: N_17  and  C_18
REMARK    5  A    between atoms: C_18  and  C_19
REMARK    6  A    between atoms: C_22  and  N_23
REMARK                            x       y       z     vdW  Elec       q    Type
REMARK                         _______ _______ _______ _____ _____    ______ ____
ROOT
ATOM     14  C   UNL     1      -0.808   0.967  24.979  0.00  0.00    +0.096 C 
ATOM     15  C   UNL     1      -0.226   1.210  24.446  0.00  0.00    +0.028 C 
ATOM     16  C   UNL     1      -0.197   2.035  24.458  0.00  0.00    +0.073 C 
ATOM     17  N   UNL     1      -0.760   2.301  24.999  0.00  0.00    -0.268 NA
ATOM     29  C   UNL     1      -1.137   1.642  25.321  0.00  0.00    +0.082 C 
ENDROOT
BRANCH  14  12
ATOM      9  C   UNL     1      -1.651  -0.990  25.107  0.00  0.00    +0.252 A 
ATOM     10  N   UNL     1      -1.053  -1.036  25.673  0.00  0.00    -0.107 NA
ATOM     11  N   UNL     1      -0.664  -0.309  25.695  0.00  0.00    -0.111 NA
ATOM     12  C   UNL     1      -1.022   0.187  25.141  0.00  0.00    +0.227 A 
ATOM     13  O   UNL     1      -1.632  -0.234  24.778  0.00  0.00    -0.419 OA
BRANCH   9   8
ATOM      3  C   UNL     1      -2.970  -1.538  25.118  0.00  0.00    +0.143 A 
ATOM      4  C   UNL     1      -3.494  -2.141  24.916  0.00  0.00    +0.037 A 
ATOM      5  C   UNL     1      -3.225  -2.801  24.500  0.00  0.00    +0.003 A 
ATOM      6  C   UNL     1      -2.429  -2.857  24.287  0.00  0.00    +0.000 A 
ATOM      7  C   UNL     1      -1.904  -2.253  24.489  0.00  0.00    +0.008 A 
ATOM      8  C   UNL     1      -2.175  -1.594  24.905  0.00  0.00    +0.089 A 
BRANCH   3   2
ATOM      1  C   UNL     1      -4.049  -0.773  25.660  0.00  0.00    +0.252 C 
ATOM      2  O   UNL     1      -3.241  -0.878  25.533  0.00  0.00    -0.471 OA
ENDBRANCH   3   2
ENDBRANCH   9   8
ENDBRANCH  14  12
BRANCH  17  18
ATOM     18  C   UNL     1      -0.917   3.090  25.186  0.00  0.00    +0.099 C 
BRANCH  18  19
ATOM     19  C   UNL     1      -1.697   3.350  25.250  0.00  0.00    -0.006 A 
ATOM     20  C   UNL     1      -2.016   3.519  25.992  0.00  0.00    -0.002 A 
ATOM     21  C   UNL     1      -2.796   3.780  26.056  0.00  0.00    +0.016 A 
ATOM     22  C   UNL     1      -3.257   3.872  25.378  0.00  0.00    +0.073 A 
ATOM     27  C   UNL     1      -2.939   3.703  24.637  0.00  0.00    +0.016 A 
ATOM     28  C   UNL     1      -2.158   3.442  24.572  0.00  0.00    -0.002 A 
BRANCH  22  23
ATOM     23  N   UNL     1      -4.037   4.132  25.443  0.00  0.00    -0.179 NA
ATOM     24  C   UNL     1      -4.652   3.585  25.497  0.00  0.00    +0.246 C 
ATOM     25  C   UNL     1      -5.432   3.846  25.561  0.00  0.00    +0.097 C 
ATOM     26  O   UNL     1      -4.487   2.777  25.487  0.00  0.00    -0.273 OA
ENDBRANCH  22  23
ENDBRANCH  18  19
ENDBRANCH  17  18
TORSDOF 6
ENDMDL
MODEL 5
REMARK VINA RESULT:      -9.1     15.564     18.302
REMARK  Name = 
REMARK  6 active torsions:
REMARK  status: ('A' for Active; 'I' for Inactive)
REMARK    1  A    between atoms: O_2  and  C_3
REMARK    2  A    between atoms: C_8  and  C_9
REMARK    3  A    between atoms: C_12  and  C_14
REMARK    4  A    between atoms: N_17  and  C_18
REMARK    5  A    between atoms: C_18  and  C_19
REMARK    6  A    between atoms: C_22  and  N_23
REMARK                            x       y       z     vdW  Elec       q    Type
REMARK                         _______ _______ _______ _____ _____    ______ ____
ROOT
ATOM     14  C   UNL     1      12.500   7.979  18.744  0.00  0.00    +0.096 C 
ATOM     15  C   UNL     1      12.467   7.570  18.028  0.00  0.00    +0.028 C 
ATOM     16  C   UNL     1      13.226   7.561  17.704  0.00  0.00    +0.073 C 
ATOM     17  N   UNL     1      13.728   7.965  18.219  0.00  0.00    -0.268 NA
ATOM     29  C   UNL     1      13.280   8.223  18.862  0.00  0.00    +0.082 C 
ENDROOT
BRANCH  14  12
ATOM      9  C   UNL     1      11.137   8.274  20.359  0.00  0.00    +0.252 A 
ATOM     10  N   UNL     1      10.643   8.393  19.710  0.00  0.00    -0.107 NA
ATOM     11  N   UNL     1      11.093   8.298  19.025  0.00  0.00    -0.111 NA
ATOM     12  C   UNL     1      11.866   8.118  19.252  0.00  0.00    +0.227 A 
ATOM     13  O   UNL     1      11.893   8.104  20.077  0.00  0.00    -0.419 OA
BRANCH   9   8
ATOM      3  C   UNL     1      10.760   7.625  21.575  0.00  0.00    +0.143 A 
ATOM      4  C   UNL     1      10.537   7.668  22.368  0.00  0.00    +0.037 A 
ATOM      5  C   UNL     1      10.468   8.402  22.739  0.00  0.00    +0.003 A 
ATOM      6  C   UNL     1      10.623   9.094  22.316  0.00  0.00    +0.000 A 
ATOM      7  C   UNL     1      10.846   9.051  21.522  0.00  0.00    +0.008 A 
ATOM      8  C   UNL     1      10.914   8.316  21.153  0.00  0.00    +0.089 A 
BRANCH   3   2
ATOM      1  C   UNL     1      10.806   6.199  21.653  0.00  0.00    +0.252 C 
ATOM      2  O   UNL     1      10.828   6.891  21.205  0.00  0.00    -0.471 OA
ENDBRANCH   3   2
ENDBRANCH   9   8
ENDBRANCH  14  12
BRANCH  17  18
ATOM     18  C   UNL     1      14.537   8.089  18.111  0.00  0.00    +0.099 C 
BRANCH  18  19
ATOM     19  C   UNL     1      15.077   7.794  18.660  0.00  0.00    -0.006 A 
ATOM     20  C   UNL     1      15.339   7.013  18.604  0.00  0.00    -0.002 A 
ATOM     21  C   UNL     1      15.878   6.719  19.153  0.00  0.00    +0.016 A 
ATOM     22  C   UNL     1      16.156   7.204  19.760  0.00  0.00    +0.073 A 
ATOM     27  C   UNL     1      15.894   7.984  19.817  0.00  0.00    +0.016 A 
ATOM     28  C   UNL     1      15.354   8.280  19.267  0.00  0.00    -0.002 A 
BRANCH  22  23
ATOM     23  N   UNL     1      16.696   6.909  20.310  0.00  0.00    -0.179 NA
ATOM     24  C   UNL     1      16.432   6.635  21.042  0.00  0.00    +0.246 C 
ATOM     25  C   UNL     1      16.971   6.341  21.591  0.00  0.00    +0.097 C 
ATOM     26  O   UNL     1      15.627   6.656  21.224  0.00  0.00    -0.273 OA
ENDBRANCH  22  23
ENDBRANCH  18  19
ENDBRANCH  17  18
TORSDOF 6
ENDMDL
