MODEL 1
REMARK VINA RESULT:      -8.8      0.000      0.000
REMARK  Name = 
REMARK  7 active torsions:
REMARK  status: ('A' for Active; 'I' for Inactive)
REMARK    1  A    between atoms: O_2  and  C_3
REMARK    2  A    between atoms: C_6  and  O_7
REMARK    3  A    between atoms: C_9  and  S_11
REMARK    4  A    between atoms: S_11  and  N_14
REMARK    5  A    between atoms: N_14  and  C_15
REMARK    6  A    between atoms: C_19  and  N_23
REMARK    7  A    between atoms: C_26  and  C_30
REMARK                            x       y       z     vdW  Elec       q    Type
REMARK                         _______ _______ _______ _____ _____    ______ ____
ROOT
ATOM     15  C   UNL     1      -2.040   1.526  23.907  0.00  0.00    +0.157 C 
ATOM     16  C   UNL     1      -1.665   2.260  23.890  0.00  0.00    +0.164 C 
ATOM     17  O   UNL     1      -0.851   2.130  23.903  0.00  0.00    -0.350 OA
ATOM     18  C   UNL     1      -0.722   1.316  23.928  0.00  0.00    +0.166 C 
ATOM     19  C   UNL     1      -0.141   0.732  23.951  0.00  0.00    +0.154 C 
ATOM     20  C   UNL     1      -0.516  -0.002  23.967  0.00  0.00    +0.166 C 
ATOM     21  O   UNL     1      -1.330   0.128  23.954  0.00  0.00    -0.350 OA
ATOM     22  C   UNL     1      -1.458   0.943  23.930  0.00  0.00    +0.164 C 
ENDROOT
BRANCH  19  23
ATOM     23  N   UNL     1       0.675   0.860  23.957  0.00  0.00    -0.200 NA
ATOM     24  C   UNL     1       1.153   0.500  23.389  0.00  0.00    +0.237 A 
ATOM     25  N   UNL     1       1.968   0.628  23.395  0.00  0.00    -0.209 NA
ATOM     26  C   UNL     1       2.446   0.268  22.827  0.00  0.00    +0.120 A 
ATOM     27  C   UNL     1       2.110  -0.220  22.253  0.00  0.00    +0.043 A 
ATOM     28  C   UNL     1       1.294  -0.348  22.247  0.00  0.00    +0.104 A 
ATOM     29  N   UNL     1       0.817   0.012  22.815  0.00  0.00    -0.211 NA
BRANCH  26  30
ATOM     30  C   UNL     1       3.261   0.396  22.832  0.00  0.00    +0.163 A 
ATOM     31  C   UNL     1       3.647   1.078  22.573  0.00  0.00    +0.042 A 
ATOM     32  C   UNL     1       4.457   0.968  22.679  0.00  0.00    +0.044 A 
ATOM     33  C   UNL     1       4.573   0.219  23.003  0.00  0.00    +0.180 A 
ATOM     34  O   UNL     1       3.833  -0.135  23.098  0.00  0.00    -0.449 OA
ENDBRANCH  26  30
ENDBRANCH  19  23
BRANCH  15  14
ATOM     14  N   UNL     1      -2.855   1.398  23.901  0.00  0.00    -0.074 NA
BRANCH  14  11
ATOM     11  S   UNL     1      -3.354   1.894  24.333  0.00  0.00    +0.080 S 
ATOM     12  O   UNL     1      -3.492   2.346  23.656  0.00  0.00    -0.151 OA
ATOM     13  O   UNL     1      -3.217   1.442  25.009  0.00  0.00    -0.151 OA
BRANCH  11   9
ATOM      3  C   UNL     1      -4.069   3.602  25.487  0.00  0.00    +0.140 A 
ATOM      4  C   UNL     1      -4.850   3.379  25.630  0.00  0.00    +0.040 A 
ATOM      5  C   UNL     1      -5.132   2.660  25.341  0.00  0.00    +0.041 A 
ATOM      6  C   UNL     1      -4.634   2.165  24.908  0.00  0.00    +0.157 A 
ATOM      9  C   UNL     1      -3.853   2.388  24.765  0.00  0.00    +0.160 A 
ATOM     10  C   UNL     1      -3.570   3.108  25.055  0.00  0.00    +0.060 A 
BRANCH   3   2
ATOM      1  C   UNL     1      -3.332   4.338  26.466  0.00  0.00    +0.252 C 
ATOM      2  O   UNL     1      -3.786   4.322  25.777  0.00  0.00    -0.471 OA
ENDBRANCH   3   2
BRANCH   6   7
ATOM      7  O   UNL     1      -4.917   1.446  24.618  0.00  0.00    -0.470 OA
ATOM      8  C   UNL     1      -5.687   1.205  24.793  0.00  0.00    +0.253 C 
ENDBRANCH   6   7
ENDBRANCH  11   9
ENDBRANCH  14  11
ENDBRANCH  15  14
TORSDOF 7
ENDMDL
MODEL 2
REMARK VINA RESULT:      -7.6      1.544      2.555
REMARK  Name = 
REMARK  7 active torsions:
REMARK  status: ('A' for Active; 'I' for Inactive)
REMARK    1  A    between atoms: O_2  and  C_3
REMARK    2  A    between atoms: C_6  and  O_7
REMARK    3  A    between atoms: C_9  and  S_11
REMARK    4  A    between atoms: S_11  and  N_14
REMARK    5  A    between atoms: N_14  and  C_15
REMARK    6  A    between atoms: C_19  and  N_23
REMARK    7  A    between atoms: C_26  and  C_30
REMARK                            x       y       z     vdW  Elec       q    Type
REMARK                         _______ _______ _______ _____ _____    ______ ____
ROOT
ATOM     15  C   UNL     1      -1.472   1.256  24.843  0.00  0.00    +0.157 C 
ATOM     16  C   UNL     1      -1.065   0.841  25.428  0.00  0.00    +0.164 C 
ATOM     17  O   UNL     1      -0.260   0.879  25.253  0.00  0.00    -0.350 OA
ATOM     18  C   UNL     1      -0.169   1.317  24.560  0.00  0.00    +0.166 C 
ATOM     19  C   UNL     1       0.383   1.611  24.023  0.00  0.00    +0.154 C 
ATOM     20  C   UNL     1      -0.024   2.026  23.438  0.00  0.00    +0.166 C 
ATOM     21  O   UNL     1      -0.829   1.988  23.613  0.00  0.00    -0.350 OA
ATOM     22  C   UNL     1      -0.919   1.550  24.307  0.00  0.00    +0.164 C 
ENDROOT
BRANCH  19  23
ATOM     23  N   UNL     1       1.201   1.508  24.064  0.00  0.00    -0.200 NA
ATOM     24  C   UNL     1       1.583   1.014  23.525  0.00  0.00    +0.237 A 
ATOM     25  N   UNL     1       2.400   0.912  23.565  0.00  0.00    -0.209 NA
ATOM     26  C   UNL     1       2.782   0.418  23.026  0.00  0.00    +0.120 A 
ATOM     27  C   UNL     1       2.346   0.027  22.445  0.00  0.00    +0.043 A 
ATOM     28  C   UNL     1       1.528   0.129  22.404  0.00  0.00    +0.104 A 
ATOM     29  N   UNL     1       1.147   0.623  22.944  0.00  0.00    -0.211 NA
BRANCH  26  30
ATOM     30  C   UNL     1       3.599   0.315  23.067  0.00  0.00    +0.163 A 
ATOM     31  C   UNL     1       4.169   0.852  22.807  0.00  0.00    +0.042 A 
ATOM     32  C   UNL     1       4.912   0.526  22.954  0.00  0.00    +0.044 A 
ATOM     33  C   UNL     1       4.802  -0.212  23.305  0.00  0.00    +0.180 A 
ATOM     34  O   UNL     1       3.990  -0.342  23.375  0.00  0.00    -0.449 OA
ENDBRANCH  26  30
ENDBRANCH  19  23
BRANCH  15  14
ATOM     14  N   UNL     1      -2.290   1.359  24.802  0.00  0.00    -0.074 NA
BRANCH  14  11
ATOM     11  S   UNL     1      -2.784   0.704  24.713  0.00  0.00    +0.080 S 
ATOM     12  O   UNL     1      -2.697   0.528  25.514  0.00  0.00    -0.151 OA
ATOM     13  O   UNL     1      -2.872   0.880  23.911  0.00  0.00    -0.151 OA
BRANCH  11   9
ATOM      3  C   UNL     1      -3.450  -1.345  24.365  0.00  0.00    +0.140 A 
ATOM      4  C   UNL     1      -4.267  -1.259  24.443  0.00  0.00    +0.040 A 
ATOM      5  C   UNL     1      -4.589  -0.519  24.611  0.00  0.00    +0.041 A 
ATOM      6  C   UNL     1      -4.095   0.136  24.701  0.00  0.00    +0.157 A 
ATOM      9  C   UNL     1      -3.279   0.050  24.623  0.00  0.00    +0.160 A 
ATOM     10  C   UNL     1      -2.956  -0.691  24.455  0.00  0.00    +0.060 A 
BRANCH   3   2
ATOM      1  C   UNL     1      -3.470  -2.766  24.513  0.00  0.00    +0.252 C 
ATOM      2  O   UNL     1      -3.127  -2.086  24.196  0.00  0.00    -0.471 OA
ENDBRANCH   3   2
BRANCH   6   7
ATOM      7  O   UNL     1      -4.418   0.877  24.869  0.00  0.00    -0.470 OA
ATOM      8  C   UNL     1      -5.228   0.951  25.007  0.00  0.00    +0.253 C 
ENDBRANCH   6   7
ENDBRANCH  11   9
ENDBRANCH  14  11
ENDBRANCH  15  14
TORSDOF 7
ENDMDL
MODEL 3
REMARK VINA RESULT:      -7.4      1.294      2.141
REMARK  Name = 
REMARK  7 active torsions:
REMARK  status: ('A' for Active; 'I' for Inactive)
REMARK    1  A    between atoms: O_2  and  C_3
REMARK    2  A    between atoms: C_6  and  O_7
REMARK    3  A    between atoms: C_9  and  S_11
REMARK    4  A    between atoms: S_11  and  N_14
REMARK    5  A    between atoms: N_14  and  C_15
REMARK    6  A    between atoms: C_19  and  N_23
REMARK    7  A    between atoms: C_26  and  C_30
REMARK                            x       y       z     vdW  Elec       q    Type
REMARK                         _______ _______ _______ _____ _____    ______ ____
ROOT
ATOM     15  C   UNL     1      -2.294   3.272  24.899  0.00  0.00    +0.157 C 
ATOM     16  C   UNL     1      -2.200   3.456  24.101  0.00  0.00    +0.164 C 
ATOM     17  O   UNL     1      -1.469   3.163  23.857  0.00  0.00    -0.350 OA
ATOM     18  C   UNL     1      -1.111   2.798  24.503  0.00  0.00    +0.166 C 
ATOM     19  C   UNL     1      -0.438   2.392  24.753  0.00  0.00    +0.154 C 
ATOM     20  C   UNL     1      -0.532   2.208  25.552  0.00  0.00    +0.166 C 
ATOM     21  O   UNL     1      -1.263   2.501  25.796  0.00  0.00    -0.350 OA
ATOM     22  C   UNL     1      -1.621   2.866  25.148  0.00  0.00    +0.164 C 
ENDROOT
BRANCH  19  23
ATOM     23  N   UNL     1       0.215   2.202  24.285  0.00  0.00    -0.200 NA
ATOM     24  C   UNL     1       0.335   1.424  24.040  0.00  0.00    +0.237 A 
ATOM     25  N   UNL     1       0.988   1.234  23.573  0.00  0.00    -0.209 NA
ATOM     26  C   UNL     1       1.108   0.456  23.327  0.00  0.00    +0.120 A 
ATOM     27  C   UNL     1       0.575  -0.134  23.550  0.00  0.00    +0.043 A 
ATOM     28  C   UNL     1      -0.078   0.056  24.017  0.00  0.00    +0.104 A 
ATOM     29  N   UNL     1      -0.197   0.835  24.262  0.00  0.00    -0.211 NA
BRANCH  26  30
ATOM     30  C   UNL     1       1.760   0.266  22.860  0.00  0.00    +0.163 A 
ATOM     31  C   UNL     1       1.743  -0.157  22.151  0.00  0.00    +0.042 A 
ATOM     32  C   UNL     1       2.516  -0.218  21.872  0.00  0.00    +0.044 A 
ATOM     33  C   UNL     1       3.012   0.166  22.408  0.00  0.00    +0.180 A 
ATOM     34  O   UNL     1       2.544   0.465  23.018  0.00  0.00    -0.449 OA
ENDBRANCH  26  30
ENDBRANCH  19  23
BRANCH  15  14
ATOM     14  N   UNL     1      -2.947   3.461  25.367  0.00  0.00    -0.074 NA
BRANCH  14  11
ATOM     11  S   UNL     1      -3.656   3.049  25.273  0.00  0.00    +0.080 S 
ATOM     12  O   UNL     1      -3.715   3.326  24.499  0.00  0.00    -0.151 OA
ATOM     13  O   UNL     1      -3.597   2.772  26.048  0.00  0.00    -0.151 OA
BRANCH  11   9
ATOM      3  C   UNL     1      -5.061   1.438  24.837  0.00  0.00    +0.140 A 
ATOM      4  C   UNL     1      -5.780   1.810  24.995  0.00  0.00    +0.040 A 
ATOM      5  C   UNL     1      -5.791   2.596  25.246  0.00  0.00    +0.041 A 
ATOM      6  C   UNL     1      -5.083   3.009  25.339  0.00  0.00    +0.157 A 
ATOM      9  C   UNL     1      -4.364   2.636  25.181  0.00  0.00    +0.160 A 
ATOM     10  C   UNL     1      -4.353   1.850  24.929  0.00  0.00    +0.060 A 
BRANCH   3   2
ATOM      1  C   UNL     1      -4.592   0.097  24.988  0.00  0.00    +0.252 C 
ATOM      2  O   UNL     1      -5.051   0.652  24.586  0.00  0.00    -0.471 OA
ENDBRANCH   3   2
BRANCH   6   7
ATOM      7  O   UNL     1      -5.093   3.795  25.590  0.00  0.00    -0.470 OA
ATOM      8  C   UNL     1      -5.813   4.183  25.699  0.00  0.00    +0.253 C 
ENDBRANCH   6   7
ENDBRANCH  11   9
ENDBRANCH  14  11
ENDBRANCH  15  14
TORSDOF 7
ENDMDL
MODEL 4
REMARK VINA RESULT:      -7.2      2.882      4.762
REMARK  Name = 
REMARK  7 active torsions:
REMARK  status: ('A' for Active; 'I' for Inactive)
REMARK    1  A    between atoms: O_2  and  C_3
REMARK    2  A    between atoms: C_6  and  O_7
REMARK    3  A    between atoms: C_9  and  S_11
REMARK    4  A    between atoms: S_11  and  N_14
REMARK    5  A    between atoms: N_14  and  C_15
REMARK    6  A    between atoms: C_19  and  N_23
REMARK    7  A    between atoms: C_26  and  C_30
REMARK                            x       y       z     vdW  Elec       q    Type
REMARK                         _______ _______ _______ _____ _____    ______ ____
ROOT
ATOM     15  C   UNL     1      -0.663   1.998  24.570  0.00  0.00    +0.157 C 
ATOM     16  C   UNL     1      -0.930   1.884  23.799  0.00  0.00    +0.164 C 
ATOM     17  O   UNL     1      -1.190   1.105  23.731  0.00  0.00    -0.350 OA
ATOM     18  C   UNL     1      -1.083   0.736  24.461  0.00  0.00    +0.166 C 
ATOM     19  C   UNL     1      -1.178   0.026  24.871  0.00  0.00    +0.154 C 
ATOM     20  C   UNL     1      -0.910   0.140  25.643  0.00  0.00    +0.166 C 
ATOM     21  O   UNL     1      -0.650   0.919  25.710  0.00  0.00    -0.350 OA
ATOM     22  C   UNL     1      -0.757   1.288  24.980  0.00  0.00    +0.164 C 
ENDROOT
BRANCH  19  23
ATOM     23  N   UNL     1      -1.486  -0.674  24.563  0.00  0.00    -0.200 NA
ATOM     24  C   UNL     1      -2.236  -0.931  24.791  0.00  0.00    +0.237 A 
ATOM     25  N   UNL     1      -2.544  -1.631  24.483  0.00  0.00    -0.209 NA
ATOM     26  C   UNL     1      -3.295  -1.888  24.711  0.00  0.00    +0.120 A 
ATOM     27  C   UNL     1      -3.737  -1.444  25.247  0.00  0.00    +0.043 A 
ATOM     28  C   UNL     1      -3.428  -0.743  25.556  0.00  0.00    +0.104 A 
ATOM     29  N   UNL     1      -2.678  -0.487  25.327  0.00  0.00    -0.211 NA
BRANCH  26  30
ATOM     30  C   UNL     1      -3.603  -2.588  24.403  0.00  0.00    +0.163 A 
ATOM     31  C   UNL     1      -4.182  -2.646  23.818  0.00  0.00    +0.042 A 
ATOM     32  C   UNL     1      -4.323  -3.447  23.679  0.00  0.00    +0.044 A 
ATOM     33  C   UNL     1      -3.832  -3.883  24.177  0.00  0.00    +0.180 A 
ATOM     34  O   UNL     1      -3.387  -3.352  24.624  0.00  0.00    -0.449 OA
ENDBRANCH  26  30
ENDBRANCH  19  23
BRANCH  15  14
ATOM     14  N   UNL     1      -0.354   2.698  24.879  0.00  0.00    -0.074 NA
BRANCH  14  11
ATOM     11  S   UNL     1      -0.859   3.323  25.068  0.00  0.00    +0.080 S 
ATOM     12  O   UNL     1      -1.104   3.365  24.282  0.00  0.00    -0.151 OA
ATOM     13  O   UNL     1      -0.614   3.283  25.855  0.00  0.00    -0.151 OA
BRANCH  11   9
ATOM      3  C   UNL     1      -2.581   4.423  25.834  0.00  0.00    +0.140 A 
ATOM      4  C   UNL     1      -2.372   5.197  25.639  0.00  0.00    +0.040 A 
ATOM      5  C   UNL     1      -1.658   5.346  25.254  0.00  0.00    +0.041 A 
ATOM      6  C   UNL     1      -1.153   4.722  25.063  0.00  0.00    +0.157 A 
ATOM      9  C   UNL     1      -1.363   3.948  25.258  0.00  0.00    +0.160 A 
ATOM     10  C   UNL     1      -2.077   3.799  25.644  0.00  0.00    +0.060 A 
BRANCH   3   2
ATOM      1  C   UNL     1      -3.928   3.948  25.803  0.00  0.00    +0.252 C 
ATOM      2  O   UNL     1      -3.295   4.274  26.220  0.00  0.00    -0.471 OA
ENDBRANCH   3   2
BRANCH   6   7
ATOM      7  O   UNL     1      -0.439   4.871  24.678  0.00  0.00    -0.470 OA
ATOM      8  C   UNL     1      -0.246   5.641  24.452  0.00  0.00    +0.253 C 
ENDBRANCH   6   7
ENDBRANCH  11   9
ENDBRANCH  14  11
ENDBRANCH  15  14
TORSDOF 7
ENDMDL
MODEL 5
REMARK VINA RESULT:      -7.1      3.419      5.324
REMARK  Name = 
REMARK  7 active torsions:
REMARK  status: ('A' for Active; 'I' for Inactive)
REMARK    1  A    between atoms: O_2  and  C_3
REMARK    2  A    between atoms: C_6  and  O_7
REMARK    3  A    between atoms: C_9  and  S_11
REMARK    4  A    between atoms: S_11  and  N_14
REMARK    5  A    between atoms: N_14  and  C_15
REMARK    6  A    between atoms: C_19  and  N_23
REMARK    7  A    between atoms: C_26  and  C_30
REMARK                            x       y       z     vdW  Elec       q    Type
REMARK                         _______ _______ _______ _____ _____    ______ ____
ROOT
ATOM     15  C   UNL     1      -4.099   0.280  24.137  0.00  0.00    +0.157 C 
ATOM     16  C   UNL     1      -3.597   0.451  23.505  0.00  0.00    +0.164 C 
ATOM     17  O   UNL     1      -3.379   1.244  23.561  0.00  0.00    -0.350 OA
ATOM     18  C   UNL     1      -3.746   1.564  24.226  0.00  0.00    +0.166 C 
ATOM     19  C   UNL     1      -3.838   2.251  24.673  0.00  0.00    +0.154 C 
ATOM     20  C   UNL     1      -4.340   2.080  25.305  0.00  0.00    +0.166 C 
ATOM     21  O   UNL     1      -4.558   1.287  25.249  0.00  0.00    -0.350 OA
ATOM     22  C   UNL     1      -4.191   0.967  24.582  0.00  0.00    +0.164 C 
ENDROOT
BRANCH  19  23
ATOM     23  N   UNL     1      -3.489   2.982  24.515  0.00  0.00    -0.200 NA
ATOM     24  C   UNL     1      -2.831   3.228  24.947  0.00  0.00    +0.237 A 
ATOM     25  N   UNL     1      -2.482   3.958  24.790  0.00  0.00    -0.209 NA
ATOM     26  C   UNL     1      -1.823   4.203  25.222  0.00  0.00    +0.120 A 
ATOM     27  C   UNL     1      -1.514   3.717  25.812  0.00  0.00    +0.043 A 
ATOM     28  C   UNL     1      -1.863   2.986  25.970  0.00  0.00    +0.104 A 
ATOM     29  N   UNL     1      -2.521   2.742  25.538  0.00  0.00    -0.211 NA
BRANCH  26  30
ATOM     30  C   UNL     1      -1.475   4.933  25.064  0.00  0.00    +0.163 A 
ATOM     31  C   UNL     1      -0.733   5.053  24.721  0.00  0.00    +0.042 A 
ATOM     32  C   UNL     1      -0.606   5.866  24.667  0.00  0.00    +0.044 A 
ATOM     33  C   UNL     1      -1.268   6.249  24.975  0.00  0.00    +0.180 A 
ATOM     34  O   UNL     1      -1.805   5.672  25.221  0.00  0.00    -0.449 OA
ENDBRANCH  26  30
ENDBRANCH  19  23
BRANCH  15  14
ATOM     14  N   UNL     1      -4.448  -0.451  24.295  0.00  0.00    -0.074 NA
BRANCH  14  11
ATOM     11  S   UNL     1      -3.978  -1.126  24.365  0.00  0.00    +0.080 S 
ATOM     12  O   UNL     1      -3.846  -1.120  23.551  0.00  0.00    -0.151 OA
ATOM     13  O   UNL     1      -4.110  -1.133  25.180  0.00  0.00    -0.151 OA
BRANCH  11   9
ATOM      3  C   UNL     1      -2.285  -2.420  24.837  0.00  0.00    +0.140 A 
ATOM      4  C   UNL     1      -2.570  -3.150  24.580  0.00  0.00    +0.040 A 
ATOM      5  C   UNL     1      -3.324  -3.205  24.252  0.00  0.00    +0.041 A 
ATOM      6  C   UNL     1      -3.794  -2.531  24.180  0.00  0.00    +0.157 A 
ATOM      9  C   UNL     1      -3.509  -1.801  24.437  0.00  0.00    +0.160 A 
ATOM     10  C   UNL     1      -2.754  -1.745  24.765  0.00  0.00    +0.060 A 
BRANCH   3   2
ATOM      1  C   UNL     1      -0.915  -2.027  24.730  0.00  0.00    +0.252 C 
ATOM      2  O   UNL     1      -1.530  -2.364  25.165  0.00  0.00    -0.471 OA
ENDBRANCH   3   2
BRANCH   6   7
ATOM      7  O   UNL     1      -4.549  -2.587  23.852  0.00  0.00    -0.470 OA
ATOM      8  C   UNL     1      -4.792  -3.289  23.493  0.00  0.00    +0.253 C 
ENDBRANCH   6   7
ENDBRANCH  11   9
ENDBRANCH  14  11
ENDBRANCH  15  14
TORSDOF 7
ENDMDL
MODEL 6
REMARK VINA RESULT:      -7.1     15.268     16.950
REMARK  Name = 
REMARK  7 active torsions:
REMARK  status: ('A' for Active; 'I' for Inactive)
REMARK    1  A    between atoms: O_2  and  C_3
REMARK    2  A    between atoms: C_6  and  O_7
REMARK    3  A    between atoms: C_9  and  S_11
REMARK    4  A    between atoms: S_11  and  N_14
REMARK    5  A    between atoms: N_14  and  C_15
REMARK    6  A    between atoms: C_19  and  N_23
REMARK    7  A    between atoms: C_26  and  C_30
REMARK                            x       y       z     vdW  Elec       q    Type
REMARK                         _______ _______ _______ _____ _____    ______ ____
ROOT
ATOM     15  C   UNL     1      -5.410  -9.721  12.525  0.00  0.00    +0.157 C 
ATOM     16  C   UNL     1      -6.151  -9.408  12.707  0.00  0.00    +0.164 C 
ATOM     17  O   UNL     1      -6.331  -9.617  13.484  0.00  0.00    -0.350 OA
ATOM     18  C   UNL     1      -5.703 -10.059  13.783  0.00  0.00    +0.166 C 
ATOM     19  C   UNL     1      -5.425 -10.462  14.447  0.00  0.00    +0.154 C 
ATOM     20  C   UNL     1      -4.684 -10.775  14.265  0.00  0.00    +0.166 C 
ATOM     21  O   UNL     1      -4.503 -10.566  13.488  0.00  0.00    -0.350 OA
ATOM     22  C   UNL     1      -5.133 -10.123  13.190  0.00  0.00    +0.164 C 
ENDROOT
BRANCH  19  23
ATOM     23  N   UNL     1      -5.820 -10.537  15.168  0.00  0.00    -0.200 NA
ATOM     24  C   UNL     1      -5.398 -10.495  15.876  0.00  0.00    +0.237 A 
ATOM     25  N   UNL     1      -5.792 -10.571  16.596  0.00  0.00    -0.209 NA
ATOM     26  C   UNL     1      -5.371 -10.528  17.304  0.00  0.00    +0.120 A 
ATOM     27  C   UNL     1      -4.555 -10.410  17.292  0.00  0.00    +0.043 A 
ATOM     28  C   UNL     1      -4.160 -10.334  16.571  0.00  0.00    +0.104 A 
ATOM     29  N   UNL     1      -4.582 -10.377  15.863  0.00  0.00    -0.211 NA
BRANCH  26  30
ATOM     30  C   UNL     1      -5.765 -10.604  18.024  0.00  0.00    +0.163 A 
ATOM     31  C   UNL     1      -5.411 -10.688  18.765  0.00  0.00    +0.042 A 
ATOM     32  C   UNL     1      -6.010 -10.745  19.329  0.00  0.00    +0.044 A 
ATOM     33  C   UNL     1      -6.734 -10.697  18.938  0.00  0.00    +0.180 A 
ATOM     34  O   UNL     1      -6.583 -10.610  18.132  0.00  0.00    -0.449 OA
ENDBRANCH  26  30
ENDBRANCH  19  23
BRANCH  15  14
ATOM     14  N   UNL     1      -5.015  -9.645  11.804  0.00  0.00    -0.074 NA
BRANCH  14  11
ATOM     11  S   UNL     1      -5.423  -9.389  11.135  0.00  0.00    +0.080 S 
ATOM     12  O   UNL     1      -5.570 -10.172  10.923  0.00  0.00    -0.151 OA
ATOM     13  O   UNL     1      -5.277  -8.605  11.346  0.00  0.00    -0.151 OA
BRANCH  11   9
ATOM      3  C   UNL     1      -7.056  -8.760   9.830  0.00  0.00    +0.140 A 
ATOM      4  C   UNL     1      -6.648  -8.615   9.128  0.00  0.00    +0.040 A 
ATOM      5  C   UNL     1      -5.832  -8.728   9.095  0.00  0.00    +0.041 A 
ATOM      6  C   UNL     1      -5.423  -8.986   9.764  0.00  0.00    +0.157 A 
ATOM      9  C   UNL     1      -5.831  -9.131  10.466  0.00  0.00    +0.160 A 
ATOM     10  C   UNL     1      -6.648  -9.018  10.499  0.00  0.00    +0.060 A 
BRANCH   3   2
ATOM      1  C   UNL     1      -8.239  -8.128   9.338  0.00  0.00    +0.252 C 
ATOM      2  O   UNL     1      -7.873  -8.648   9.864  0.00  0.00    -0.471 OA
ENDBRANCH   3   2
BRANCH   6   7
ATOM      7  O   UNL     1      -4.606  -9.098   9.730  0.00  0.00    -0.470 OA
ATOM      8  C   UNL     1      -4.194  -8.922   9.038  0.00  0.00    +0.253 C 
ENDBRANCH   6   7
ENDBRANCH  11   9
ENDBRANCH  14  11
ENDBRANCH  15  14
TORSDOF 7
ENDMDL
MODEL 7
REMARK VINA RESULT:      -7.1     15.060     16.896
REMARK  Name = 
REMARK  7 active torsions:
REMARK  status: ('A' for Active; 'I' for Inactive)
REMARK    1  A    between atoms: O_2  and  C_3
REMARK    2  A    between atoms: C_6  and  O_7
REMARK    3  A    between atoms: C_9  and  S_11
REMARK    4  A    between atoms: S_11  and  N_14
REMARK    5  A    between atoms: N_14  and  C_15
REMARK    6  A    between atoms: C_19  and  N_23
REMARK    7  A    between atoms: C_26  and  C_30
REMARK                            x       y       z     vdW  Elec       q    Type
REMARK                         _______ _______ _______ _____ _____    ______ ____
ROOT
ATOM     15  C   UNL     1      -6.088  -9.698  12.861  0.00  0.00    +0.157 C 
ATOM     16  C   UNL     1      -5.320  -9.801  13.144  0.00  0.00    +0.164 C 
ATOM     17  O   UNL     1      -5.370 -10.070  13.922  0.00  0.00    -0.350 OA
ATOM     18  C   UNL     1      -6.167 -10.133  14.121  0.00  0.00    +0.166 C 
ATOM     19  C   UNL     1      -6.692 -10.338  14.723  0.00  0.00    +0.154 C 
ATOM     20  C   UNL     1      -7.460 -10.235  14.441  0.00  0.00    +0.166 C 
ATOM     21  O   UNL     1      -7.410  -9.966  13.663  0.00  0.00    -0.350 OA
ATOM     22  C   UNL     1      -6.612  -9.903  13.465  0.00  0.00    +0.164 C 
ENDROOT
BRANCH  19  23
ATOM     23  N   UNL     1      -6.484 -10.600  15.478  0.00  0.00    -0.200 NA
ATOM     24  C   UNL     1      -6.792 -10.225  16.145  0.00  0.00    +0.237 A 
ATOM     25  N   UNL     1      -6.585 -10.487  16.899  0.00  0.00    -0.209 NA
ATOM     26  C   UNL     1      -6.893 -10.112  17.566  0.00  0.00    +0.120 A 
ATOM     27  C   UNL     1      -7.409  -9.475  17.479  0.00  0.00    +0.043 A 
ATOM     28  C   UNL     1      -7.617  -9.212  16.724  0.00  0.00    +0.104 A 
ATOM     29  N   UNL     1      -7.309  -9.588  16.058  0.00  0.00    -0.211 NA
BRANCH  26  30
ATOM     30  C   UNL     1      -6.686 -10.374  18.320  0.00  0.00    +0.163 A 
ATOM     31  C   UNL     1      -5.920 -10.528  18.586  0.00  0.00    +0.042 A 
ATOM     32  C   UNL     1      -5.968 -10.777  19.371  0.00  0.00    +0.044 A 
ATOM     33  C   UNL     1      -6.763 -10.777  19.589  0.00  0.00    +0.180 A 
ATOM     34  O   UNL     1      -7.206 -10.528  18.940  0.00  0.00    -0.449 OA
ENDBRANCH  26  30
ENDBRANCH  19  23
BRANCH  15  14
ATOM     14  N   UNL     1      -6.296  -9.436  12.107  0.00  0.00    -0.074 NA
BRANCH  14  11
ATOM     11  S   UNL     1      -5.717  -9.346  11.527  0.00  0.00    +0.080 S 
ATOM     12  O   UNL     1      -5.577  -8.575  11.784  0.00  0.00    -0.151 OA
ATOM     13  O   UNL     1      -5.856 -10.118  11.268  0.00  0.00    -0.151 OA
BRANCH  11   9
ATOM      3  C   UNL     1      -3.795  -9.456  10.497  0.00  0.00    +0.140 A 
ATOM      4  C   UNL     1      -3.978  -9.081   9.785  0.00  0.00    +0.040 A 
ATOM      5  C   UNL     1      -4.740  -8.795   9.654  0.00  0.00    +0.041 A 
ATOM      6  C   UNL     1      -5.320  -8.883  10.234  0.00  0.00    +0.157 A 
ATOM      9  C   UNL     1      -5.137  -9.258  10.946  0.00  0.00    +0.160 A 
ATOM     10  C   UNL     1      -4.375  -9.545  11.078  0.00  0.00    +0.060 A 
BRANCH   3   2
ATOM      1  C   UNL     1      -2.384  -9.239  10.552  0.00  0.00    +0.252 C 
ATOM      2  O   UNL     1      -3.032  -9.743  10.629  0.00  0.00    -0.471 OA
ENDBRANCH   3   2
BRANCH   6   7
ATOM      7  O   UNL     1      -6.082  -8.596  10.103  0.00  0.00    -0.470 OA
ATOM      8  C   UNL     1      -6.277  -8.264   9.373  0.00  0.00    +0.253 C 
ENDBRANCH   6   7
ENDBRANCH  11   9
ENDBRANCH  14  11
ENDBRANCH  15  14
TORSDOF 7
ENDMDL
MODEL 8
REMARK VINA RESULT:      -6.7     15.281     17.430
REMARK  Name = 
REMARK  7 active torsions:
REMARK  status: ('A' for Active; 'I' for Inactive)
REMARK    1  A    between atoms: O_2  and  C_3
REMARK    2  A    between atoms: C_6  and  O_7
REMARK    3  A    between atoms: C_9  and  S_11
REMARK    4  A    between atoms: S_11  and  N_14
REMARK    5  A    between atoms: N_14  and  C_15
REMARK    6  A    between atoms: C_19  and  N_23
REMARK    7  A    between atoms: C_26  and  C_30
REMARK                            x       y       z     vdW  Elec       q    Type
REMARK                         _______ _______ _______ _____ _____    ______ ____
ROOT
ATOM     15  C   UNL     1      -5.543 -10.006  12.713  0.00  0.00    +0.157 C 
ATOM     16  C   UNL     1      -6.106  -9.480  12.419  0.00  0.00    +0.164 C 
ATOM     17  O   UNL     1      -6.721  -9.432  12.967  0.00  0.00    -0.350 OA
ATOM     18  C   UNL     1      -6.539  -9.929  13.599  0.00  0.00    +0.166 C 
ATOM     19  C   UNL     1      -6.805 -10.207  14.329  0.00  0.00    +0.154 C 
ATOM     20  C   UNL     1      -6.242 -10.733  14.623  0.00  0.00    +0.166 C 
ATOM     21  O   UNL     1      -5.627 -10.780  14.075  0.00  0.00    -0.350 OA
ATOM     22  C   UNL     1      -5.810 -10.283  13.442  0.00  0.00    +0.164 C 
ENDROOT
BRANCH  19  23
ATOM     23  N   UNL     1      -7.512  -9.995  14.699  0.00  0.00    -0.200 NA
ATOM     24  C   UNL     1      -7.509  -9.759  15.490  0.00  0.00    +0.237 A 
ATOM     25  N   UNL     1      -8.214  -9.548  15.860  0.00  0.00    -0.209 NA
ATOM     26  C   UNL     1      -8.212  -9.312  16.650  0.00  0.00    +0.120 A 
ATOM     27  C   UNL     1      -7.502  -9.288  17.071  0.00  0.00    +0.043 A 
ATOM     28  C   UNL     1      -6.796  -9.499  16.700  0.00  0.00    +0.104 A 
ATOM     29  N   UNL     1      -6.799  -9.735  15.910  0.00  0.00    -0.211 NA
BRANCH  26  30
ATOM     30  C   UNL     1      -8.917  -9.101  17.021  0.00  0.00    +0.163 A 
ATOM     31  C   UNL     1      -9.238  -8.341  17.057  0.00  0.00    +0.042 A 
ATOM     32  C   UNL     1      -9.945  -8.382  17.479  0.00  0.00    +0.044 A 
ATOM     33  C   UNL     1     -10.062  -9.167  17.703  0.00  0.00    +0.180 A 
ATOM     34  O   UNL     1      -9.427  -9.611  17.420  0.00  0.00    -0.449 OA
ENDBRANCH  26  30
ENDBRANCH  19  23
BRANCH  15  14
ATOM     14  N   UNL     1      -4.837 -10.217  12.343  0.00  0.00    -0.074 NA
BRANCH  14  11
ATOM     11  S   UNL     1      -4.680  -9.960  11.575  0.00  0.00    +0.080 S 
ATOM     12  O   UNL     1      -4.542  -9.197  11.857  0.00  0.00    -0.151 OA
ATOM     13  O   UNL     1      -4.818 -10.723  11.291  0.00  0.00    -0.151 OA
BRANCH  11   9
ATOM      3  C   UNL     1      -4.991  -9.299   9.518  0.00  0.00    +0.140 A 
ATOM      4  C   UNL     1      -4.212  -9.191   9.269  0.00  0.00    +0.040 A 
ATOM      5  C   UNL     1      -3.589  -9.340   9.789  0.00  0.00    +0.041 A 
ATOM      6  C   UNL     1      -3.744  -9.596  10.558  0.00  0.00    +0.157 A 
ATOM      9  C   UNL     1      -4.524  -9.704  10.806  0.00  0.00    +0.160 A 
ATOM     10  C   UNL     1      -5.147  -9.555  10.286  0.00  0.00    +0.060 A 
BRANCH   3   2
ATOM      1  C   UNL     1      -5.576  -9.423   8.220  0.00  0.00    +0.252 C 
ATOM      2  O   UNL     1      -5.614  -9.151   8.998  0.00  0.00    -0.471 OA
ENDBRANCH   3   2
BRANCH   6   7
ATOM      7  O   UNL     1      -3.121  -9.744  11.078  0.00  0.00    -0.470 OA
ATOM      8  C   UNL     1      -2.342  -9.629  10.831  0.00  0.00    +0.253 C 
ENDBRANCH   6   7
ENDBRANCH  11   9
ENDBRANCH  14  11
ENDBRANCH  15  14
TORSDOF 7
ENDMDL
MODEL 9
REMARK VINA RESULT:      -6.6     14.704     15.930
REMARK  Name = 
REMARK  7 active torsions:
REMARK  status: ('A' for Active; 'I' for Inactive)
REMARK    1  A    between atoms: O_2  and  C_3
REMARK    2  A    between atoms: C_6  and  O_7
REMARK    3  A    between atoms: C_9  and  S_11
REMARK    4  A    between atoms: S_11  and  N_14
REMARK    5  A    between atoms: N_14  and  C_15
REMARK    6  A    between atoms: C_19  and  N_23
REMARK    7  A    between atoms: C_26  and  C_30
REMARK                            x       y       z     vdW  Elec       q    Type
REMARK                         _______ _______ _______ _____ _____    ______ ____
ROOT
ATOM     15  C   UNL     1      -7.159  -9.881  15.477  0.00  0.00    +0.157 C 
ATOM     16  C   UNL     1      -6.367  -9.840  15.705  0.00  0.00    +0.164 C 
ATOM     17  O   UNL     1      -5.903  -9.927  15.029  0.00  0.00    -0.350 OA
ATOM     18  C   UNL     1      -6.407 -10.021  14.383  0.00  0.00    +0.166 C 
ATOM     19  C   UNL     1      -6.433 -10.133  13.566  0.00  0.00    +0.154 C 
ATOM     20  C   UNL     1      -7.225 -10.173  13.339  0.00  0.00    +0.166 C 
ATOM     21  O   UNL     1      -7.689 -10.087  14.015  0.00  0.00    -0.350 OA
ATOM     22  C   UNL     1      -7.184  -9.992  14.661  0.00  0.00    +0.164 C 
ENDROOT
BRANCH  19  23
ATOM     23  N   UNL     1      -5.780 -10.194  13.065  0.00  0.00    -0.200 NA
ATOM     24  C   UNL     1      -5.735  -9.725  12.387  0.00  0.00    +0.237 A 
ATOM     25  N   UNL     1      -5.083  -9.786  11.886  0.00  0.00    -0.209 NA
ATOM     26  C   UNL     1      -5.038  -9.317  11.209  0.00  0.00    +0.120 A 
ATOM     27  C   UNL     1      -5.646  -8.788  11.032  0.00  0.00    +0.043 A 
ATOM     28  C   UNL     1      -6.298  -8.727  11.534  0.00  0.00    +0.104 A 
ATOM     29  N   UNL     1      -6.343  -9.196  12.211  0.00  0.00    -0.211 NA
BRANCH  26  30
ATOM     30  C   UNL     1      -4.386  -9.378  10.708  0.00  0.00    +0.163 A 
ATOM     31  C   UNL     1      -3.598  -9.252  10.919  0.00  0.00    +0.042 A 
ATOM     32  C   UNL     1      -3.132  -9.371  10.249  0.00  0.00    +0.044 A 
ATOM     33  C   UNL     1      -3.632  -9.570   9.624  0.00  0.00    +0.180 A 
ATOM     34  O   UNL     1      -4.406  -9.574   9.907  0.00  0.00    -0.449 OA
ENDBRANCH  26  30
ENDBRANCH  19  23
BRANCH  15  14
ATOM     14  N   UNL     1      -7.812  -9.820  15.979  0.00  0.00    -0.074 NA
BRANCH  14  11
ATOM     11  S   UNL     1      -7.733  -9.993  16.782  0.00  0.00    +0.080 S 
ATOM     12  O   UNL     1      -7.541  -9.205  16.934  0.00  0.00    -0.151 OA
ATOM     13  O   UNL     1      -7.925 -10.781  16.630  0.00  0.00    -0.151 OA
BRANCH  11   9
ATOM      3  C   UNL     1      -6.840 -10.557  18.692  0.00  0.00    +0.140 A 
ATOM      4  C   UNL     1      -7.497 -10.516  19.189  0.00  0.00    +0.040 A 
ATOM      5  C   UNL     1      -8.232 -10.301  18.884  0.00  0.00    +0.041 A 
ATOM      6  C   UNL     1      -8.311 -10.126  18.082  0.00  0.00    +0.157 A 
ATOM      9  C   UNL     1      -7.655 -10.167  17.584  0.00  0.00    +0.160 A 
ATOM     10  C   UNL     1      -6.919 -10.383  17.889  0.00  0.00    +0.060 A 
BRANCH   3   2
ATOM      1  C   UNL     1      -5.866 -10.493  19.735  0.00  0.00    +0.252 C 
ATOM      2  O   UNL     1      -6.104 -10.773  18.997  0.00  0.00    -0.471 OA
ENDBRANCH   3   2
BRANCH   6   7
ATOM      7  O   UNL     1      -9.047  -9.910  17.777  0.00  0.00    -0.470 OA
ATOM      8  C   UNL     1      -9.698  -9.845  18.279  0.00  0.00    +0.253 C 
ENDBRANCH   6   7
ENDBRANCH  11   9
ENDBRANCH  14  11
ENDBRANCH  15  14
TORSDOF 7
ENDMDL
MODEL 10
REMARK VINA RESULT:      -6.5     15.013     15.932
REMARK  Name = 
REMARK  7 active torsions:
REMARK  status: ('A' for Active; 'I' for Inactive)
REMARK    1  A    between atoms: O_2  and  C_3
REMARK    2  A    between atoms: C_6  and  O_7
REMARK    3  A    between atoms: C_9  and  S_11
REMARK    4  A    between atoms: S_11  and  N_14
REMARK    5  A    between atoms: N_14  and  C_15
REMARK    6  A    between atoms: C_19  and  N_23
REMARK    7  A    between atoms: C_26  and  C_30
REMARK                            x       y       z     vdW  Elec       q    Type
REMARK                         _______ _______ _______ _____ _____    ______ ____
ROOT
ATOM     15  C   UNL     1      -7.574 -10.045  15.241  0.00  0.00    +0.157 C 
ATOM     16  C   UNL     1      -8.108  -9.887  14.633  0.00  0.00    +0.164 C 
ATOM     17  O   UNL     1      -7.678  -9.778  13.938  0.00  0.00    -0.350 OA
ATOM     18  C   UNL     1      -6.878  -9.868  14.116  0.00  0.00    +0.166 C 
ATOM     19  C   UNL     1      -6.117  -9.856  13.798  0.00  0.00    +0.154 C 
ATOM     20  C   UNL     1      -5.583 -10.014  14.406  0.00  0.00    +0.166 C 
ATOM     21  O   UNL     1      -6.013 -10.123  15.101  0.00  0.00    -0.350 OA
ATOM     22  C   UNL     1      -6.814 -10.033  14.922  0.00  0.00    +0.164 C 
ENDROOT
BRANCH  19  23
ATOM     23  N   UNL     1      -5.924  -9.711  13.008  0.00  0.00    -0.200 NA
ATOM     24  C   UNL     1      -5.213  -9.991  12.699  0.00  0.00    +0.237 A 
ATOM     25  N   UNL     1      -5.020  -9.847  11.910  0.00  0.00    -0.209 NA
ATOM     26  C   UNL     1      -4.308 -10.127  11.601  0.00  0.00    +0.120 A 
ATOM     27  C   UNL     1      -3.789 -10.552  12.081  0.00  0.00    +0.043 A 
ATOM     28  C   UNL     1      -3.981 -10.696  12.871  0.00  0.00    +0.104 A 
ATOM     29  N   UNL     1      -4.693 -10.416  13.179  0.00  0.00    -0.211 NA
BRANCH  26  30
ATOM     30  C   UNL     1      -4.116  -9.983  10.813  0.00  0.00    +0.163 A 
ATOM     31  C   UNL     1      -3.605  -9.395  10.537  0.00  0.00    +0.042 A 
ATOM     32  C   UNL     1      -3.574  -9.450   9.715  0.00  0.00    +0.044 A 
ATOM     33  C   UNL     1      -4.063 -10.071   9.482  0.00  0.00    +0.180 A 
ATOM     34  O   UNL     1      -4.398 -10.400  10.160  0.00  0.00    -0.449 OA
ENDBRANCH  26  30
ENDBRANCH  19  23
BRANCH  15  14
ATOM     14  N   UNL     1      -7.766 -10.189  16.031  0.00  0.00    -0.074 NA
BRANCH  14  11
ATOM     11  S   UNL     1      -8.343  -9.733  16.405  0.00  0.00    +0.080 S 
ATOM     12  O   UNL     1      -8.934 -10.182  16.045  0.00  0.00    -0.151 OA
ATOM     13  O   UNL     1      -7.752  -9.283  16.766  0.00  0.00    -0.151 OA
BRANCH  11   9
ATOM      3  C   UNL     1      -9.723  -8.097  16.829  0.00  0.00    +0.140 A 
ATOM      4  C   UNL     1     -10.069  -8.362  17.530  0.00  0.00    +0.040 A 
ATOM      5  C   UNL     1      -9.839  -9.084  17.856  0.00  0.00    +0.041 A 
ATOM      6  C   UNL     1      -9.264  -9.541  17.481  0.00  0.00    +0.157 A 
ATOM      9  C   UNL     1      -8.918  -9.276  16.780  0.00  0.00    +0.160 A 
ATOM     10  C   UNL     1      -9.148  -8.554  16.454  0.00  0.00    +0.060 A 
BRANCH   3   2
ATOM      1  C   UNL     1     -10.719  -7.092  16.625  0.00  0.00    +0.252 C 
ATOM      2  O   UNL     1      -9.953  -7.374  16.503  0.00  0.00    -0.471 OA
ENDBRANCH   3   2
BRANCH   6   7
ATOM      7  O   UNL     1      -9.034 -10.264  17.807  0.00  0.00    -0.470 OA
ATOM      8  C   UNL     1      -9.383 -10.530  18.505  0.00  0.00    +0.253 C 
ENDBRANCH   6   7
ENDBRANCH  11   9
ENDBRANCH  14  11
ENDBRANCH  15  14
TORSDOF 7
ENDMDL
