MODEL 1
REMARK VINA RESULT:     -11.4      0.000      0.000
REMARK  Name = 
REMARK  7 active torsions:
REMARK  status: ('A' for Active; 'I' for Inactive)
REMARK    1  A    between atoms: C_2  and  C_4
REMARK    2  A    between atoms: C_4  and  C_5
REMARK    3  A    between atoms: C_10  and  C_11
REMARK    4  A    between atoms: C_11  and  C_12
REMARK    5  A    between atoms: C_12  and  N_13
REMARK    6  A    between atoms: N_16  and  C_19
REMARK    7  A    between atoms: C_26  and  C_28
REMARK                            x       y       z     vdW  Elec       q    Type
REMARK                         _______ _______ _______ _____ _____    ______ ____
ROOT
ATOM      5  C   UNL     1      -4.110   3.576  25.286  0.00  0.00    +0.015 C 
ATOM      6  C   UNL     1      -3.896   4.371  25.355  0.00  0.00    +0.022 C 
ATOM      7  C   UNL     1      -3.100   4.585  25.369  0.00  0.00    +0.094 C 
ATOM      8  N   UNL     1      -2.516   4.004  25.313  0.00  0.00    -0.276 N 
ATOM      9  C   UNL     1      -2.728   3.210  25.244  0.00  0.00    +0.094 C 
ATOM     10  C   UNL     1      -3.526   2.996  25.230  0.00  0.00    +0.022 C 
ATOM     26  C   UNL     1      -1.719   4.218  25.327  0.00  0.00    +0.255 C 
ATOM     27  O   UNL     1      -1.507   5.013  25.397  0.00  0.00    -0.269 OA
ENDROOT
BRANCH  26  28
ATOM     28  C   UNL     1      -1.135   3.638  25.272  0.00  0.00    +0.083 A 
ATOM     29  C   UNL     1      -0.858   3.168  25.891  0.00  0.00    +0.012 A 
ATOM     30  C   UNL     1      -0.278   2.666  25.589  0.00  0.00    +0.008 A 
ATOM     31  C   UNL     1      -0.196   2.826  24.784  0.00  0.00    +0.036 A 
ATOM     32  S   UNL     1      -0.726   3.426  24.588  0.00  0.00    -0.082 S 
ENDBRANCH  26  28
BRANCH   5   4
ATOM      4  C   UNL     1      -4.906   3.363  25.272  0.00  0.00    +0.114 C 
BRANCH   4   2
ATOM      1  O   UNL     1      -5.600   3.419  26.520  0.00  0.00    -0.246 OA
ATOM      2  C   UNL     1      -5.442   3.737  25.775  0.00  0.00    +0.365 C 
ATOM      3  O   UNL     1      -5.821   4.429  25.533  0.00  0.00    -0.246 OA
ENDBRANCH   4   2
ENDBRANCH   5   4
BRANCH  10  11
ATOM     11  C   UNL     1      -3.738   2.202  25.161  0.00  0.00    +0.019 C 
BRANCH  11  12
ATOM     12  C   UNL     1      -3.605   1.801  24.452  0.00  0.00    +0.072 C 
BRANCH  12  13
ATOM     13  N   UNL     1      -3.631   0.976  24.435  0.00  0.00    -0.270 NA
ATOM     14  C   UNL     1      -4.291   0.577  24.726  0.00  0.00    +0.094 C 
ATOM     15  C   UNL     1      -4.316  -0.247  24.708  0.00  0.00    +0.108 C 
ATOM     16  N   UNL     1      -3.681  -0.673  24.399  0.00  0.00    -0.305 N 
ATOM     17  C   UNL     1      -3.020  -0.274  24.108  0.00  0.00    +0.108 C 
ATOM     18  C   UNL     1      -2.995   0.551  24.125  0.00  0.00    +0.094 C 
BRANCH  16  19
ATOM     19  C   UNL     1      -3.706  -1.496  24.381  0.00  0.00    +0.048 A 
ATOM     20  C   UNL     1      -3.277  -1.934  24.934  0.00  0.00    +0.017 A 
ATOM     21  C   UNL     1      -3.301  -2.759  24.916  0.00  0.00    +0.031 A 
ATOM     22  C   UNL     1      -3.756  -3.145  24.346  0.00  0.00    +0.140 A 
ATOM     23  F   UNL     1      -3.780  -3.970  24.329  0.00  0.00    -0.204 F 
ATOM     24  C   UNL     1      -4.185  -2.708  23.794  0.00  0.00    +0.031 A 
ATOM     25  C   UNL     1      -4.160  -1.884  23.812  0.00  0.00    +0.017 A 
ENDBRANCH  16  19
ENDBRANCH  12  13
ENDBRANCH  11  12
ENDBRANCH  10  11
TORSDOF 7
ENDMDL
MODEL 2
REMARK VINA RESULT:     -10.3      3.130      4.837
REMARK  Name = 
REMARK  7 active torsions:
REMARK  status: ('A' for Active; 'I' for Inactive)
REMARK    1  A    between atoms: C_2  and  C_4
REMARK    2  A    between atoms: C_4  and  C_5
REMARK    3  A    between atoms: C_10  and  C_11
REMARK    4  A    between atoms: C_11  and  C_12
REMARK    5  A    between atoms: C_12  and  N_13
REMARK    6  A    between atoms: N_16  and  C_19
REMARK    7  A    between atoms: C_26  and  C_28
REMARK                            x       y       z     vdW  Elec       q    Type
REMARK                         _______ _______ _______ _____ _____    ______ ____
ROOT
ATOM      5  C   UNL     1      -3.680  -0.381  24.559  0.00  0.00    +0.015 C 
ATOM      6  C   UNL     1      -4.441  -0.296  24.866  0.00  0.00    +0.022 C 
ATOM      7  C   UNL     1      -4.752   0.457  24.997  0.00  0.00    +0.094 C 
ATOM      8  N   UNL     1      -4.301   1.125  24.822  0.00  0.00    -0.276 N 
ATOM      9  C   UNL     1      -3.540   1.041  24.515  0.00  0.00    +0.094 C 
ATOM     10  C   UNL     1      -3.229   0.287  24.384  0.00  0.00    +0.022 C 
ATOM     26  C   UNL     1      -4.611   1.879  24.953  0.00  0.00    +0.255 C 
ATOM     27  O   UNL     1      -5.373   1.963  25.259  0.00  0.00    -0.269 OA
ENDROOT
BRANCH  26  28
ATOM     28  C   UNL     1      -4.160   2.547  24.778  0.00  0.00    +0.083 A 
ATOM     29  C   UNL     1      -4.074   2.892  24.033  0.00  0.00    +0.012 A 
ATOM     30  C   UNL     1      -3.577   3.546  24.111  0.00  0.00    +0.008 A 
ATOM     31  C   UNL     1      -3.357   3.604  24.904  0.00  0.00    +0.036 A 
ATOM     32  S   UNL     1      -3.717   2.988  25.315  0.00  0.00    -0.082 S 
ENDBRANCH  26  28
BRANCH   5   4
ATOM      4  C   UNL     1      -3.370  -1.134  24.428  0.00  0.00    +0.114 C 
BRANCH   4   2
ATOM      1  O   UNL     1      -4.327  -2.036  23.870  0.00  0.00    -0.246 OA
ATOM      2  C   UNL     1      -3.854  -1.798  24.502  0.00  0.00    +0.365 C 
ATOM      3  O   UNL     1      -3.865  -2.224  25.209  0.00  0.00    -0.246 OA
ENDBRANCH   4   2
ENDBRANCH   5   4
BRANCH  10  11
ATOM     11  C   UNL     1      -2.468   0.203  24.078  0.00  0.00    +0.019 C 
BRANCH  11  12
ATOM     12  C   UNL     1      -1.814   0.416  24.535  0.00  0.00    +0.072 C 
BRANCH  12  13
ATOM     13  N   UNL     1      -1.059   0.408  24.202  0.00  0.00    -0.270 NA
ATOM     14  C   UNL     1      -0.597  -0.275  24.242  0.00  0.00    +0.094 C 
ATOM     15  C   UNL     1       0.157  -0.282  23.909  0.00  0.00    +0.108 C 
ATOM     16  N   UNL     1       0.451   0.393  23.536  0.00  0.00    -0.305 N 
ATOM     17  C   UNL     1      -0.011   1.076  23.497  0.00  0.00    +0.108 C 
ATOM     18  C   UNL     1      -0.766   1.084  23.830  0.00  0.00    +0.094 C 
BRANCH  16  19
ATOM     19  C   UNL     1       1.205   0.386  23.204  0.00  0.00    +0.048 A 
ATOM     20  C   UNL     1       1.776   0.921  23.465  0.00  0.00    +0.017 A 
ATOM     21  C   UNL     1       2.531   0.914  23.132  0.00  0.00    +0.031 A 
ATOM     22  C   UNL     1       2.715   0.372  22.538  0.00  0.00    +0.140 A 
ATOM     23  F   UNL     1       3.470   0.365  22.205  0.00  0.00    -0.204 F 
ATOM     24  C   UNL     1       2.144  -0.163  22.277  0.00  0.00    +0.031 A 
ATOM     25  C   UNL     1       1.389  -0.156  22.609  0.00  0.00    +0.017 A 
ENDBRANCH  16  19
ENDBRANCH  12  13
ENDBRANCH  11  12
ENDBRANCH  10  11
TORSDOF 7
ENDMDL
MODEL 3
REMARK VINA RESULT:     -10.2      3.118      5.160
REMARK  Name = 
REMARK  7 active torsions:
REMARK  status: ('A' for Active; 'I' for Inactive)
REMARK    1  A    between atoms: C_2  and  C_4
REMARK    2  A    between atoms: C_4  and  C_5
REMARK    3  A    between atoms: C_10  and  C_11
REMARK    4  A    between atoms: C_11  and  C_12
REMARK    5  A    between atoms: C_12  and  N_13
REMARK    6  A    between atoms: N_16  and  C_19
REMARK    7  A    between atoms: C_26  and  C_28
REMARK                            x       y       z     vdW  Elec       q    Type
REMARK                         _______ _______ _______ _____ _____    ______ ____
ROOT
ATOM      5  C   UNL     1      -2.744  -1.766  24.617  0.00  0.00    +0.015 C 
ATOM      6  C   UNL     1      -2.084  -2.242  24.477  0.00  0.00    +0.022 C 
ATOM      7  C   UNL     1      -1.336  -1.902  24.412  0.00  0.00    +0.094 C 
ATOM      8  N   UNL     1      -1.247  -1.085  24.486  0.00  0.00    -0.276 N 
ATOM      9  C   UNL     1      -1.905  -0.608  24.626  0.00  0.00    +0.094 C 
ATOM     10  C   UNL     1      -2.654  -0.949  24.691  0.00  0.00    +0.022 C 
ATOM     26  C   UNL     1      -0.498  -0.744  24.420  0.00  0.00    +0.255 C 
ATOM     27  O   UNL     1       0.161  -1.221  24.280  0.00  0.00    -0.269 OA
ENDROOT
BRANCH  26  28
ATOM     28  C   UNL     1      -0.408   0.073  24.495  0.00  0.00    +0.083 A 
ATOM     29  C   UNL     1      -0.443   0.503  25.198  0.00  0.00    +0.012 A 
ATOM     30  C   UNL     1      -0.325   1.298  25.017  0.00  0.00    +0.008 A 
ATOM     31  C   UNL     1      -0.216   1.360  24.201  0.00  0.00    +0.036 A 
ATOM     32  S   UNL     1      -0.267   0.603  23.879  0.00  0.00    -0.082 S 
ENDBRANCH  26  28
BRANCH   5   4
ATOM      4  C   UNL     1      -3.492  -2.106  24.683  0.00  0.00    +0.114 C 
BRANCH   4   2
ATOM      1  O   UNL     1      -3.502  -3.368  25.354  0.00  0.00    -0.246 OA
ATOM      2  C   UNL     1      -3.575  -2.927  24.661  0.00  0.00    +0.365 C 
ATOM      3  O   UNL     1      -3.731  -3.307  23.945  0.00  0.00    -0.246 OA
ENDBRANCH   4   2
ENDBRANCH   5   4
BRANCH  10  11
ATOM     11  C   UNL     1      -3.313  -0.473  24.831  0.00  0.00    +0.019 C 
BRANCH  11  12
ATOM     12  C   UNL     1      -3.570   0.056  24.251  0.00  0.00    +0.072 C 
BRANCH  12  13
ATOM     13  N   UNL     1      -3.946   0.757  24.469  0.00  0.00    -0.270 NA
ATOM     14  C   UNL     1      -4.438   0.772  25.131  0.00  0.00    +0.094 C 
ATOM     15  C   UNL     1      -4.814   1.474  25.349  0.00  0.00    +0.108 C 
ATOM     16  N   UNL     1      -4.696   2.160  24.906  0.00  0.00    -0.305 N 
ATOM     17  C   UNL     1      -4.204   2.144  24.244  0.00  0.00    +0.108 C 
ATOM     18  C   UNL     1      -3.828   1.443  24.026  0.00  0.00    +0.094 C 
BRANCH  16  19
ATOM     19  C   UNL     1      -5.072   2.861  25.123  0.00  0.00    +0.048 A 
ATOM     20  C   UNL     1      -4.677   3.581  25.045  0.00  0.00    +0.017 A 
ATOM     21  C   UNL     1      -5.052   4.283  25.263  0.00  0.00    +0.031 A 
ATOM     22  C   UNL     1      -5.822   4.264  25.559  0.00  0.00    +0.140 A 
ATOM     23  F   UNL     1      -6.197   4.967  25.777  0.00  0.00    -0.204 F 
ATOM     24  C   UNL     1      -6.216   3.544  25.638  0.00  0.00    +0.031 A 
ATOM     25  C   UNL     1      -5.841   2.843  25.420  0.00  0.00    +0.017 A 
ENDBRANCH  16  19
ENDBRANCH  12  13
ENDBRANCH  11  12
ENDBRANCH  10  11
TORSDOF 7
ENDMDL
MODEL 4
REMARK VINA RESULT:     -10.0      1.230      2.867
REMARK  Name = 
REMARK  7 active torsions:
REMARK  status: ('A' for Active; 'I' for Inactive)
REMARK    1  A    between atoms: C_2  and  C_4
REMARK    2  A    between atoms: C_4  and  C_5
REMARK    3  A    between atoms: C_10  and  C_11
REMARK    4  A    between atoms: C_11  and  C_12
REMARK    5  A    between atoms: C_12  and  N_13
REMARK    6  A    between atoms: N_16  and  C_19
REMARK    7  A    between atoms: C_26  and  C_28
REMARK                            x       y       z     vdW  Elec       q    Type
REMARK                         _______ _______ _______ _____ _____    ______ ____
ROOT
ATOM      5  C   UNL     1      -2.195   3.504  25.051  0.00  0.00    +0.015 C 
ATOM      6  C   UNL     1      -2.518   4.260  25.125  0.00  0.00    +0.022 C 
ATOM      7  C   UNL     1      -3.330   4.354  25.230  0.00  0.00    +0.094 C 
ATOM      8  N   UNL     1      -3.821   3.692  25.261  0.00  0.00    -0.276 N 
ATOM      9  C   UNL     1      -3.500   2.935  25.187  0.00  0.00    +0.094 C 
ATOM     10  C   UNL     1      -2.686   2.842  25.082  0.00  0.00    +0.022 C 
ATOM     26  C   UNL     1      -4.635   3.785  25.366  0.00  0.00    +0.255 C 
ATOM     27  O   UNL     1      -4.956   4.541  25.440  0.00  0.00    -0.269 OA
ENDROOT
BRANCH  26  28
ATOM     28  C   UNL     1      -5.126   3.123  25.397  0.00  0.00    +0.083 A 
ATOM     29  C   UNL     1      -5.482   2.753  24.751  0.00  0.00    +0.012 A 
ATOM     30  C   UNL     1      -5.923   2.116  25.034  0.00  0.00    +0.008 A 
ATOM     31  C   UNL     1      -5.839   2.093  25.854  0.00  0.00    +0.036 A 
ATOM     32  S   UNL     1      -5.347   2.715  26.078  0.00  0.00    -0.082 S 
ENDBRANCH  26  28
BRANCH   5   4
ATOM      4  C   UNL     1      -1.383   3.410  24.946  0.00  0.00    +0.114 C 
BRANCH   4   2
ATOM      1  O   UNL     1      -0.661   4.512  24.394  0.00  0.00    -0.246 OA
ATOM      2  C   UNL     1      -0.877   4.054  25.045  0.00  0.00    +0.365 C 
ATOM      3  O   UNL     1      -0.588   4.242  25.795  0.00  0.00    -0.246 OA
ENDBRANCH   4   2
ENDBRANCH   5   4
BRANCH  10  11
ATOM     11  C   UNL     1      -2.365   2.086  25.008  0.00  0.00    +0.019 C 
BRANCH  11  12
ATOM     12  C   UNL     1      -2.444   1.672  24.298  0.00  0.00    +0.072 C 
BRANCH  12  13
ATOM     13  N   UNL     1      -2.642   0.871  24.308  0.00  0.00    -0.270 NA
ATOM     14  C   UNL     1      -3.098   0.551  23.699  0.00  0.00    +0.094 C 
ATOM     15  C   UNL     1      -3.296  -0.250  23.710  0.00  0.00    +0.108 C 
ATOM     16  N   UNL     1      -3.038  -0.731  24.328  0.00  0.00    -0.305 N 
ATOM     17  C   UNL     1      -2.582  -0.411  24.937  0.00  0.00    +0.108 C 
ATOM     18  C   UNL     1      -2.383   0.390  24.927  0.00  0.00    +0.094 C 
BRANCH  16  19
ATOM     19  C   UNL     1      -3.235  -1.531  24.338  0.00  0.00    +0.048 A 
ATOM     20  C   UNL     1      -2.699  -2.084  24.633  0.00  0.00    +0.017 A 
ATOM     21  C   UNL     1      -2.896  -2.886  24.644  0.00  0.00    +0.031 A 
ATOM     22  C   UNL     1      -3.630  -3.133  24.359  0.00  0.00    +0.140 A 
ATOM     23  F   UNL     1      -3.828  -3.934  24.370  0.00  0.00    -0.204 F 
ATOM     24  C   UNL     1      -4.167  -2.579  24.065  0.00  0.00    +0.031 A 
ATOM     25  C   UNL     1      -3.969  -1.779  24.054  0.00  0.00    +0.017 A 
ENDBRANCH  16  19
ENDBRANCH  12  13
ENDBRANCH  11  12
ENDBRANCH  10  11
TORSDOF 7
ENDMDL
MODEL 5
REMARK VINA RESULT:      -9.4      3.220      5.600
REMARK  Name = 
REMARK  7 active torsions:
REMARK  status: ('A' for Active; 'I' for Inactive)
REMARK    1  A    between atoms: C_2  and  C_4
REMARK    2  A    between atoms: C_4  and  C_5
REMARK    3  A    between atoms: C_10  and  C_11
REMARK    4  A    between atoms: C_11  and  C_12
REMARK    5  A    between atoms: C_12  and  N_13
REMARK    6  A    between atoms: N_16  and  C_19
REMARK    7  A    between atoms: C_26  and  C_28
REMARK                            x       y       z     vdW  Elec       q    Type
REMARK                         _______ _______ _______ _____ _____    ______ ____
ROOT
ATOM      5  C   UNL     1      -0.245   0.126  23.954  0.00  0.00    +0.015 C 
ATOM      6  C   UNL     1       0.078  -0.632  23.916  0.00  0.00    +0.022 C 
ATOM      7  C   UNL     1      -0.355  -1.279  24.187  0.00  0.00    +0.094 C 
ATOM      8  N   UNL     1      -1.111  -1.168  24.498  0.00  0.00    -0.276 N 
ATOM      9  C   UNL     1      -1.435  -0.410  24.537  0.00  0.00    +0.094 C 
ATOM     10  C   UNL     1      -1.001   0.237  24.264  0.00  0.00    +0.022 C 
ATOM     26  C   UNL     1      -1.545  -1.816  24.770  0.00  0.00    +0.255 C 
ATOM     27  O   UNL     1      -1.222  -2.574  24.732  0.00  0.00    -0.269 OA
ENDROOT
BRANCH  26  28
ATOM     28  C   UNL     1      -2.301  -1.705  25.081  0.00  0.00    +0.083 A 
ATOM     29  C   UNL     1      -2.479  -1.403  25.828  0.00  0.00    +0.012 A 
ATOM     30  C   UNL     1      -3.300  -1.388  25.908  0.00  0.00    +0.008 A 
ATOM     31  C   UNL     1      -3.629  -1.680  25.210  0.00  0.00    +0.036 A 
ATOM     32  S   UNL     1      -3.012  -1.876  24.699  0.00  0.00    -0.082 S 
ENDBRANCH  26  28
BRANCH   5   4
ATOM      4  C   UNL     1       0.188   0.773  23.682  0.00  0.00    +0.114 C 
BRANCH   4   2
ATOM      1  O   UNL     1       1.169   0.226  22.799  0.00  0.00    -0.246 OA
ATOM      2  C   UNL     1       0.977   0.678  23.461  0.00  0.00    +0.365 C 
ATOM      3  O   UNL     1       1.576   1.035  23.904  0.00  0.00    -0.246 OA
ENDBRANCH   4   2
ENDBRANCH   5   4
BRANCH  10  11
ATOM     11  C   UNL     1      -1.324   0.995  24.303  0.00  0.00    +0.019 C 
BRANCH  11  12
ATOM     12  C   UNL     1      -1.948   1.203  23.804  0.00  0.00    +0.072 C 
BRANCH  12  13
ATOM     13  N   UNL     1      -2.564   1.673  24.088  0.00  0.00    -0.270 NA
ATOM     14  C   UNL     1      -2.455   2.132  24.765  0.00  0.00    +0.094 C 
ATOM     15  C   UNL     1      -3.072   2.601  25.048  0.00  0.00    +0.108 C 
ATOM     16  N   UNL     1      -3.796   2.612  24.655  0.00  0.00    -0.305 N 
ATOM     17  C   UNL     1      -3.905   2.154  23.978  0.00  0.00    +0.108 C 
ATOM     18  C   UNL     1      -3.290   1.684  23.694  0.00  0.00    +0.094 C 
BRANCH  16  19
ATOM     19  C   UNL     1      -4.412   3.082  24.939  0.00  0.00    +0.048 A 
ATOM     20  C   UNL     1      -5.065   2.731  25.301  0.00  0.00    +0.017 A 
ATOM     21  C   UNL     1      -5.681   3.201  25.585  0.00  0.00    +0.031 A 
ATOM     22  C   UNL     1      -5.644   4.021  25.506  0.00  0.00    +0.140 A 
ATOM     23  F   UNL     1      -6.261   4.491  25.789  0.00  0.00    -0.204 F 
ATOM     24  C   UNL     1      -4.992   4.372  25.143  0.00  0.00    +0.031 A 
ATOM     25  C   UNL     1      -4.376   3.902  24.860  0.00  0.00    +0.017 A 
ENDBRANCH  16  19
ENDBRANCH  12  13
ENDBRANCH  11  12
ENDBRANCH  10  11
TORSDOF 7
ENDMDL
MODEL 6
REMARK VINA RESULT:      -9.3      2.995      4.822
REMARK  Name = 
REMARK  7 active torsions:
REMARK  status: ('A' for Active; 'I' for Inactive)
REMARK    1  A    between atoms: C_2  and  C_4
REMARK    2  A    between atoms: C_4  and  C_5
REMARK    3  A    between atoms: C_10  and  C_11
REMARK    4  A    between atoms: C_11  and  C_12
REMARK    5  A    between atoms: C_12  and  N_13
REMARK    6  A    between atoms: N_16  and  C_19
REMARK    7  A    between atoms: C_26  and  C_28
REMARK                            x       y       z     vdW  Elec       q    Type
REMARK                         _______ _______ _______ _____ _____    ______ ____
ROOT
ATOM      5  C   UNL     1      -3.154   2.205  24.591  0.00  0.00    +0.015 C 
ATOM      6  C   UNL     1      -3.919   2.240  24.896  0.00  0.00    +0.022 C 
ATOM      7  C   UNL     1      -4.337   1.545  25.044  0.00  0.00    +0.094 C 
ATOM      8  N   UNL     1      -3.990   0.814  24.885  0.00  0.00    -0.276 N 
ATOM      9  C   UNL     1      -3.224   0.778  24.580  0.00  0.00    +0.094 C 
ATOM     10  C   UNL     1      -2.806   1.474  24.432  0.00  0.00    +0.022 C 
ATOM     26  C   UNL     1      -4.408   0.117  25.033  0.00  0.00    +0.255 C 
ATOM     27  O   UNL     1      -5.173   0.153  25.338  0.00  0.00    -0.269 OA
ENDROOT
BRANCH  26  28
ATOM     28  C   UNL     1      -4.061  -0.614  24.875  0.00  0.00    +0.083 A 
ATOM     29  C   UNL     1      -4.063  -1.005  24.147  0.00  0.00    +0.012 A 
ATOM     30  C   UNL     1      -3.654  -1.715  24.239  0.00  0.00    +0.008 A 
ATOM     31  C   UNL     1      -3.399  -1.763  25.022  0.00  0.00    +0.036 A 
ATOM     32  S   UNL     1      -3.650  -1.083  25.415  0.00  0.00    -0.082 S 
ENDBRANCH  26  28
BRANCH   5   4
ATOM      4  C   UNL     1      -2.736   2.900  24.443  0.00  0.00    +0.114 C 
BRANCH   4   2
ATOM      1  O   UNL     1      -2.901   3.997  25.345  0.00  0.00    -0.246 OA
ATOM      2  C   UNL     1      -3.073   3.631  24.626  0.00  0.00    +0.365 C 
ATOM      3  O   UNL     1      -3.583   3.996  24.089  0.00  0.00    -0.246 OA
ENDBRANCH   4   2
ENDBRANCH   5   4
BRANCH  10  11
ATOM     11  C   UNL     1      -2.041   1.438  24.127  0.00  0.00    +0.019 C 
BRANCH  11  12
ATOM     12  C   UNL     1      -1.444   1.060  24.555  0.00  0.00    +0.072 C 
BRANCH  12  13
ATOM     13  N   UNL     1      -0.705   0.937  24.209  0.00  0.00    -0.270 NA
ATOM     14  C   UNL     1      -0.521   0.205  23.877  0.00  0.00    +0.094 C 
ATOM     15  C   UNL     1       0.219   0.083  23.532  0.00  0.00    +0.108 C 
ATOM     16  N   UNL     1       0.774   0.693  23.519  0.00  0.00    -0.305 N 
ATOM     17  C   UNL     1       0.590   1.425  23.851  0.00  0.00    +0.108 C 
ATOM     18  C   UNL     1      -0.149   1.548  24.196  0.00  0.00    +0.094 C 
BRANCH  16  19
ATOM     19  C   UNL     1       1.512   0.571  23.174  0.00  0.00    +0.048 A 
ATOM     20  C   UNL     1       2.159   1.026  23.411  0.00  0.00    +0.017 A 
ATOM     21  C   UNL     1       2.899   0.903  23.066  0.00  0.00    +0.031 A 
ATOM     22  C   UNL     1       2.991   0.326  22.484  0.00  0.00    +0.140 A 
ATOM     23  F   UNL     1       3.731   0.204  22.139  0.00  0.00    -0.204 F 
ATOM     24  C   UNL     1       2.345  -0.129  22.247  0.00  0.00    +0.031 A 
ATOM     25  C   UNL     1       1.606  -0.006  22.592  0.00  0.00    +0.017 A 
ENDBRANCH  16  19
ENDBRANCH  12  13
ENDBRANCH  11  12
ENDBRANCH  10  11
TORSDOF 7
ENDMDL
