MODEL 1
REMARK VINA RESULT:     -12.7      0.000      0.000
REMARK  Name = 
REMARK  8 active torsions:
REMARK  status: ('A' for Active; 'I' for Inactive)
REMARK    1  A    between atoms: O_2  and  C_3
REMARK    2  A    between atoms: C_3  and  C_5
REMARK    3  A    between atoms: C_18  and  N_33
REMARK    4  A    between atoms: C_20  and  C_22
REMARK    5  A    between atoms: C_25  and  O_26
REMARK    6  A    between atoms: O_26  and  C_27
REMARK    7  A    between atoms: N_33  and  C_34
REMARK    8  A    between atoms: C_34  and  C_35
REMARK                            x       y       z     vdW  Elec       q    Type
REMARK                         _______ _______ _______ _____ _____    ______ ____
ROOT
ATOM      5  C   UNL     1      -2.486   1.476  24.859  0.00  0.00    +0.162 C 
ATOM      6  C   UNL     1      -2.612   2.273  25.027  0.00  0.00    +0.055 C 
ATOM      7  C   UNL     1      -1.992   2.813  24.954  0.00  0.00    -0.004 A 
ATOM      8  C   UNL     1      -1.246   2.556  24.713  0.00  0.00    +0.070 A 
ATOM      9  N   UNL     1      -0.746   3.210  24.690  0.00  0.00    -0.249 NA
ATOM     10  C   UNL     1      -1.181   3.874  24.917  0.00  0.00    +0.081 A 
ATOM     11  C   UNL     1      -1.952   3.628  25.080  0.00  0.00    +0.015 A 
ATOM     12  C   UNL     1      -2.517   4.177  25.322  0.00  0.00    +0.001 A 
ATOM     13  C   UNL     1      -2.312   4.973  25.402  0.00  0.00    +0.000 A 
ATOM     14  C   UNL     1      -1.540   5.218  25.239  0.00  0.00    +0.002 A 
ATOM     15  C   UNL     1      -0.975   4.669  24.997  0.00  0.00    +0.019 A 
ATOM     16  C   UNL     1      -1.120   1.758  24.545  0.00  0.00    +0.100 C 
ATOM     17  C   UNL     1      -0.375   1.499  24.304  0.00  0.00    +0.040 C 
ATOM     18  C   UNL     1      -0.249   0.702  24.137  0.00  0.00    +0.077 C 
ATOM     19  C   UNL     1      -0.868   0.162  24.210  0.00  0.00    +0.038 C 
ATOM     20  C   UNL     1      -1.614   0.421  24.451  0.00  0.00    +0.082 C 
ATOM     21  N   UNL     1      -1.740   1.218  24.618  0.00  0.00    -0.258 NA
ENDROOT
BRANCH  20  22
ATOM     22  C   UNL     1      -2.233  -0.120  24.524  0.00  0.00    -0.008 A 
ATOM     23  C   UNL     1      -2.736  -0.261  23.886  0.00  0.00    +0.000 A 
ATOM     24  C   UNL     1      -3.355  -0.801  23.960  0.00  0.00    +0.037 A 
ATOM     25  C   UNL     1      -3.470  -1.201  24.672  0.00  0.00    +0.147 A 
ATOM     31  C   UNL     1      -2.967  -1.061  25.310  0.00  0.00    +0.037 A 
ATOM     32  C   UNL     1      -2.349  -0.520  25.236  0.00  0.00    +0.000 A 
BRANCH  25  26
ATOM     26  O   UNL     1      -4.090  -1.742  24.745  0.00  0.00    -0.404 OA
BRANCH  26  27
ATOM     27  C   UNL     1      -4.019  -2.496  24.417  0.00  0.00    +0.575 C 
ATOM     28  F   UNL     1      -3.948  -3.250  24.090  0.00  0.00    -0.133 F 
ATOM     29  F   UNL     1      -4.383  -2.229  23.727  0.00  0.00    -0.133 F 
ATOM     30  F   UNL     1      -3.655  -2.763  25.108  0.00  0.00    -0.133 F 
ENDBRANCH  26  27
ENDBRANCH  25  26
ENDBRANCH  20  22
BRANCH   5   3
ATOM      3  C   UNL     1      -3.105   0.936  24.933  0.00  0.00    +0.332 C 
ATOM      4  O   UNL     1      -3.466   0.230  25.159  0.00  0.00    -0.249 OA
BRANCH   3   2
ATOM      1  C   UNL     1      -4.443   1.396  25.135  0.00  0.00    +0.256 C 
ATOM      2  O   UNL     1      -3.851   1.119  24.630  0.00  0.00    -0.443 OA
ENDBRANCH   3   2
ENDBRANCH   5   3
BRANCH  18  33
ATOM     33  N   UNL     1       0.497   0.444  23.896  0.00  0.00    -0.215 NA
BRANCH  33  34
ATOM     34  C   UNL     1       0.720   0.508  23.104  0.00  0.00    +0.116 C 
BRANCH  34  35
ATOM     35  C   UNL     1       1.506   0.383  22.885  0.00  0.00    +0.014 A 
ATOM     36  C   UNL     1       2.102   0.853  23.206  0.00  0.00    +0.000 A 
ATOM     37  C   UNL     1       2.888   0.728  22.987  0.00  0.00    +0.020 A 
ATOM     38  C   UNL     1       3.076   0.133  22.447  0.00  0.00    +0.099 A 
ATOM     39  N   UNL     1       2.479  -0.338  22.127  0.00  0.00    -0.243 NA
ATOM     40  C   UNL     1       1.693  -0.213  22.346  0.00  0.00    +0.096 A 
ENDBRANCH  34  35
ENDBRANCH  33  34
ENDBRANCH  18  33
TORSDOF 8
ENDMDL
MODEL 2
REMARK VINA RESULT:     -12.2      2.490      4.386
REMARK  Name = 
REMARK  8 active torsions:
REMARK  status: ('A' for Active; 'I' for Inactive)
REMARK    1  A    between atoms: O_2  and  C_3
REMARK    2  A    between atoms: C_3  and  C_5
REMARK    3  A    between atoms: C_18  and  N_33
REMARK    4  A    between atoms: C_20  and  C_22
REMARK    5  A    between atoms: C_25  and  O_26
REMARK    6  A    between atoms: O_26  and  C_27
REMARK    7  A    between atoms: N_33  and  C_34
REMARK    8  A    between atoms: C_34  and  C_35
REMARK                            x       y       z     vdW  Elec       q    Type
REMARK                         _______ _______ _______ _____ _____    ______ ____
ROOT
ATOM      5  C   UNL     1      -2.215   0.940  24.881  0.00  0.00    +0.162 C 
ATOM      6  C   UNL     1      -2.755   0.319  24.923  0.00  0.00    +0.055 C 
ATOM      7  C   UNL     1      -2.522  -0.445  24.715  0.00  0.00    -0.004 A 
ATOM      8  C   UNL     1      -1.749  -0.587  24.465  0.00  0.00    +0.070 A 
ATOM      9  N   UNL     1      -1.679  -1.391  24.297  0.00  0.00    -0.249 NA
ATOM     10  C   UNL     1      -2.409  -1.748  24.443  0.00  0.00    +0.081 A 
ATOM     11  C   UNL     1      -2.930  -1.162  24.702  0.00  0.00    +0.015 A 
ATOM     12  C   UNL     1      -3.709  -1.358  24.891  0.00  0.00    +0.001 A 
ATOM     13  C   UNL     1      -3.966  -2.139  24.823  0.00  0.00    +0.000 A 
ATOM     14  C   UNL     1      -3.444  -2.725  24.564  0.00  0.00    +0.002 A 
ATOM     15  C   UNL     1      -2.666  -2.528  24.374  0.00  0.00    +0.019 A 
ATOM     16  C   UNL     1      -1.208   0.035  24.423  0.00  0.00    +0.100 C 
ATOM     17  C   UNL     1      -0.435  -0.106  24.173  0.00  0.00    +0.040 C 
ATOM     18  C   UNL     1       0.104   0.516  24.130  0.00  0.00    +0.077 C 
ATOM     19  C   UNL     1      -0.129   1.280  24.338  0.00  0.00    +0.038 C 
ATOM     20  C   UNL     1      -0.902   1.420  24.588  0.00  0.00    +0.082 C 
ATOM     21  N   UNL     1      -1.442   0.799  24.631  0.00  0.00    -0.258 NA
ENDROOT
BRANCH  20  22
ATOM     22  C   UNL     1      -1.134   2.185  24.796  0.00  0.00    -0.008 A 
ATOM     23  C   UNL     1      -1.057   2.442  25.575  0.00  0.00    +0.000 A 
ATOM     24  C   UNL     1      -1.289   3.207  25.782  0.00  0.00    +0.037 A 
ATOM     25  C   UNL     1      -1.600   3.713  25.209  0.00  0.00    +0.147 A 
ATOM     31  C   UNL     1      -1.677   3.455  24.429  0.00  0.00    +0.037 A 
ATOM     32  C   UNL     1      -1.445   2.691  24.223  0.00  0.00    +0.000 A 
BRANCH  25  26
ATOM     26  O   UNL     1      -1.832   4.477  25.416  0.00  0.00    -0.404 OA
BRANCH  26  27
ATOM     27  C   UNL     1      -1.446   5.129  25.089  0.00  0.00    +0.575 C 
ATOM     28  F   UNL     1      -1.059   5.779  24.762  0.00  0.00    -0.133 F 
ATOM     29  F   UNL     1      -2.109   5.288  24.625  0.00  0.00    -0.133 F 
ATOM     30  F   UNL     1      -0.782   4.968  25.553  0.00  0.00    -0.133 F 
ENDBRANCH  26  27
ENDBRANCH  25  26
ENDBRANCH  20  22
BRANCH   5   3
ATOM      3  C   UNL     1      -2.449   1.704  25.089  0.00  0.00    +0.332 C 
ATOM      4  O   UNL     1      -2.384   2.435  25.465  0.00  0.00    -0.249 OA
BRANCH   3   2
ATOM      1  C   UNL     1      -3.834   2.005  25.266  0.00  0.00    +0.256 C 
ATOM      2  O   UNL     1      -3.155   2.014  24.796  0.00  0.00    -0.443 OA
ENDBRANCH   3   2
ENDBRANCH   5   3
BRANCH  18  33
ATOM     33  N   UNL     1       0.878   0.375  23.880  0.00  0.00    -0.215 NA
BRANCH  33  34
ATOM     34  C   UNL     1       1.101   0.556  23.107  0.00  0.00    +0.116 C 
BRANCH  34  35
ATOM     35  C   UNL     1       1.890   0.479  22.876  0.00  0.00    +0.014 A 
ATOM     36  C   UNL     1       2.456   1.006  23.163  0.00  0.00    +0.000 A 
ATOM     37  C   UNL     1       3.244   0.929  22.932  0.00  0.00    +0.020 A 
ATOM     38  C   UNL     1       3.466   0.325  22.415  0.00  0.00    +0.099 A 
ATOM     39  N   UNL     1       2.899  -0.202  22.129  0.00  0.00    -0.243 NA
ATOM     40  C   UNL     1       2.111  -0.125  22.360  0.00  0.00    +0.096 A 
ENDBRANCH  34  35
ENDBRANCH  33  34
ENDBRANCH  18  33
TORSDOF 8
ENDMDL
MODEL 3
REMARK VINA RESULT:     -10.5      2.658      4.602
REMARK  Name = 
REMARK  8 active torsions:
REMARK  status: ('A' for Active; 'I' for Inactive)
REMARK    1  A    between atoms: O_2  and  C_3
REMARK    2  A    between atoms: C_3  and  C_5
REMARK    3  A    between atoms: C_18  and  N_33
REMARK    4  A    between atoms: C_20  and  C_22
REMARK    5  A    between atoms: C_25  and  O_26
REMARK    6  A    between atoms: O_26  and  C_27
REMARK    7  A    between atoms: N_33  and  C_34
REMARK    8  A    between atoms: C_34  and  C_35
REMARK                            x       y       z     vdW  Elec       q    Type
REMARK                         _______ _______ _______ _____ _____    ______ ____
ROOT
ATOM      5  C   UNL     1      -2.652   2.581  24.934  0.00  0.00    +0.162 C 
ATOM      6  C   UNL     1      -3.190   3.165  25.154  0.00  0.00    +0.055 C 
ATOM      7  C   UNL     1      -3.997   2.997  25.170  0.00  0.00    -0.004 A 
ATOM      8  C   UNL     1      -4.267   2.245  24.966  0.00  0.00    +0.070 A 
ATOM      9  N   UNL     1      -5.089   2.242  25.032  0.00  0.00    -0.249 NA
ATOM     10  C   UNL     1      -5.329   2.992  25.278  0.00  0.00    +0.081 A 
ATOM     11  C   UNL     1      -4.653   3.459  25.363  0.00  0.00    +0.015 A 
ATOM     12  C   UNL     1      -4.724   4.244  25.605  0.00  0.00    +0.001 A 
ATOM     13  C   UNL     1      -5.469   4.563  25.763  0.00  0.00    +0.000 A 
ATOM     14  C   UNL     1      -6.144   4.095  25.677  0.00  0.00    +0.002 A 
ATOM     15  C   UNL     1      -6.073   3.309  25.435  0.00  0.00    +0.019 A 
ATOM     16  C   UNL     1      -3.728   1.660  24.745  0.00  0.00    +0.100 C 
ATOM     17  C   UNL     1      -3.996   0.907  24.541  0.00  0.00    +0.040 C 
ATOM     18  C   UNL     1      -3.458   0.323  24.320  0.00  0.00    +0.077 C 
ATOM     19  C   UNL     1      -2.651   0.491  24.304  0.00  0.00    +0.038 C 
ATOM     20  C   UNL     1      -2.382   1.243  24.509  0.00  0.00    +0.082 C 
ATOM     21  N   UNL     1      -2.921   1.828  24.729  0.00  0.00    -0.258 NA
ENDROOT
BRANCH  20  22
ATOM     22  C   UNL     1      -1.574   1.411  24.493  0.00  0.00    -0.008 A 
ATOM     23  C   UNL     1      -1.113   1.287  25.165  0.00  0.00    +0.000 A 
ATOM     24  C   UNL     1      -0.306   1.455  25.148  0.00  0.00    +0.037 A 
ATOM     25  C   UNL     1       0.041   1.746  24.457  0.00  0.00    +0.147 A 
ATOM     31  C   UNL     1      -0.420   1.869  23.785  0.00  0.00    +0.037 A 
ATOM     32  C   UNL     1      -1.228   1.701  23.802  0.00  0.00    +0.000 A 
BRANCH  25  26
ATOM     26  O   UNL     1       0.849   1.913  24.441  0.00  0.00    -0.404 OA
BRANCH  26  27
ATOM     27  C   UNL     1       1.335   1.543  23.886  0.00  0.00    +0.575 C 
ATOM     28  F   UNL     1       1.821   1.172  23.332  0.00  0.00    -0.133 F 
ATOM     29  F   UNL     1       1.453   2.266  23.508  0.00  0.00    -0.133 F 
ATOM     30  F   UNL     1       1.217   0.819  24.266  0.00  0.00    -0.133 F 
ENDBRANCH  26  27
ENDBRANCH  25  26
ENDBRANCH  20  22
BRANCH   5   3
ATOM      3  C   UNL     1      -1.844   2.749  24.918  0.00  0.00    +0.332 C 
ATOM      4  O   UNL     1      -1.041   2.601  25.036  0.00  0.00    -0.249 OA
BRANCH   3   2
ATOM      1  C   UNL     1      -1.377   4.079  25.150  0.00  0.00    +0.256 C 
ATOM      2  O   UNL     1      -1.578   3.473  24.626  0.00  0.00    -0.443 OA
ENDBRANCH   3   2
ENDBRANCH   5   3
BRANCH  18  33
ATOM     33  N   UNL     1      -3.727  -0.430  24.116  0.00  0.00    -0.215 NA
BRANCH  33  34
ATOM     34  C   UNL     1      -3.860  -0.994  24.703  0.00  0.00    +0.116 C 
BRANCH  34  35
ATOM     35  C   UNL     1      -3.840  -1.798  24.516  0.00  0.00    +0.014 A 
ATOM     36  C   UNL     1      -3.387  -2.315  24.970  0.00  0.00    +0.000 A 
ATOM     37  C   UNL     1      -3.366  -3.118  24.783  0.00  0.00    +0.020 A 
ATOM     38  C   UNL     1      -3.800  -3.404  24.141  0.00  0.00    +0.099 A 
ATOM     39  N   UNL     1      -4.254  -2.885  23.687  0.00  0.00    -0.243 NA
ATOM     40  C   UNL     1      -4.274  -2.082  23.874  0.00  0.00    +0.096 A 
ENDBRANCH  34  35
ENDBRANCH  33  34
ENDBRANCH  18  33
TORSDOF 8
ENDMDL
MODEL 4
REMARK VINA RESULT:     -10.3      2.562      4.800
REMARK  Name = 
REMARK  8 active torsions:
REMARK  status: ('A' for Active; 'I' for Inactive)
REMARK    1  A    between atoms: O_2  and  C_3
REMARK    2  A    between atoms: C_3  and  C_5
REMARK    3  A    between atoms: C_18  and  N_33
REMARK    4  A    between atoms: C_20  and  C_22
REMARK    5  A    between atoms: C_25  and  O_26
REMARK    6  A    between atoms: O_26  and  C_27
REMARK    7  A    between atoms: N_33  and  C_34
REMARK    8  A    between atoms: C_34  and  C_35
REMARK                            x       y       z     vdW  Elec       q    Type
REMARK                         _______ _______ _______ _____ _____    ______ ____
ROOT
ATOM      5  C   UNL     1      -2.159   2.454  24.603  0.00  0.00    +0.162 C 
ATOM      6  C   UNL     1      -1.343   2.481  24.491  0.00  0.00    +0.055 C 
ATOM      7  C   UNL     1      -0.939   1.809  24.236  0.00  0.00    -0.004 A 
ATOM      8  C   UNL     1      -1.351   1.109  24.092  0.00  0.00    +0.070 A 
ATOM      9  N   UNL     1      -0.809   0.539  23.847  0.00  0.00    -0.249 NA
ATOM     10  C   UNL     1      -0.060   0.885  23.838  0.00  0.00    +0.081 A 
ATOM     11  C   UNL     1      -0.141   1.671  24.078  0.00  0.00    +0.015 A 
ATOM     12  C   UNL     1       0.523   2.159  24.123  0.00  0.00    +0.001 A 
ATOM     13  C   UNL     1       1.268   1.862  23.927  0.00  0.00    +0.000 A 
ATOM     14  C   UNL     1       1.348   1.076  23.687  0.00  0.00    +0.002 A 
ATOM     15  C   UNL     1       0.684   0.588  23.642  0.00  0.00    +0.019 A 
ATOM     16  C   UNL     1      -2.169   1.081  24.204  0.00  0.00    +0.100 C 
ATOM     17  C   UNL     1      -2.582   0.382  24.061  0.00  0.00    +0.040 C 
ATOM     18  C   UNL     1      -3.398   0.355  24.173  0.00  0.00    +0.077 C 
ATOM     19  C   UNL     1      -3.802   1.027  24.428  0.00  0.00    +0.038 C 
ATOM     20  C   UNL     1      -3.389   1.727  24.571  0.00  0.00    +0.082 C 
ATOM     21  N   UNL     1      -2.573   1.754  24.459  0.00  0.00    -0.258 NA
ENDROOT
BRANCH  20  22
ATOM     22  C   UNL     1      -3.794   2.399  24.826  0.00  0.00    -0.008 A 
ATOM     23  C   UNL     1      -3.897   2.538  25.632  0.00  0.00    +0.000 A 
ATOM     24  C   UNL     1      -4.302   3.210  25.887  0.00  0.00    +0.037 A 
ATOM     25  C   UNL     1      -4.604   3.744  25.334  0.00  0.00    +0.147 A 
ATOM     31  C   UNL     1      -4.501   3.605  24.528  0.00  0.00    +0.037 A 
ATOM     32  C   UNL     1      -4.096   2.933  24.274  0.00  0.00    +0.000 A 
BRANCH  25  26
ATOM     26  O   UNL     1      -5.009   4.416  25.589  0.00  0.00    -0.404 OA
BRANCH  26  27
ATOM     27  C   UNL     1      -5.834   4.426  25.586  0.00  0.00    +0.575 C 
ATOM     28  F   UNL     1      -6.659   4.436  25.582  0.00  0.00    -0.133 F 
ATOM     29  F   UNL     1      -5.843   3.845  26.171  0.00  0.00    -0.133 F 
ATOM     30  F   UNL     1      -5.825   5.008  25.000  0.00  0.00    -0.133 F 
ENDBRANCH  26  27
ENDBRANCH  25  26
ENDBRANCH  20  22
BRANCH   5   3
ATOM      3  C   UNL     1      -2.564   3.127  24.858  0.00  0.00    +0.332 C 
ATOM      4  O   UNL     1      -3.179   3.676  24.871  0.00  0.00    -0.249 OA
BRANCH   3   2
ATOM      1  C   UNL     1      -1.844   4.296  25.252  0.00  0.00    +0.256 C 
ATOM      2  O   UNL     1      -2.243   3.601  25.451  0.00  0.00    -0.443 OA
ENDBRANCH   3   2
ENDBRANCH   5   3
BRANCH  18  33
ATOM     33  N   UNL     1      -3.811  -0.345  24.030  0.00  0.00    -0.215 NA
BRANCH  33  34
ATOM     34  C   UNL     1      -3.904  -0.900  24.634  0.00  0.00    +0.116 C 
BRANCH  34  35
ATOM     35  C   UNL     1      -3.911  -1.706  24.455  0.00  0.00    +0.014 A 
ATOM     36  C   UNL     1      -3.478  -2.233  24.919  0.00  0.00    +0.000 A 
ATOM     37  C   UNL     1      -3.485  -3.039  24.740  0.00  0.00    +0.020 A 
ATOM     38  C   UNL     1      -3.925  -3.317  24.100  0.00  0.00    +0.099 A 
ATOM     39  N   UNL     1      -4.358  -2.788  23.637  0.00  0.00    -0.243 NA
ATOM     40  C   UNL     1      -4.351  -1.982  23.815  0.00  0.00    +0.096 A 
ENDBRANCH  34  35
ENDBRANCH  33  34
ENDBRANCH  18  33
TORSDOF 8
ENDMDL
MODEL 5
REMARK VINA RESULT:      -9.9      2.546      5.010
REMARK  Name = 
REMARK  8 active torsions:
REMARK  status: ('A' for Active; 'I' for Inactive)
REMARK    1  A    between atoms: O_2  and  C_3
REMARK    2  A    between atoms: C_3  and  C_5
REMARK    3  A    between atoms: C_18  and  N_33
REMARK    4  A    between atoms: C_20  and  C_22
REMARK    5  A    between atoms: C_25  and  O_26
REMARK    6  A    between atoms: O_26  and  C_27
REMARK    7  A    between atoms: N_33  and  C_34
REMARK    8  A    between atoms: C_34  and  C_35
REMARK                            x       y       z     vdW  Elec       q    Type
REMARK                         _______ _______ _______ _____ _____    ______ ____
ROOT
ATOM      5  C   UNL     1      -0.176   1.836  24.288  0.00  0.00    +0.162 C 
ATOM      6  C   UNL     1       0.560   1.774  23.922  0.00  0.00    +0.055 C 
ATOM      7  C   UNL     1       0.831   1.038  23.664  0.00  0.00    -0.004 A 
ATOM      8  C   UNL     1       0.366   0.365  23.772  0.00  0.00    +0.070 A 
ATOM      9  N   UNL     1       0.776  -0.280  23.463  0.00  0.00    -0.249 NA
ATOM     10  C   UNL     1       1.494  -0.007  23.162  0.00  0.00    +0.081 A 
ATOM     11  C   UNL     1       1.528   0.808  23.287  0.00  0.00    +0.015 A 
ATOM     12  C   UNL     1       2.189   1.235  23.040  0.00  0.00    +0.001 A 
ATOM     13  C   UNL     1       2.817   0.848  22.669  0.00  0.00    +0.000 A 
ATOM     14  C   UNL     1       2.782   0.032  22.546  0.00  0.00    +0.002 A 
ATOM     15  C   UNL     1       2.121  -0.395  22.792  0.00  0.00    +0.019 A 
ATOM     16  C   UNL     1      -0.370   0.428  24.140  0.00  0.00    +0.100 C 
ATOM     17  C   UNL     1      -0.836  -0.244  24.249  0.00  0.00    +0.040 C 
ATOM     18  C   UNL     1      -1.571  -0.181  24.616  0.00  0.00    +0.077 C 
ATOM     19  C   UNL     1      -1.842   0.554  24.874  0.00  0.00    +0.038 C 
ATOM     20  C   UNL     1      -1.377   1.226  24.764  0.00  0.00    +0.082 C 
ATOM     21  N   UNL     1      -0.641   1.163  24.398  0.00  0.00    -0.258 NA
ENDROOT
BRANCH  20  22
ATOM     22  C   UNL     1      -1.649   1.961  25.023  0.00  0.00    -0.008 A 
ATOM     23  C   UNL     1      -2.128   2.420  24.533  0.00  0.00    +0.000 A 
ATOM     24  C   UNL     1      -2.399   3.155  24.792  0.00  0.00    +0.037 A 
ATOM     25  C   UNL     1      -2.191   3.430  25.542  0.00  0.00    +0.147 A 
ATOM     31  C   UNL     1      -1.712   2.972  26.032  0.00  0.00    +0.037 A 
ATOM     32  C   UNL     1      -1.441   2.237  25.773  0.00  0.00    +0.000 A 
BRANCH  25  26
ATOM     26  O   UNL     1      -2.463   4.166  25.800  0.00  0.00    -0.404 OA
BRANCH  26  27
ATOM     27  C   UNL     1      -3.220   4.235  26.120  0.00  0.00    +0.575 C 
ATOM     28  F   UNL     1      -3.977   4.305  26.440  0.00  0.00    -0.133 F 
ATOM     29  F   UNL     1      -2.912   4.113  26.876  0.00  0.00    -0.133 F 
ATOM     30  F   UNL     1      -3.529   4.357  25.365  0.00  0.00    -0.133 F 
ENDBRANCH  26  27
ENDBRANCH  25  26
ENDBRANCH  20  22
BRANCH   5   3
ATOM      3  C   UNL     1      -0.447   2.571  24.546  0.00  0.00    +0.332 C 
ATOM      4  O   UNL     1      -0.776   3.109  25.079  0.00  0.00    -0.249 OA
BRANCH   3   2
ATOM      1  C   UNL     1       0.176   3.797  24.158  0.00  0.00    +0.256 C 
ATOM      2  O   UNL     1      -0.409   3.225  24.045  0.00  0.00    -0.443 OA
ENDBRANCH   3   2
ENDBRANCH   5   3
BRANCH  18  33
ATOM     33  N   UNL     1      -2.037  -0.854  24.725  0.00  0.00    -0.215 NA
BRANCH  33  34
ATOM     34  C   UNL     1      -2.849  -0.821  24.586  0.00  0.00    +0.116 C 
BRANCH  34  35
ATOM     35  C   UNL     1      -3.276  -1.516  24.462  0.00  0.00    +0.014 A 
ATOM     36  C   UNL     1      -3.894  -1.527  23.916  0.00  0.00    +0.000 A 
ATOM     37  C   UNL     1      -4.320  -2.223  23.791  0.00  0.00    +0.020 A 
ATOM     38  C   UNL     1      -4.128  -2.906  24.212  0.00  0.00    +0.099 A 
ATOM     39  N   UNL     1      -3.510  -2.894  24.758  0.00  0.00    -0.243 NA
ATOM     40  C   UNL     1      -3.083  -2.198  24.882  0.00  0.00    +0.096 A 
ENDBRANCH  34  35
ENDBRANCH  33  34
ENDBRANCH  18  33
TORSDOF 8
ENDMDL
MODEL 6
REMARK VINA RESULT:      -9.6      2.963      6.062
REMARK  Name = 
REMARK  8 active torsions:
REMARK  status: ('A' for Active; 'I' for Inactive)
REMARK    1  A    between atoms: O_2  and  C_3
REMARK    2  A    between atoms: C_3  and  C_5
REMARK    3  A    between atoms: C_18  and  N_33
REMARK    4  A    between atoms: C_20  and  C_22
REMARK    5  A    between atoms: C_25  and  O_26
REMARK    6  A    between atoms: O_26  and  C_27
REMARK    7  A    between atoms: N_33  and  C_34
REMARK    8  A    between atoms: C_34  and  C_35
REMARK                            x       y       z     vdW  Elec       q    Type
REMARK                         _______ _______ _______ _____ _____    ______ ____
ROOT
ATOM      5  C   UNL     1      -1.888   0.289  24.591  0.00  0.00    +0.162 C 
ATOM      6  C   UNL     1      -1.821  -0.528  24.505  0.00  0.00    +0.055 C 
ATOM      7  C   UNL     1      -2.488  -1.007  24.584  0.00  0.00    -0.004 A 
ATOM      8  C   UNL     1      -3.222  -0.669  24.748  0.00  0.00    +0.070 A 
ATOM      9  N   UNL     1      -3.778  -1.276  24.795  0.00  0.00    -0.249 NA
ATOM     10  C   UNL     1      -3.389  -1.990  24.660  0.00  0.00    +0.081 A 
ATOM     11  C   UNL     1      -2.591  -1.824  24.530  0.00  0.00    +0.015 A 
ATOM     12  C   UNL     1      -2.062  -2.438  24.378  0.00  0.00    +0.001 A 
ATOM     13  C   UNL     1      -2.330  -3.219  24.357  0.00  0.00    +0.000 A 
ATOM     14  C   UNL     1      -3.128  -3.384  24.488  0.00  0.00    +0.002 A 
ATOM     15  C   UNL     1      -3.657  -2.770  24.640  0.00  0.00    +0.019 A 
ATOM     16  C   UNL     1      -3.289   0.150  24.834  0.00  0.00    +0.100 C 
ATOM     17  C   UNL     1      -4.022   0.489  24.998  0.00  0.00    +0.040 C 
ATOM     18  C   UNL     1      -4.089   1.306  25.083  0.00  0.00    +0.077 C 
ATOM     19  C   UNL     1      -3.422   1.785  25.005  0.00  0.00    +0.038 C 
ATOM     20  C   UNL     1      -2.689   1.445  24.840  0.00  0.00    +0.082 C 
ATOM     21  N   UNL     1      -2.622   0.628  24.755  0.00  0.00    -0.258 NA
ENDROOT
BRANCH  20  22
ATOM     22  C   UNL     1      -2.021   1.925  24.762  0.00  0.00    -0.008 A 
ATOM     23  C   UNL     1      -1.816   2.229  24.023  0.00  0.00    +0.000 A 
ATOM     24  C   UNL     1      -1.149   2.708  23.945  0.00  0.00    +0.037 A 
ATOM     25  C   UNL     1      -0.687   2.884  24.607  0.00  0.00    +0.147 A 
ATOM     31  C   UNL     1      -0.893   2.580  25.345  0.00  0.00    +0.037 A 
ATOM     32  C   UNL     1      -1.560   2.101  25.423  0.00  0.00    +0.000 A 
BRANCH  25  26
ATOM     26  O   UNL     1      -0.020   3.363  24.528  0.00  0.00    -0.404 OA
BRANCH  26  27
ATOM     27  C   UNL     1      -0.106   4.182  24.473  0.00  0.00    +0.575 C 
ATOM     28  F   UNL     1      -0.192   5.001  24.417  0.00  0.00    -0.133 F 
ATOM     29  F   UNL     1      -0.187   4.228  25.293  0.00  0.00    -0.133 F 
ATOM     30  F   UNL     1      -0.025   4.136  23.653  0.00  0.00    -0.133 F 
ENDBRANCH  26  27
ENDBRANCH  25  26
ENDBRANCH  20  22
BRANCH   5   3
ATOM      3  C   UNL     1      -1.220   0.768  24.512  0.00  0.00    +0.332 C 
ATOM      4  O   UNL     1      -0.703   1.378  24.713  0.00  0.00    -0.249 OA
BRANCH   3   2
ATOM      1  C   UNL     1      -0.001   0.206  24.023  0.00  0.00    +0.256 C 
ATOM      2  O   UNL     1      -0.691   0.640  23.892  0.00  0.00    -0.443 OA
ENDBRANCH   3   2
ENDBRANCH   5   3
BRANCH  18  33
ATOM     33  N   UNL     1      -4.823   1.646  25.248  0.00  0.00    -0.215 NA
BRANCH  33  34
ATOM     34  C   UNL     1      -5.086   2.293  24.809  0.00  0.00    +0.116 C 
BRANCH  34  35
ATOM     35  C   UNL     1      -5.465   2.921  25.186  0.00  0.00    +0.014 A 
ATOM     36  C   UNL     1      -5.226   3.696  25.036  0.00  0.00    +0.000 A 
ATOM     37  C   UNL     1      -5.605   4.324  25.413  0.00  0.00    +0.020 A 
ATOM     38  C   UNL     1      -6.223   4.177  25.941  0.00  0.00    +0.099 A 
ATOM     39  N   UNL     1      -6.461   3.402  26.090  0.00  0.00    -0.243 NA
ATOM     40  C   UNL     1      -6.082   2.773  25.713  0.00  0.00    +0.096 A 
ENDBRANCH  34  35
ENDBRANCH  33  34
ENDBRANCH  18  33
TORSDOF 8
ENDMDL
