MODEL 1
REMARK VINA RESULT:     -15.8      0.000      0.000
REMARK  Name = 
REMARK  3 active torsions:
REMARK  status: ('A' for Active; 'I' for Inactive)
REMARK    1  A    between atoms: S_2  and  C_3
REMARK    2  A    between atoms: C_6  and  C_9
REMARK    3  A    between atoms: N_21  and  C_22
REMARK                            x       y       z     vdW  Elec       q    Type
REMARK                         _______ _______ _______ _____ _____    ______ ____
ROOT
ATOM      9  C   UNL     1      -4.369   0.794  24.903  0.00  0.00    +0.056 A 
ATOM     10  C   UNL     1      -5.168   0.981  24.982  0.00  0.00    +0.006 A 
ATOM     11  C   UNL     1      -5.399   1.763  25.107  0.00  0.00    +0.013 A 
ATOM     12  C   UNL     1      -4.831   2.358  25.153  0.00  0.00    +0.041 A 
ATOM     13  C   UNL     1      -4.756   3.266  25.276  0.00  0.00    +0.058 C 
ATOM     14  C   UNL     1      -5.144   3.841  25.382  0.00  0.00    +0.011 C 
ATOM     15  C   UNL     1      -4.356   3.653  25.303  0.00  0.00    +0.043 C 
ATOM     16  C   UNL     1      -3.370   3.628  25.234  0.00  0.00    +0.097 C 
ATOM     17  N   UNL     1      -3.259   2.809  25.112  0.00  0.00    -0.262 N 
ATOM     18  C   UNL     1      -3.803   3.258  25.211  0.00  0.00    +0.101 C 
ATOM     19  C   UNL     1      -2.862   2.096  24.985  0.00  0.00    +0.323 C 
ATOM     20  O   UNL     1      -3.289   1.393  24.915  0.00  0.00    -0.251 OA
ATOM     21  N   UNL     1      -2.040   2.087  24.929  0.00  0.00    -0.190 NA
ATOM     28  C   UNL     1      -4.424   2.704  25.175  0.00  0.00    +0.110 C 
ATOM     29  N   UNL     1      -4.031   2.172  25.074  0.00  0.00    -0.299 N 
ATOM     30  C   UNL     1      -3.800   1.390  24.949  0.00  0.00    +0.261 A 
ATOM     31  O   UNL     1      -3.100   0.967  24.843  0.00  0.00    -0.267 OA
ENDROOT
BRANCH   9   6
ATOM      3  C   UNL     1      -3.678  -1.552  24.525  0.00  0.00    +0.025 A 
ATOM      4  C   UNL     1      -3.730  -1.257  25.294  0.00  0.00    +0.006 A 
ATOM      5  C   UNL     1      -3.961  -0.474  25.420  0.00  0.00    +0.001 A 
ATOM      6  C   UNL     1      -4.139   0.012  24.778  0.00  0.00    +0.005 A 
ATOM      7  C   UNL     1      -4.087  -0.284  24.009  0.00  0.00    +0.001 A 
ATOM      8  C   UNL     1      -3.856  -1.066  23.883  0.00  0.00    +0.006 A 
BRANCH   3   2
ATOM      1  C   UNL     1      -3.308  -2.831  25.042  0.00  0.00    +0.074 C 
ATOM      2  S   UNL     1      -3.448  -2.335  24.399  0.00  0.00    -0.113 S 
ENDBRANCH   3   2
ENDBRANCH   9   6
BRANCH  21  22
ATOM     22  C   UNL     1      -1.643   1.375  24.803  0.00  0.00    +0.097 C 
ATOM     23  C   UNL     1      -1.489   1.119  24.033  0.00  0.00    +0.022 C 
ATOM     24  C   UNL     1      -1.092   0.407  23.907  0.00  0.00    +0.002 C 
ATOM     25  C   UNL     1      -0.849  -0.050  24.551  0.00  0.00    +0.000 C 
ATOM     26  C   UNL     1      -1.004   0.206  25.319  0.00  0.00    +0.002 C 
ATOM     27  C   UNL     1      -1.400   0.918  25.446  0.00  0.00    +0.022 C 
ENDBRANCH  21  22
TORSDOF 3
ENDMDL
MODEL 2
REMARK VINA RESULT:     -15.7      1.731      3.853
REMARK  Name = 
REMARK  3 active torsions:
REMARK  status: ('A' for Active; 'I' for Inactive)
REMARK    1  A    between atoms: S_2  and  C_3
REMARK    2  A    between atoms: C_6  and  C_9
REMARK    3  A    between atoms: N_21  and  C_22
REMARK                            x       y       z     vdW  Elec       q    Type
REMARK                         _______ _______ _______ _____ _____    ______ ____
ROOT
ATOM      9  C   UNL     1      -3.627   0.125  24.293  0.00  0.00    +0.056 A 
ATOM     10  C   UNL     1      -4.331  -0.280  24.147  0.00  0.00    +0.006 A 
ATOM     11  C   UNL     1      -4.346  -1.104  24.172  0.00  0.00    +0.013 A 
ATOM     12  C   UNL     1      -3.657  -1.524  24.342  0.00  0.00    +0.041 A 
ATOM     13  C   UNL     1      -3.352  -2.385  24.441  0.00  0.00    +0.058 C 
ATOM     14  C   UNL     1      -3.568  -3.052  24.414  0.00  0.00    +0.011 C 
ATOM     15  C   UNL     1      -2.875  -2.649  24.558  0.00  0.00    +0.043 C 
ATOM     16  C   UNL     1      -1.955  -2.349  24.756  0.00  0.00    +0.097 C 
ATOM     17  N   UNL     1      -2.062  -1.523  24.704  0.00  0.00    -0.262 N 
ATOM     18  C   UNL     1      -2.458  -2.111  24.634  0.00  0.00    +0.101 C 
ATOM     19  C   UNL     1      -1.874  -0.719  24.719  0.00  0.00    +0.323 C 
ATOM     20  O   UNL     1      -2.457  -0.155  24.568  0.00  0.00    -0.251 OA
ATOM     21  N   UNL     1      -1.102  -0.480  24.886  0.00  0.00    -0.190 NA
ATOM     28  C   UNL     1      -3.185  -1.746  24.457  0.00  0.00    +0.110 C 
ATOM     29  N   UNL     1      -2.953  -1.119  24.488  0.00  0.00    -0.299 N 
ATOM     30  C   UNL     1      -2.938  -0.295  24.464  0.00  0.00    +0.261 A 
ATOM     31  O   UNL     1      -2.389   0.312  24.567  0.00  0.00    -0.267 OA
ENDROOT
BRANCH   9   6
ATOM      3  C   UNL     1      -3.586   2.598  24.220  0.00  0.00    +0.025 A 
ATOM      4  C   UNL     1      -3.413   2.163  23.541  0.00  0.00    +0.006 A 
ATOM      5  C   UNL     1      -3.427   1.338  23.565  0.00  0.00    +0.001 A 
ATOM      6  C   UNL     1      -3.614   0.949  24.268  0.00  0.00    +0.005 A 
ATOM      7  C   UNL     1      -3.786   1.385  24.947  0.00  0.00    +0.001 A 
ATOM      8  C   UNL     1      -3.773   2.209  24.923  0.00  0.00    +0.006 A 
BRANCH   3   2
ATOM      1  C   UNL     1      -3.680   3.857  24.889  0.00  0.00    +0.074 C 
ATOM      2  S   UNL     1      -3.572   3.424  24.196  0.00  0.00    -0.113 S 
ENDBRANCH   3   2
ENDBRANCH   9   6
BRANCH  21  22
ATOM     22  C   UNL     1      -0.913   0.323  24.902  0.00  0.00    +0.097 C 
ATOM     23  C   UNL     1      -0.979   0.749  25.606  0.00  0.00    +0.022 C 
ATOM     24  C   UNL     1      -0.791   1.552  25.621  0.00  0.00    +0.002 C 
ATOM     25  C   UNL     1      -0.536   1.929  24.932  0.00  0.00    +0.000 C 
ATOM     26  C   UNL     1      -0.470   1.503  24.229  0.00  0.00    +0.002 C 
ATOM     27  C   UNL     1      -0.659   0.700  24.213  0.00  0.00    +0.022 C 
ENDBRANCH  21  22
TORSDOF 3
ENDMDL
MODEL 3
REMARK VINA RESULT:     -15.4      0.971      2.604
REMARK  Name = 
REMARK  3 active torsions:
REMARK  status: ('A' for Active; 'I' for Inactive)
REMARK    1  A    between atoms: S_2  and  C_3
REMARK    2  A    between atoms: C_6  and  C_9
REMARK    3  A    between atoms: N_21  and  C_22
REMARK                            x       y       z     vdW  Elec       q    Type
REMARK                         _______ _______ _______ _____ _____    ______ ____
ROOT
ATOM      9  C   UNL     1      -2.757   1.926  24.802  0.00  0.00    +0.056 A 
ATOM     10  C   UNL     1      -2.659   2.744  24.838  0.00  0.00    +0.006 A 
ATOM     11  C   UNL     1      -3.305   3.232  24.994  0.00  0.00    +0.013 A 
ATOM     12  C   UNL     1      -4.051   2.901  25.114  0.00  0.00    +0.041 A 
ATOM     13  C   UNL     1      -4.919   3.144  25.296  0.00  0.00    +0.058 C 
ATOM     14  C   UNL     1      -5.320   3.708  25.410  0.00  0.00    +0.011 C 
ATOM     15  C   UNL     1      -5.414   2.900  25.374  0.00  0.00    +0.043 C 
ATOM     16  C   UNL     1      -5.726   1.962  25.372  0.00  0.00    +0.097 C 
ATOM     17  N   UNL     1      -5.004   1.575  25.208  0.00  0.00    -0.262 N 
ATOM     18  C   UNL     1      -5.235   2.243  25.297  0.00  0.00    +0.101 C 
ATOM     19  C   UNL     1      -4.477   0.955  25.067  0.00  0.00    +0.323 C 
ATOM     20  O   UNL     1      -3.680   1.115  24.925  0.00  0.00    -0.251 OA
ATOM     21  N   UNL     1      -4.748   0.176  25.067  0.00  0.00    -0.190 NA
ATOM     28  C   UNL     1      -4.511   2.636  25.184  0.00  0.00    +0.110 C 
ATOM     29  N   UNL     1      -4.150   2.082  25.079  0.00  0.00    -0.299 N 
ATOM     30  C   UNL     1      -3.503   1.595  24.923  0.00  0.00    +0.261 A 
ATOM     31  O   UNL     1      -3.349   0.789  24.840  0.00  0.00    -0.267 OA
ENDROOT
BRANCH   9   6
ATOM      3  C   UNL     1      -0.815   0.466  24.333  0.00  0.00    +0.025 A 
ATOM      4  C   UNL     1      -1.008   0.656  25.112  0.00  0.00    +0.006 A 
ATOM      5  C   UNL     1      -1.657   1.144  25.269  0.00  0.00    +0.001 A 
ATOM      6  C   UNL     1      -2.110   1.439  24.647  0.00  0.00    +0.005 A 
ATOM      7  C   UNL     1      -1.916   1.248  23.868  0.00  0.00    +0.001 A 
ATOM      8  C   UNL     1      -1.269   0.761  23.711  0.00  0.00    +0.006 A 
BRANCH   3   2
ATOM      1  C   UNL     1       0.230   0.041  23.458  0.00  0.00    +0.074 C 
ATOM      2  S   UNL     1      -0.167  -0.022  24.177  0.00  0.00    -0.113 S 
ENDBRANCH   3   2
ENDBRANCH   9   6
BRANCH  21  22
ATOM     22  C   UNL     1      -4.222  -0.444  24.926  0.00  0.00    +0.097 C 
ATOM     23  C   UNL     1      -3.816  -0.792  25.554  0.00  0.00    +0.022 C 
ATOM     24  C   UNL     1      -3.290  -1.411  25.412  0.00  0.00    +0.002 C 
ATOM     25  C   UNL     1      -3.170  -1.683  24.642  0.00  0.00    +0.000 C 
ATOM     26  C   UNL     1      -3.577  -1.335  24.015  0.00  0.00    +0.002 C 
ATOM     27  C   UNL     1      -4.103  -0.716  24.155  0.00  0.00    +0.022 C 
ENDBRANCH  21  22
TORSDOF 3
ENDMDL
MODEL 4
REMARK VINA RESULT:     -15.3      1.739      4.212
REMARK  Name = 
REMARK  3 active torsions:
REMARK  status: ('A' for Active; 'I' for Inactive)
REMARK    1  A    between atoms: S_2  and  C_3
REMARK    2  A    between atoms: C_6  and  C_9
REMARK    3  A    between atoms: N_21  and  C_22
REMARK                            x       y       z     vdW  Elec       q    Type
REMARK                         _______ _______ _______ _____ _____    ______ ____
ROOT
ATOM      9  C   UNL     1      -1.686  -0.538  24.838  0.00  0.00    +0.056 A 
ATOM     10  C   UNL     1      -1.343  -1.271  24.998  0.00  0.00    +0.006 A 
ATOM     11  C   UNL     1      -1.782  -1.963  24.901  0.00  0.00    +0.013 A 
ATOM     12  C   UNL     1      -2.564  -1.921  24.644  0.00  0.00    +0.041 A 
ATOM     13  C   UNL     1      -3.280  -2.463  24.447  0.00  0.00    +0.058 C 
ATOM     14  C   UNL     1      -3.472  -3.138  24.429  0.00  0.00    +0.011 C 
ATOM     15  C   UNL     1      -3.808  -2.412  24.272  0.00  0.00    +0.043 C 
ATOM     16  C   UNL     1      -4.382  -1.644  24.035  0.00  0.00    +0.097 C 
ATOM     17  N   UNL     1      -3.843  -1.020  24.169  0.00  0.00    -0.262 N 
ATOM     18  C   UNL     1      -3.848  -1.731  24.214  0.00  0.00    +0.101 C 
ATOM     19  C   UNL     1      -3.555  -0.248  24.211  0.00  0.00    +0.323 C 
ATOM     20  O   UNL     1      -2.778  -0.110  24.454  0.00  0.00    -0.251 OA
ATOM     21  N   UNL     1      -4.043   0.386  24.011  0.00  0.00    -0.190 NA
ATOM     28  C   UNL     1      -3.065  -1.839  24.476  0.00  0.00    +0.110 C 
ATOM     29  N   UNL     1      -2.908  -1.188  24.484  0.00  0.00    -0.299 N 
ATOM     30  C   UNL     1      -2.469  -0.497  24.581  0.00  0.00    +0.261 A 
ATOM     31  O   UNL     1      -2.577   0.316  24.492  0.00  0.00    -0.267 OA
ENDROOT
BRANCH   9   6
ATOM      3  C   UNL     1      -0.367   1.535  25.131  0.00  0.00    +0.025 A 
ATOM      4  C   UNL     1      -0.362   1.143  24.406  0.00  0.00    +0.006 A 
ATOM      5  C   UNL     1      -0.802   0.451  24.308  0.00  0.00    +0.001 A 
ATOM      6  C   UNL     1      -1.246   0.153  24.935  0.00  0.00    +0.005 A 
ATOM      7  C   UNL     1      -1.251   0.545  25.661  0.00  0.00    +0.001 A 
ATOM      8  C   UNL     1      -0.812   1.237  25.759  0.00  0.00    +0.006 A 
BRANCH   3   2
ATOM      1  C   UNL     1       0.071   2.616  25.956  0.00  0.00    +0.074 C 
ATOM      2  S   UNL     1       0.073   2.227  25.229  0.00  0.00    -0.113 S 
ENDBRANCH   3   2
ENDBRANCH   9   6
BRANCH  21  22
ATOM     22  C   UNL     1      -3.755   1.158  24.053  0.00  0.00    +0.097 C 
ATOM     23  C   UNL     1      -3.382   1.496  23.399  0.00  0.00    +0.022 C 
ATOM     24  C   UNL     1      -3.095   2.268  23.442  0.00  0.00    +0.002 C 
ATOM     25  C   UNL     1      -3.180   2.703  24.139  0.00  0.00    +0.000 C 
ATOM     26  C   UNL     1      -3.553   2.364  24.792  0.00  0.00    +0.002 C 
ATOM     27  C   UNL     1      -3.841   1.593  24.750  0.00  0.00    +0.022 C 
ENDBRANCH  21  22
TORSDOF 3
ENDMDL
MODEL 5
REMARK VINA RESULT:     -15.0      1.468      2.603
REMARK  Name = 
REMARK  3 active torsions:
REMARK  status: ('A' for Active; 'I' for Inactive)
REMARK    1  A    between atoms: S_2  and  C_3
REMARK    2  A    between atoms: C_6  and  C_9
REMARK    3  A    between atoms: N_21  and  C_22
REMARK                            x       y       z     vdW  Elec       q    Type
REMARK                         _______ _______ _______ _____ _____    ______ ____
ROOT
ATOM      9  C   UNL     1      -3.292   1.240  24.572  0.00  0.00    +0.056 A 
ATOM     10  C   UNL     1      -3.829   0.637  24.405  0.00  0.00    +0.006 A 
ATOM     11  C   UNL     1      -4.633   0.747  24.553  0.00  0.00    +0.013 A 
ATOM     12  C   UNL     1      -4.900   1.461  24.868  0.00  0.00    +0.041 A 
ATOM     13  C   UNL     1      -5.674   1.880  25.132  0.00  0.00    +0.058 C 
ATOM     14  C   UNL     1      -6.367   1.776  25.182  0.00  0.00    +0.011 C 
ATOM     15  C   UNL     1      -5.834   2.370  25.345  0.00  0.00    +0.043 C 
ATOM     16  C   UNL     1      -5.354   3.194  25.605  0.00  0.00    +0.097 C 
ATOM     17  N   UNL     1      -4.573   2.967  25.414  0.00  0.00    -0.262 N 
ATOM     18  C   UNL     1      -5.225   2.683  25.388  0.00  0.00    +0.101 C 
ATOM     19  C   UNL     1      -3.754   3.024  25.330  0.00  0.00    +0.323 C 
ATOM     20  O   UNL     1      -3.325   2.388  25.025  0.00  0.00    -0.251 OA
ATOM     21  N   UNL     1      -3.364   3.717  25.550  0.00  0.00    -0.190 NA
ATOM     28  C   UNL     1      -5.020   1.941  25.071  0.00  0.00    +0.110 C 
ATOM     29  N   UNL     1      -4.363   2.065  25.034  0.00  0.00    -0.299 N 
ATOM     30  C   UNL     1      -3.559   1.955  24.886  0.00  0.00    +0.261 A 
ATOM     31  O   UNL     1      -2.858   2.382  24.962  0.00  0.00    -0.267 OA
ENDROOT
BRANCH   9   6
ATOM      3  C   UNL     1      -0.881   0.907  24.125  0.00  0.00    +0.025 A 
ATOM      4  C   UNL     1      -1.197   0.695  24.857  0.00  0.00    +0.006 A 
ATOM      5  C   UNL     1      -2.002   0.807  25.006  0.00  0.00    +0.001 A 
ATOM      6  C   UNL     1      -2.489   1.129  24.423  0.00  0.00    +0.005 A 
ATOM      7  C   UNL     1      -2.172   1.341  23.692  0.00  0.00    +0.001 A 
ATOM      8  C   UNL     1      -1.368   1.230  23.542  0.00  0.00    +0.006 A 
BRANCH   3   2
ATOM      1  C   UNL     1       0.178   0.125  23.570  0.00  0.00    +0.074 C 
ATOM      2  S   UNL     1      -0.077   0.796  23.976  0.00  0.00    -0.113 S 
ENDBRANCH   3   2
ENDBRANCH   9   6
BRANCH  21  22
ATOM     22  C   UNL     1      -2.545   3.774  25.465  0.00  0.00    +0.097 C 
ATOM     23  C   UNL     1      -2.049   3.523  26.075  0.00  0.00    +0.022 C 
ATOM     24  C   UNL     1      -1.230   3.580  25.990  0.00  0.00    +0.002 C 
ATOM     25  C   UNL     1      -0.908   3.888  25.296  0.00  0.00    +0.000 C 
ATOM     26  C   UNL     1      -1.404   4.139  24.687  0.00  0.00    +0.002 C 
ATOM     27  C   UNL     1      -2.222   4.082  24.771  0.00  0.00    +0.022 C 
ENDBRANCH  21  22
TORSDOF 3
ENDMDL
