MODEL 1
REMARK VINA RESULT:     -12.8      0.000      0.000
REMARK  Name = 
REMARK  4 active torsions:
REMARK  status: ('A' for Active; 'I' for Inactive)
REMARK    1  A    between atoms: N_5  and  C_8
REMARK    2  A    between atoms: C_14  and  N_15
REMARK    3  A    between atoms: N_18  and  C_19
REMARK    4  A    between atoms: C_21  and  C_25
REMARK                            x       y       z     vdW  Elec       q    Type
REMARK                         _______ _______ _______ _____ _____    ______ ____
ROOT
ATOM      8  C   UNL     1      -0.942   2.028  25.125  0.00  0.00    +0.147 C 
ATOM      9  C   UNL     1      -0.420   2.456  25.822  0.00  0.00    +0.253 C 
ATOM     10  O   UNL     1      -0.404   3.319  26.005  0.00  0.00    -0.327 OA
ATOM     11  C   UNL     1      -0.598   2.711  25.660  0.00  0.00    +0.176 C 
ATOM     12  C   UNL     1      -0.508   1.939  25.621  0.00  0.00    +0.170 C 
ATOM     13  O   UNL     1      -0.044   1.794  26.141  0.00  0.00    -0.327 OA
ATOM     14  C   UNL     1      -1.002   1.517  24.957  0.00  0.00    +0.158 C 
ATOM     29  C   UNL     1      -1.379   2.183  24.639  0.00  0.00    +0.194 C 
ATOM     30  O   UNL     1      -1.865   2.637  24.151  0.00  0.00    -0.220 OA
ENDROOT
BRANCH   8   5
ATOM      1  C   UNL     1      -1.487   5.283  25.096  0.00  0.00    +0.090 C 
ATOM      2  N   UNL     1      -1.351   4.469  25.104  0.00  0.00    -0.269 NA
ATOM      3  C   UNL     1      -0.755   4.147  24.634  0.00  0.00    +0.090 C 
ATOM      4  C   UNL     1      -0.619   3.333  24.641  0.00  0.00    +0.090 C 
ATOM      5  N   UNL     1      -1.079   2.842  25.118  0.00  0.00    -0.265 NA
ATOM      6  C   UNL     1      -1.675   3.165  25.588  0.00  0.00    +0.090 C 
ATOM      7  C   UNL     1      -1.811   3.978  25.581  0.00  0.00    +0.090 C 
ENDBRANCH   8   5
BRANCH  14  15
ATOM     15  N   UNL     1      -1.052   0.719  24.748  0.00  0.00    -0.183 NA
ATOM     16  C   UNL     1      -1.722   0.281  24.946  0.00  0.00    +0.344 C 
ATOM     17  O   UNL     1      -2.343   0.640  25.354  0.00  0.00    -0.249 OA
ATOM     18  N   UNL     1      -1.771  -0.515  24.738  0.00  0.00    -0.161 NA
BRANCH  18  19
ATOM     19  C   UNL     1      -2.441  -0.953  24.936  0.00  0.00    +0.075 A 
ATOM     20  C   UNL     1      -2.935  -1.243  24.343  0.00  0.00    +0.021 A 
ATOM     21  C   UNL     1      -3.606  -1.682  24.541  0.00  0.00    +0.073 A 
ATOM     22  C   UNL     1      -3.781  -1.829  25.334  0.00  0.00    +0.004 A 
ATOM     23  C   UNL     1      -3.287  -1.540  25.928  0.00  0.00    +0.001 A 
ATOM     24  C   UNL     1      -2.617  -1.101  25.728  0.00  0.00    +0.017 A 
BRANCH  21  25
ATOM     25  C   UNL     1      -4.100  -1.972  23.948  0.00  0.00    +0.419 C 
ATOM     26  F   UNL     1      -4.594  -2.261  23.354  0.00  0.00    -0.166 F 
ATOM     27  F   UNL     1      -3.736  -2.709  24.006  0.00  0.00    -0.166 F 
ATOM     28  F   UNL     1      -4.464  -1.233  23.891  0.00  0.00    -0.166 F 
ENDBRANCH  21  25
ENDBRANCH  18  19
ENDBRANCH  14  15
TORSDOF 4
ENDMDL
MODEL 2
REMARK VINA RESULT:     -12.6      1.676      2.345
REMARK  Name = 
REMARK  4 active torsions:
REMARK  status: ('A' for Active; 'I' for Inactive)
REMARK    1  A    between atoms: N_5  and  C_8
REMARK    2  A    between atoms: C_14  and  N_15
REMARK    3  A    between atoms: N_18  and  C_19
REMARK    4  A    between atoms: C_21  and  C_25
REMARK                            x       y       z     vdW  Elec       q    Type
REMARK                         _______ _______ _______ _____ _____    ______ ____
ROOT
ATOM      8  C   UNL     1      -3.428   2.536  24.931  0.00  0.00    +0.147 C 
ATOM      9  C   UNL     1      -3.642   3.294  24.363  0.00  0.00    +0.253 C 
ATOM     10  O   UNL     1      -3.129   3.998  24.220  0.00  0.00    -0.327 OA
ATOM     11  C   UNL     1      -3.325   3.356  24.497  0.00  0.00    +0.176 C 
ATOM     12  C   UNL     1      -3.878   2.810  24.524  0.00  0.00    +0.170 C 
ATOM     13  O   UNL     1      -4.389   3.064  24.097  0.00  0.00    -0.327 OA
ATOM     14  C   UNL     1      -3.687   2.079  25.064  0.00  0.00    +0.158 C 
ATOM     29  C   UNL     1      -2.937   2.312  25.330  0.00  0.00    +0.194 C 
ATOM     30  O   UNL     1      -2.217   2.289  25.732  0.00  0.00    -0.220 OA
ENDROOT
BRANCH   8   5
ATOM      1  C   UNL     1      -0.943   4.706  24.976  0.00  0.00    +0.090 C 
ATOM      2  N   UNL     1      -1.565   4.164  24.965  0.00  0.00    -0.269 NA
ATOM      3  C   UNL     1      -1.567   3.552  24.413  0.00  0.00    +0.090 C 
ATOM      4  C   UNL     1      -2.188   3.009  24.401  0.00  0.00    +0.090 C 
ATOM      5  N   UNL     1      -2.807   3.079  24.942  0.00  0.00    -0.265 NA
ATOM      6  C   UNL     1      -2.804   3.691  25.495  0.00  0.00    +0.090 C 
ATOM      7  C   UNL     1      -2.183   4.234  25.507  0.00  0.00    +0.090 C 
ENDBRANCH   8   5
BRANCH  14  15
ATOM     15  N   UNL     1      -4.129   1.402  25.230  0.00  0.00    -0.183 NA
ATOM     16  C   UNL     1      -3.926   0.681  24.883  0.00  0.00    +0.344 C 
ATOM     17  O   UNL     1      -3.281   0.637  24.371  0.00  0.00    -0.249 OA
ATOM     18  N   UNL     1      -4.368   0.005  25.048  0.00  0.00    -0.161 NA
BRANCH  18  19
ATOM     19  C   UNL     1      -4.166  -0.716  24.702  0.00  0.00    +0.075 A 
ATOM     20  C   UNL     1      -3.699  -1.255  25.116  0.00  0.00    +0.021 A 
ATOM     21  C   UNL     1      -3.496  -1.977  24.769  0.00  0.00    +0.073 A 
ATOM     22  C   UNL     1      -3.760  -2.157  24.009  0.00  0.00    +0.004 A 
ATOM     23  C   UNL     1      -4.227  -1.617  23.594  0.00  0.00    +0.001 A 
ATOM     24  C   UNL     1      -4.429  -0.896  23.941  0.00  0.00    +0.017 A 
BRANCH  21  25
ATOM     25  C   UNL     1      -3.030  -2.517  25.182  0.00  0.00    +0.419 C 
ATOM     26  F   UNL     1      -2.564  -3.057  25.597  0.00  0.00    -0.166 F 
ATOM     27  F   UNL     1      -2.370  -2.278  24.750  0.00  0.00    -0.166 F 
ATOM     28  F   UNL     1      -3.691  -2.756  25.616  0.00  0.00    -0.166 F 
ENDBRANCH  21  25
ENDBRANCH  18  19
ENDBRANCH  14  15
TORSDOF 4
ENDMDL
MODEL 3
REMARK VINA RESULT:     -12.3      2.924      5.418
REMARK  Name = 
REMARK  4 active torsions:
REMARK  status: ('A' for Active; 'I' for Inactive)
REMARK    1  A    between atoms: N_5  and  C_8
REMARK    2  A    between atoms: C_14  and  N_15
REMARK    3  A    between atoms: N_18  and  C_19
REMARK    4  A    between atoms: C_21  and  C_25
REMARK                            x       y       z     vdW  Elec       q    Type
REMARK                         _______ _______ _______ _____ _____    ______ ____
ROOT
ATOM      8  C   UNL     1      -3.738   0.478  24.438  0.00  0.00    +0.147 C 
ATOM      9  C   UNL     1      -4.450  -0.031  24.859  0.00  0.00    +0.253 C 
ATOM     10  O   UNL     1      -4.433  -0.893  25.046  0.00  0.00    -0.327 OA
ATOM     11  C   UNL     1      -4.189  -0.256  24.798  0.00  0.00    +0.176 C 
ATOM     12  C   UNL     1      -4.350   0.498  24.697  0.00  0.00    +0.170 C 
ATOM     13  O   UNL     1      -5.007   0.569  24.963  0.00  0.00    -0.327 OA
ATOM     14  C   UNL     1      -3.677   0.996  24.295  0.00  0.00    +0.158 C 
ATOM     29  C   UNL     1      -3.119   0.393  24.192  0.00  0.00    +0.194 C 
ATOM     30  O   UNL     1      -2.418   0.016  23.975  0.00  0.00    -0.220 OA
ENDROOT
BRANCH   8   5
ATOM      1  C   UNL     1      -2.825  -2.678  24.758  0.00  0.00    +0.090 C 
ATOM      2  N   UNL     1      -3.053  -1.889  24.677  0.00  0.00    -0.269 NA
ATOM      3  C   UNL     1      -2.852  -1.341  25.259  0.00  0.00    +0.090 C 
ATOM      4  C   UNL     1      -3.080  -0.552  25.180  0.00  0.00    +0.090 C 
ATOM      5  N   UNL     1      -3.510  -0.311  24.518  0.00  0.00    -0.265 NA
ATOM      6  C   UNL     1      -3.711  -0.860  23.935  0.00  0.00    +0.090 C 
ATOM      7  C   UNL     1      -3.483  -1.649  24.015  0.00  0.00    +0.090 C 
ENDBRANCH   8   5
BRANCH  14  15
ATOM     15  N   UNL     1      -3.644   1.798  24.101  0.00  0.00    -0.183 NA
ATOM     16  C   UNL     1      -3.285   2.334  24.615  0.00  0.00    +0.344 C 
ATOM     17  O   UNL     1      -2.958   2.068  25.324  0.00  0.00    -0.249 OA
ATOM     18  N   UNL     1      -3.252   3.134  24.421  0.00  0.00    -0.161 NA
BRANCH  18  19
ATOM     19  C   UNL     1      -2.893   3.670  24.935  0.00  0.00    +0.075 A 
ATOM     20  C   UNL     1      -2.174   4.018  24.731  0.00  0.00    +0.021 A 
ATOM     21  C   UNL     1      -1.814   4.554  25.246  0.00  0.00    +0.073 A 
ATOM     22  C   UNL     1      -2.175   4.740  25.964  0.00  0.00    +0.004 A 
ATOM     23  C   UNL     1      -2.894   4.392  26.168  0.00  0.00    +0.001 A 
ATOM     24  C   UNL     1      -3.253   3.857  25.653  0.00  0.00    +0.017 A 
BRANCH  21  25
ATOM     25  C   UNL     1      -1.095   4.902  25.043  0.00  0.00    +0.419 C 
ATOM     26  F   UNL     1      -0.375   5.251  24.839  0.00  0.00    -0.166 F 
ATOM     27  F   UNL     1      -0.702   4.205  25.239  0.00  0.00    -0.166 F 
ATOM     28  F   UNL     1      -1.489   5.601  24.846  0.00  0.00    -0.166 F 
ENDBRANCH  21  25
ENDBRANCH  18  19
ENDBRANCH  14  15
TORSDOF 4
ENDMDL
MODEL 4
REMARK VINA RESULT:     -11.7      2.689      5.173
REMARK  Name = 
REMARK  4 active torsions:
REMARK  status: ('A' for Active; 'I' for Inactive)
REMARK    1  A    between atoms: N_5  and  C_8
REMARK    2  A    between atoms: C_14  and  N_15
REMARK    3  A    between atoms: N_18  and  C_19
REMARK    4  A    between atoms: C_21  and  C_25
REMARK                            x       y       z     vdW  Elec       q    Type
REMARK                         _______ _______ _______ _____ _____    ______ ____
ROOT
ATOM      8  C   UNL     1      -1.045  -0.067  25.085  0.00  0.00    +0.147 C 
ATOM      9  C   UNL     1      -0.659  -0.506  24.309  0.00  0.00    +0.253 C 
ATOM     10  O   UNL     1      -0.935  -1.264  23.950  0.00  0.00    -0.327 OA
ATOM     11  C   UNL     1      -0.926  -0.707  24.416  0.00  0.00    +0.176 C 
ATOM     12  C   UNL     1      -0.574  -0.043  24.616  0.00  0.00    +0.170 C 
ATOM     13  O   UNL     1      -0.053   0.026  24.134  0.00  0.00    -0.327 OA
ATOM     14  C   UNL     1      -0.933   0.388  25.356  0.00  0.00    +0.158 C 
ATOM     29  C   UNL     1      -1.541  -0.147  25.530  0.00  0.00    +0.194 C 
ATOM     30  O   UNL     1      -2.188  -0.484  25.915  0.00  0.00    -0.220 OA
ENDROOT
BRANCH   8   5
ATOM      1  C   UNL     1      -2.701  -2.846  24.433  0.00  0.00    +0.090 C 
ATOM      2  N   UNL     1      -2.287  -2.151  24.596  0.00  0.00    -0.269 NA
ATOM      3  C   UNL     1      -2.574  -1.428  24.325  0.00  0.00    +0.090 C 
ATOM      4  C   UNL     1      -2.160  -0.733  24.488  0.00  0.00    +0.090 C 
ATOM      5  N   UNL     1      -1.459  -0.762  24.922  0.00  0.00    -0.265 NA
ATOM      6  C   UNL     1      -1.172  -1.486  25.193  0.00  0.00    +0.090 C 
ATOM      7  C   UNL     1      -1.586  -2.181  25.030  0.00  0.00    +0.090 C 
ENDBRANCH   8   5
BRANCH  14  15
ATOM     15  N   UNL     1      -0.713   1.092  25.728  0.00  0.00    -0.183 NA
ATOM     16  C   UNL     1      -1.106   1.794  25.548  0.00  0.00    +0.344 C 
ATOM     17  O   UNL     1      -1.720   1.794  24.996  0.00  0.00    -0.249 OA
ATOM     18  N   UNL     1      -0.887   2.497  25.919  0.00  0.00    -0.161 NA
BRANCH  18  19
ATOM     19  C   UNL     1      -1.280   3.199  25.740  0.00  0.00    +0.075 A 
ATOM     20  C   UNL     1      -0.875   3.818  25.375  0.00  0.00    +0.021 A 
ATOM     21  C   UNL     1      -1.269   4.521  25.195  0.00  0.00    +0.073 A 
ATOM     22  C   UNL     1      -2.068   4.604  25.381  0.00  0.00    +0.004 A 
ATOM     23  C   UNL     1      -2.474   3.985  25.746  0.00  0.00    +0.001 A 
ATOM     24  C   UNL     1      -2.080   3.283  25.925  0.00  0.00    +0.017 A 
BRANCH  21  25
ATOM     25  C   UNL     1      -0.863   5.139  24.831  0.00  0.00    +0.419 C 
ATOM     26  F   UNL     1      -0.458   5.759  24.466  0.00  0.00    -0.166 F 
ATOM     27  F   UNL     1      -0.503   4.602  24.320  0.00  0.00    -0.166 F 
ATOM     28  F   UNL     1      -1.224   5.678  25.342  0.00  0.00    -0.166 F 
ENDBRANCH  21  25
ENDBRANCH  18  19
ENDBRANCH  14  15
TORSDOF 4
ENDMDL
