MODEL 1
REMARK VINA RESULT:     -10.1      0.000      0.000
REMARK  Name = 
REMARK  5 active torsions:
REMARK  status: ('A' for Active; 'I' for Inactive)
REMARK    1  A    between atoms: C_1  and  N_2
REMARK    2  A    between atoms: C_1  and  C_24
REMARK    3  A    between atoms: C_6  and  C_7
REMARK    4  A    between atoms: C_9  and  C_12
REMARK    5  A    between atoms: C_15  and  C_18
REMARK                            x       y       z     vdW  Elec       q    Type
REMARK                         _______ _______ _______ _____ _____    ______ ____
ROOT
ATOM      7  C   UNL     1      -4.027   2.836  25.179  0.00  0.00    +0.251 A 
ATOM      8  N   UNL     1      -3.778   2.056  25.281  0.00  0.00    -0.190 NA
ATOM      9  C   UNL     1      -4.162   1.590  24.719  0.00  0.00    +0.205 A 
ATOM     10  N   UNL     1      -4.648   2.081  24.270  0.00  0.00    -0.056 NA
ATOM     11  O   UNL     1      -4.565   2.852  24.554  0.00  0.00    -0.336 OA
ENDROOT
BRANCH   9  12
ATOM     12  C   UNL     1      -4.074   0.775  24.624  0.00  0.00    +0.058 A 
ATOM     13  C   UNL     1      -4.409   0.258  25.172  0.00  0.00    +0.006 A 
ATOM     14  C   UNL     1      -4.322  -0.557  25.076  0.00  0.00    +0.019 A 
ATOM     15  C   UNL     1      -3.899  -0.854  24.433  0.00  0.00    +0.084 A 
ATOM     16  N   UNL     1      -3.564  -0.337  23.885  0.00  0.00    -0.244 NA
ATOM     17  C   UNL     1      -3.652   0.478  23.980  0.00  0.00    +0.102 A 
BRANCH  15  18
ATOM     18  C   UNL     1      -3.812  -1.670  24.338  0.00  0.00    +0.056 A 
ATOM     19  C   UNL     1      -3.223  -2.072  24.752  0.00  0.00    +0.104 A 
ATOM     20  N   UNL     1      -3.135  -2.887  24.656  0.00  0.00    -0.222 NA
ATOM     21  C   UNL     1      -3.637  -3.299  24.147  0.00  0.00    +0.199 A 
ATOM     22  N   UNL     1      -4.226  -2.896  23.733  0.00  0.00    -0.222 NA
ATOM     23  C   UNL     1      -4.313  -2.081  23.828  0.00  0.00    +0.104 A 
ENDBRANCH  15  18
ENDBRANCH   9  12
BRANCH   7   6
ATOM      2  N   UNL     1      -3.132   3.969  25.459  0.00  0.00    -0.261 NA
ATOM      3  C   UNL     1      -3.091   4.548  26.044  0.00  0.00    +0.073 C 
ATOM      4  C   UNL     1      -3.715   4.424  26.570  0.00  0.00    +0.019 C 
ATOM      5  C   UNL     1      -4.142   3.768  26.310  0.00  0.00    +0.027 C 
ATOM      6  C   UNL     1      -3.782   3.486  25.623  0.00  0.00    +0.138 C 
BRANCH   2   1
ATOM      1  C   UNL     1      -2.615   3.885  24.822  0.00  0.00    +0.119 C 
BRANCH   1  24
ATOM     24  C   UNL     1      -1.843   4.168  24.878  0.00  0.00    +0.075 A 
ATOM     25  N   UNL     1      -1.228   3.653  25.069  0.00  0.00    -0.247 NA
ATOM     26  C   UNL     1      -0.454   3.936  25.126  0.00  0.00    +0.098 A 
ATOM     27  C   UNL     1      -0.297   4.735  24.990  0.00  0.00    +0.021 A 
ATOM     28  C   UNL     1      -0.913   5.250  24.798  0.00  0.00    +0.003 A 
ATOM     29  C   UNL     1      -1.685   4.967  24.742  0.00  0.00    +0.016 A 
ENDBRANCH   1  24
ENDBRANCH   2   1
ENDBRANCH   7   6
TORSDOF 5
ENDMDL
MODEL 2
REMARK VINA RESULT:      -9.6      1.985      6.254
REMARK  Name = 
REMARK  5 active torsions:
REMARK  status: ('A' for Active; 'I' for Inactive)
REMARK    1  A    between atoms: C_1  and  N_2
REMARK    2  A    between atoms: C_1  and  C_24
REMARK    3  A    between atoms: C_6  and  C_7
REMARK    4  A    between atoms: C_9  and  C_12
REMARK    5  A    between atoms: C_15  and  C_18
REMARK                            x       y       z     vdW  Elec       q    Type
REMARK                         _______ _______ _______ _____ _____    ______ ____
ROOT
ATOM      7  C   UNL     1      -1.098  -0.497  25.336  0.00  0.00    +0.251 A 
ATOM      8  N   UNL     1      -1.147   0.248  24.985  0.00  0.00    -0.190 NA
ATOM      9  C   UNL     1      -1.112   0.815  25.583  0.00  0.00    +0.205 A 
ATOM     10  N   UNL     1      -1.042   0.420  26.304  0.00  0.00    -0.056 NA
ATOM     11  O   UNL     1      -1.033  -0.390  26.151  0.00  0.00    -0.336 OA
ENDROOT
BRANCH   9  12
ATOM     12  C   UNL     1      -1.142   1.633  25.479  0.00  0.00    +0.058 A 
ATOM     13  C   UNL     1      -0.617   2.120  25.888  0.00  0.00    +0.006 A 
ATOM     14  C   UNL     1      -0.648   2.938  25.784  0.00  0.00    +0.019 A 
ATOM     15  C   UNL     1      -1.203   3.268  25.270  0.00  0.00    +0.084 A 
ATOM     16  N   UNL     1      -1.727   2.781  24.861  0.00  0.00    -0.244 NA
ATOM     17  C   UNL     1      -1.697   1.963  24.965  0.00  0.00    +0.102 A 
BRANCH  15  18
ATOM     18  C   UNL     1      -1.233   4.087  25.166  0.00  0.00    +0.056 A 
ATOM     19  C   UNL     1      -0.605   4.479  24.801  0.00  0.00    +0.104 A 
ATOM     20  N   UNL     1      -0.636   5.297  24.697  0.00  0.00    -0.222 NA
ATOM     21  C   UNL     1      -1.293   5.722  24.957  0.00  0.00    +0.199 A 
ATOM     22  N   UNL     1      -1.920   5.329  25.322  0.00  0.00    -0.222 NA
ATOM     23  C   UNL     1      -1.890   4.512  25.426  0.00  0.00    +0.104 A 
ENDBRANCH  15  18
ENDBRANCH   9  12
BRANCH   7   6
ATOM      2  N   UNL     1      -1.778  -1.693  24.817  0.00  0.00    -0.261 NA
ATOM      3  C   UNL     1      -1.540  -2.364  24.400  0.00  0.00    +0.073 C 
ATOM      4  C   UNL     1      -0.728  -2.307  24.267  0.00  0.00    +0.019 C 
ATOM      5  C   UNL     1      -0.463  -1.600  24.601  0.00  0.00    +0.027 C 
ATOM      6  C   UNL     1      -1.112  -1.221  24.941  0.00  0.00    +0.138 C 
BRANCH   2   1
ATOM      1  C   UNL     1      -2.546  -1.523  25.067  0.00  0.00    +0.119 C 
BRANCH   1  24
ATOM     24  C   UNL     1      -3.190  -1.838  24.659  0.00  0.00    +0.075 A 
ATOM     25  N   UNL     1      -3.381  -2.636  24.743  0.00  0.00    -0.247 NA
ATOM     26  C   UNL     1      -4.026  -2.951  24.335  0.00  0.00    +0.098 A 
ATOM     27  C   UNL     1      -4.479  -2.467  23.845  0.00  0.00    +0.021 A 
ATOM     28  C   UNL     1      -4.289  -1.669  23.761  0.00  0.00    +0.003 A 
ATOM     29  C   UNL     1      -3.644  -1.355  24.169  0.00  0.00    +0.016 A 
ENDBRANCH   1  24
ENDBRANCH   2   1
ENDBRANCH   7   6
TORSDOF 5
ENDMDL
MODEL 3
REMARK VINA RESULT:      -9.1      1.805      2.592
REMARK  Name = 
REMARK  5 active torsions:
REMARK  status: ('A' for Active; 'I' for Inactive)
REMARK    1  A    between atoms: C_1  and  N_2
REMARK    2  A    between atoms: C_1  and  C_24
REMARK    3  A    between atoms: C_6  and  C_7
REMARK    4  A    between atoms: C_9  and  C_12
REMARK    5  A    between atoms: C_15  and  C_18
REMARK                            x       y       z     vdW  Elec       q    Type
REMARK                         _______ _______ _______ _____ _____    ______ ____
ROOT
ATOM      7  C   UNL     1      -0.421   1.489  25.278  0.00  0.00    +0.251 A 
ATOM      8  N   UNL     1      -1.070   0.989  25.379  0.00  0.00    -0.190 NA
ATOM      9  C   UNL     1      -1.074   0.448  24.756  0.00  0.00    +0.205 A 
ATOM     10  N   UNL     1      -0.429   0.614  24.270  0.00  0.00    -0.056 NA
ATOM     11  O   UNL     1      -0.026   1.257  24.593  0.00  0.00    -0.336 OA
ENDROOT
BRANCH   9  12
ATOM     12  C   UNL     1      -1.628  -0.153  24.639  0.00  0.00    +0.058 A 
ATOM     13  C   UNL     1      -2.430   0.030  24.586  0.00  0.00    +0.006 A 
ATOM     14  C   UNL     1      -2.984  -0.571  24.470  0.00  0.00    +0.019 A 
ATOM     15  C   UNL     1      -2.734  -1.355  24.406  0.00  0.00    +0.084 A 
ATOM     16  N   UNL     1      -1.932  -1.538  24.460  0.00  0.00    -0.244 NA
ATOM     17  C   UNL     1      -1.378  -0.937  24.576  0.00  0.00    +0.102 A 
BRANCH  15  18
ATOM     18  C   UNL     1      -3.287  -1.956  24.290  0.00  0.00    +0.056 A 
ATOM     19  C   UNL     1      -3.172  -2.695  24.638  0.00  0.00    +0.104 A 
ATOM     20  N   UNL     1      -3.726  -3.296  24.521  0.00  0.00    -0.222 NA
ATOM     21  C   UNL     1      -4.393  -3.158  24.057  0.00  0.00    +0.199 A 
ATOM     22  N   UNL     1      -4.508  -2.418  23.709  0.00  0.00    -0.222 NA
ATOM     23  C   UNL     1      -3.955  -1.817  23.826  0.00  0.00    +0.104 A 
ENDBRANCH  15  18
ENDBRANCH   9  12
BRANCH   7   6
ATOM      2  N   UNL     1      -0.373   2.910  25.651  0.00  0.00    -0.261 NA
ATOM      3  C   UNL     1      -0.058   3.337  26.283  0.00  0.00    +0.073 C 
ATOM      4  C   UNL     1       0.303   2.802  26.797  0.00  0.00    +0.019 C 
ATOM      5  C   UNL     1       0.211   2.044  26.483  0.00  0.00    +0.027 C 
ATOM      6  C   UNL     1      -0.207   2.111  25.775  0.00  0.00    +0.138 C 
BRANCH   2   1
ATOM      1  C   UNL     1      -0.783   3.226  25.009  0.00  0.00    +0.119 C 
BRANCH   1  24
ATOM     24  C   UNL     1      -1.146   3.964  25.074  0.00  0.00    +0.075 A 
ATOM     25  N   UNL     1      -1.906   4.023  25.389  0.00  0.00    -0.247 NA
ATOM     26  C   UNL     1      -2.270   4.761  25.454  0.00  0.00    +0.098 A 
ATOM     27  C   UNL     1      -1.873   5.439  25.204  0.00  0.00    +0.021 A 
ATOM     28  C   UNL     1      -1.112   5.380  24.889  0.00  0.00    +0.003 A 
ATOM     29  C   UNL     1      -0.749   4.643  24.824  0.00  0.00    +0.016 A 
ENDBRANCH   1  24
ENDBRANCH   2   1
ENDBRANCH   7   6
TORSDOF 5
ENDMDL
MODEL 4
REMARK VINA RESULT:      -9.1      3.264      4.686
REMARK  Name = 
REMARK  5 active torsions:
REMARK  status: ('A' for Active; 'I' for Inactive)
REMARK    1  A    between atoms: C_1  and  N_2
REMARK    2  A    between atoms: C_1  and  C_24
REMARK    3  A    between atoms: C_6  and  C_7
REMARK    4  A    between atoms: C_9  and  C_12
REMARK    5  A    between atoms: C_15  and  C_18
REMARK                            x       y       z     vdW  Elec       q    Type
REMARK                         _______ _______ _______ _____ _____    ______ ____
ROOT
ATOM      7  C   UNL     1      -2.539   0.148  24.898  0.00  0.00    +0.251 A 
ATOM      8  N   UNL     1      -1.994   0.216  24.282  0.00  0.00    -0.190 NA
ATOM      9  C   UNL     1      -1.241   0.092  24.593  0.00  0.00    +0.205 A 
ATOM     10  N   UNL     1      -1.319  -0.054  25.401  0.00  0.00    -0.056 NA
ATOM     11  O   UNL     1      -2.122  -0.019  25.589  0.00  0.00    -0.336 OA
ENDROOT
BRANCH   9  12
ATOM     12  C   UNL     1      -0.532   0.110  24.170  0.00  0.00    +0.058 A 
ATOM     13  C   UNL     1      -0.209   0.833  23.938  0.00  0.00    +0.006 A 
ATOM     14  C   UNL     1       0.500   0.851  23.516  0.00  0.00    +0.019 A 
ATOM     15  C   UNL     1       0.884   0.147  23.325  0.00  0.00    +0.084 A 
ATOM     16  N   UNL     1       0.561  -0.576  23.557  0.00  0.00    -0.244 NA
ATOM     17  C   UNL     1      -0.147  -0.594  23.980  0.00  0.00    +0.102 A 
BRANCH  15  18
ATOM     18  C   UNL     1       1.593   0.165  22.902  0.00  0.00    +0.056 A 
ATOM     19  C   UNL     1       2.251   0.551  23.217  0.00  0.00    +0.104 A 
ATOM     20  N   UNL     1       2.959   0.569  22.794  0.00  0.00    -0.222 NA
ATOM     21  C   UNL     1       3.009   0.201  22.057  0.00  0.00    +0.199 A 
ATOM     22  N   UNL     1       2.351  -0.185  21.743  0.00  0.00    -0.222 NA
ATOM     23  C   UNL     1       1.643  -0.203  22.166  0.00  0.00    +0.104 A 
ENDBRANCH  15  18
ENDBRANCH   9  12
BRANCH   7   6
ATOM      2  N   UNL     1      -3.778   0.939  24.884  0.00  0.00    -0.261 NA
ATOM      3  C   UNL     1      -4.579   0.767  24.788  0.00  0.00    +0.073 C 
ATOM      4  C   UNL     1      -4.653  -0.047  24.678  0.00  0.00    +0.019 C 
ATOM      5  C   UNL     1      -3.898  -0.379  24.706  0.00  0.00    +0.027 C 
ATOM      6  C   UNL     1      -3.357   0.231  24.833  0.00  0.00    +0.138 C 
BRANCH   2   1
ATOM      1  C   UNL     1      -3.454   1.688  25.008  0.00  0.00    +0.119 C 
BRANCH   1  24
ATOM     24  C   UNL     1      -3.940   2.354  24.998  0.00  0.00    +0.075 A 
ATOM     25  N   UNL     1      -4.366   2.564  25.672  0.00  0.00    -0.247 NA
ATOM     26  C   UNL     1      -4.852   3.231  25.662  0.00  0.00    +0.098 A 
ATOM     27  C   UNL     1      -4.912   3.687  24.977  0.00  0.00    +0.021 A 
ATOM     28  C   UNL     1      -4.486   3.476  24.302  0.00  0.00    +0.003 A 
ATOM     29  C   UNL     1      -4.000   2.810  24.313  0.00  0.00    +0.016 A 
ENDBRANCH   1  24
ENDBRANCH   2   1
ENDBRANCH   7   6
TORSDOF 5
ENDMDL
