MODEL 1
REMARK VINA RESULT:     -12.2      0.000      0.000
REMARK  Name = 
REMARK  3 active torsions:
REMARK  status: ('A' for Active; 'I' for Inactive)
REMARK    1  A    between atoms: C_2  and  C_3
REMARK    2  A    between atoms: C_9  and  C_11
REMARK    3  A    between atoms: C_14  and  C_16
REMARK                            x       y       z     vdW  Elec       q    Type
REMARK                         _______ _______ _______ _____ _____    ______ ____
ROOT
ATOM     11  C   UNL     1      -3.628   1.437  24.827  0.00  0.00    +0.228 A 
ATOM     12  N   UNL     1      -4.442   1.367  24.941  0.00  0.00    -0.111 NA
ATOM     13  N   UNL     1      -4.637   0.566  24.893  0.00  0.00    -0.107 NA
ATOM     14  C   UNL     1      -3.945   0.143  24.749  0.00  0.00    +0.250 A 
ATOM     15  O   UNL     1      -3.321   0.681  24.709  0.00  0.00    -0.419 OA
ENDROOT
BRANCH  11   9
ATOM      1  O   UNL     1      -1.150   3.051  25.998  0.00  0.00    -0.275 OA
ATOM      2  C   UNL     1      -1.621   3.444  25.446  0.00  0.00    +0.225 C 
ATOM      6  N   UNL     1      -2.274   3.063  25.116  0.00  0.00    -0.279 N 
ATOM      7  C   UNL     1      -2.793   3.384  24.560  0.00  0.00    +0.094 C 
ATOM      8  C   UNL     1      -3.363   2.815  24.384  0.00  0.00    +0.033 C 
ATOM      9  C   UNL     1      -3.197   2.141  24.831  0.00  0.00    +0.100 C 
ATOM     10  C   UNL     1      -2.524   2.295  25.283  0.00  0.00    +0.103 C 
BRANCH   2   3
ATOM      3  C   UNL     1      -1.439   4.217  25.224  0.00  0.00    +0.077 C 
ATOM      4  C   UNL     1      -1.614   5.023  25.233  0.00  0.00    +0.010 C 
ATOM      5  C   UNL     1      -0.947   4.750  24.830  0.00  0.00    +0.010 C 
ENDBRANCH   2   3
ENDBRANCH  11   9
BRANCH  14  16
ATOM     16  C   UNL     1      -3.885  -0.675  24.662  0.00  0.00    +0.055 A 
ATOM     17  C   UNL     1      -3.563  -1.132  25.268  0.00  0.00    +0.005 A 
ATOM     18  C   UNL     1      -3.504  -1.950  25.182  0.00  0.00    +0.000 A 
ATOM     19  C   UNL     1      -3.767  -2.312  24.488  0.00  0.00    +0.000 A 
ATOM     20  C   UNL     1      -4.089  -1.855  23.881  0.00  0.00    +0.000 A 
ATOM     21  C   UNL     1      -4.148  -1.036  23.969  0.00  0.00    +0.005 A 
ENDBRANCH  14  16
TORSDOF 3
ENDMDL
MODEL 2
REMARK VINA RESULT:     -11.2      0.986      4.868
REMARK  Name = 
REMARK  3 active torsions:
REMARK  status: ('A' for Active; 'I' for Inactive)
REMARK    1  A    between atoms: C_2  and  C_3
REMARK    2  A    between atoms: C_9  and  C_11
REMARK    3  A    between atoms: C_14  and  C_16
REMARK                            x       y       z     vdW  Elec       q    Type
REMARK                         _______ _______ _______ _____ _____    ______ ____
ROOT
ATOM     11  C   UNL     1      -3.572   1.473  24.695  0.00  0.00    +0.228 A 
ATOM     12  N   UNL     1      -4.222   1.981  24.677  0.00  0.00    -0.111 NA
ATOM     13  N   UNL     1      -3.950   2.746  24.827  0.00  0.00    -0.107 NA
ATOM     14  C   UNL     1      -3.134   2.709  24.936  0.00  0.00    +0.250 A 
ATOM     15  O   UNL     1      -2.900   1.922  24.855  0.00  0.00    -0.419 OA
ENDROOT
BRANCH  11   9
ATOM      1  O   UNL     1      -3.565  -1.427  26.002  0.00  0.00    -0.275 OA
ATOM      2  C   UNL     1      -3.602  -1.392  25.178  0.00  0.00    +0.225 C 
ATOM      6  N   UNL     1      -3.607  -0.660  24.797  0.00  0.00    -0.279 N 
ATOM      7  C   UNL     1      -3.643  -0.539  23.981  0.00  0.00    +0.094 C 
ATOM      8  C   UNL     1      -3.634   0.275  23.844  0.00  0.00    +0.033 C 
ATOM      9  C   UNL     1      -3.593   0.657  24.574  0.00  0.00    +0.100 C 
ATOM     10  C   UNL     1      -3.576   0.079  25.162  0.00  0.00    +0.103 C 
BRANCH   2   3
ATOM      3  C   UNL     1      -3.636  -2.088  24.736  0.00  0.00    +0.077 C 
ATOM      4  C   UNL     1      -4.024  -2.568  24.189  0.00  0.00    +0.010 C 
ATOM      5  C   UNL     1      -3.306  -2.811  24.518  0.00  0.00    +0.010 C 
ENDBRANCH   2   3
ENDBRANCH  11   9
BRANCH  14  16
ATOM     16  C   UNL     1      -2.637   3.348  25.099  0.00  0.00    +0.055 A 
ATOM     17  C   UNL     1      -2.869   3.922  25.644  0.00  0.00    +0.005 A 
ATOM     18  C   UNL     1      -2.373   4.561  25.807  0.00  0.00    +0.000 A 
ATOM     19  C   UNL     1      -1.644   4.625  25.424  0.00  0.00    +0.000 A 
ATOM     20  C   UNL     1      -1.413   4.051  24.879  0.00  0.00    +0.000 A 
ATOM     21  C   UNL     1      -1.909   3.413  24.716  0.00  0.00    +0.005 A 
ENDBRANCH  14  16
TORSDOF 3
ENDMDL
MODEL 3
REMARK VINA RESULT:     -11.0      1.285      1.503
REMARK  Name = 
REMARK  3 active torsions:
REMARK  status: ('A' for Active; 'I' for Inactive)
REMARK    1  A    between atoms: C_2  and  C_3
REMARK    2  A    between atoms: C_9  and  C_11
REMARK    3  A    between atoms: C_14  and  C_16
REMARK                            x       y       z     vdW  Elec       q    Type
REMARK                         _______ _______ _______ _____ _____    ______ ____
ROOT
ATOM     11  C   UNL     1      -2.024   0.562  24.696  0.00  0.00    +0.228 A 
ATOM     12  N   UNL     1      -1.394   0.029  24.715  0.00  0.00    -0.111 NA
ATOM     13  N   UNL     1      -1.701  -0.732  24.629  0.00  0.00    -0.107 NA
ATOM     14  C   UNL     1      -2.520  -0.670  24.557  0.00  0.00    +0.250 A 
ATOM     15  O   UNL     1      -2.719   0.130  24.598  0.00  0.00    -0.419 OA
ENDROOT
BRANCH  11   9
ATOM      1  O   UNL     1      -0.677   3.038  26.167  0.00  0.00    -0.275 OA
ATOM      2  C   UNL     1      -1.226   3.212  25.575  0.00  0.00    +0.225 C 
ATOM      6  N   UNL     1      -1.600   2.600  25.168  0.00  0.00    -0.279 N 
ATOM      7  C   UNL     1      -2.157   2.689  24.565  0.00  0.00    +0.094 C 
ATOM      8  C   UNL     1      -2.384   1.936  24.316  0.00  0.00    +0.033 C 
ATOM      9  C   UNL     1      -1.967   1.382  24.763  0.00  0.00    +0.100 C 
ATOM     10  C   UNL     1      -1.482   1.793  25.289  0.00  0.00    +0.103 C 
BRANCH   2   3
ATOM      3  C   UNL     1      -1.400   3.997  25.392  0.00  0.00    +0.077 C 
ATOM      4  C   UNL     1      -1.186   4.714  25.043  0.00  0.00    +0.010 C 
ATOM      5  C   UNL     1      -1.916   4.641  25.424  0.00  0.00    +0.010 C 
ENDBRANCH   2   3
ENDBRANCH  11   9
BRANCH  14  16
ATOM     16  C   UNL     1      -3.047  -1.297  24.461  0.00  0.00    +0.055 A 
ATOM     17  C   UNL     1      -3.722  -1.200  23.996  0.00  0.00    +0.005 A 
ATOM     18  C   UNL     1      -4.250  -1.826  23.899  0.00  0.00    +0.000 A 
ATOM     19  C   UNL     1      -4.103  -2.550  24.268  0.00  0.00    +0.000 A 
ATOM     20  C   UNL     1      -3.428  -2.647  24.732  0.00  0.00    +0.000 A 
ATOM     21  C   UNL     1      -2.901  -2.020  24.828  0.00  0.00    +0.005 A 
ENDBRANCH  14  16
TORSDOF 3
ENDMDL
MODEL 4
REMARK VINA RESULT:      -8.3     15.831     18.358
REMARK  Name = 
REMARK  3 active torsions:
REMARK  status: ('A' for Active; 'I' for Inactive)
REMARK    1  A    between atoms: C_2  and  C_3
REMARK    2  A    between atoms: C_9  and  C_11
REMARK    3  A    between atoms: C_14  and  C_16
REMARK                            x       y       z     vdW  Elec       q    Type
REMARK                         _______ _______ _______ _____ _____    ______ ____
ROOT
ATOM     11  C   UNL     1      13.151   7.013  19.874  0.00  0.00    +0.228 A 
ATOM     12  N   UNL     1      12.554   6.863  19.324  0.00  0.00    -0.111 NA
ATOM     13  N   UNL     1      11.831   7.048  19.677  0.00  0.00    -0.107 NA
ATOM     14  C   UNL     1      11.982   7.311  20.444  0.00  0.00    +0.250 A 
ATOM     15  O   UNL     1      12.798   7.289  20.565  0.00  0.00    -0.419 OA
ENDROOT
BRANCH  11   9
ATOM      1  O   UNL     1      15.951   6.147  21.109  0.00  0.00    -0.275 OA
ATOM      2  C   UNL     1      15.951   6.381  20.317  0.00  0.00    +0.225 C 
ATOM      6  N   UNL     1      15.247   6.613  19.956  0.00  0.00    -0.279 N 
ATOM      7  C   UNL     1      15.163   6.859  19.173  0.00  0.00    +0.094 C 
ATOM      8  C   UNL     1      14.367   7.039  19.046  0.00  0.00    +0.033 C 
ATOM      9  C   UNL     1      13.960   6.904  19.751  0.00  0.00    +0.100 C 
ATOM     10  C   UNL     1      14.504   6.641  20.313  0.00  0.00    +0.103 C 
BRANCH   2   3
ATOM      3  C   UNL     1      16.656   6.381  19.887  0.00  0.00    +0.077 C 
ATOM      4  C   UNL     1      17.126   6.068  19.287  0.00  0.00    +0.010 C 
ATOM      5  C   UNL     1      17.404   6.697  19.744  0.00  0.00    +0.010 C 
ENDBRANCH   2   3
ENDBRANCH  11   9
BRANCH  14  16
ATOM     16  C   UNL     1      11.417   7.553  20.994  0.00  0.00    +0.055 A 
ATOM     17  C   UNL     1      11.037   6.995  21.467  0.00  0.00    +0.005 A 
ATOM     18  C   UNL     1      10.471   7.236  22.017  0.00  0.00    +0.000 A 
ATOM     19  C   UNL     1      10.286   8.037  22.094  0.00  0.00    +0.000 A 
ATOM     20  C   UNL     1      10.666   8.595  21.620  0.00  0.00    +0.000 A 
ATOM     21  C   UNL     1      11.232   8.353  21.070  0.00  0.00    +0.005 A 
ENDBRANCH  14  16
TORSDOF 3
ENDMDL
