MODEL 1
REMARK VINA RESULT:      -9.1      0.000      0.000
REMARK  Name = 
REMARK  4 active torsions:
REMARK  status: ('A' for Active; 'I' for Inactive)
REMARK    1  A    between atoms: C_2  and  C_24
REMARK    2  A    between atoms: N_3  and  C_4
REMARK    3  A    between atoms: C_8  and  N_12
REMARK    4  A    between atoms: C_15  and  C_19
REMARK                            x       y       z     vdW  Elec       q    Type
REMARK                         _______ _______ _______ _____ _____    ______ ____
ROOT
ATOM      4  C   UNL     1      -2.468   2.280  24.858  0.00  0.00    +0.155 C 
ATOM      5  C   UNL     1      -2.146   2.947  24.496  0.00  0.00    +0.166 C 
ATOM      6  O   UNL     1      -1.352   2.791  24.335  0.00  0.00    -0.350 OA
ATOM      7  C   UNL     1      -1.183   2.028  24.598  0.00  0.00    +0.166 C 
ATOM      8  C   UNL     1      -0.589   1.459  24.661  0.00  0.00    +0.154 C 
ATOM      9  C   UNL     1      -0.912   0.792  25.023  0.00  0.00    +0.166 C 
ATOM     10  O   UNL     1      -1.705   0.948  25.184  0.00  0.00    -0.350 OA
ATOM     11  C   UNL     1      -1.874   1.712  24.921  0.00  0.00    +0.166 C 
ENDROOT
BRANCH   8  12
ATOM     12  N   UNL     1       0.191   1.543  24.407  0.00  0.00    -0.200 NA
ATOM     13  C   UNL     1       0.526   0.978  23.908  0.00  0.00    +0.237 A 
ATOM     14  N   UNL     1       1.306   1.062  23.654  0.00  0.00    -0.209 NA
ATOM     15  C   UNL     1       1.641   0.497  23.155  0.00  0.00    +0.120 A 
ATOM     16  C   UNL     1       1.196  -0.153  22.910  0.00  0.00    +0.043 A 
ATOM     17  C   UNL     1       0.415  -0.237  23.164  0.00  0.00    +0.104 A 
ATOM     18  N   UNL     1       0.081   0.329  23.663  0.00  0.00    -0.211 NA
BRANCH  15  19
ATOM     19  C   UNL     1       2.421   0.581  22.901  0.00  0.00    +0.163 A 
ATOM     20  C   UNL     1       2.800   0.114  22.335  0.00  0.00    +0.042 A 
ATOM     21  C   UNL     1       3.572   0.391  22.252  0.00  0.00    +0.044 A 
ATOM     22  C   UNL     1       3.671   1.029  22.765  0.00  0.00    +0.180 A 
ATOM     23  O   UNL     1       2.959   1.146  23.166  0.00  0.00    -0.449 OA
ENDBRANCH  15  19
ENDBRANCH   8  12
BRANCH   4   3
ATOM      1  O   UNL     1      -3.675   3.123  24.112  0.00  0.00    -0.268 OA
ATOM      2  C   UNL     1      -3.852   2.617  24.739  0.00  0.00    +0.271 C 
ATOM      3  N   UNL     1      -3.249   2.195  25.112  0.00  0.00    -0.198 NA
BRANCH   2  24
ATOM     24  C   UNL     1      -4.632   2.533  24.994  0.00  0.00    +0.084 A 
ATOM     25  C   UNL     1      -5.142   1.914  24.798  0.00  0.00    +0.012 A 
ATOM     26  C   UNL     1      -5.865   2.051  25.172  0.00  0.00    +0.008 A 
ATOM     27  C   UNL     1      -5.802   2.755  25.598  0.00  0.00    +0.036 A 
ATOM     28  S   UNL     1      -5.040   3.052  25.488  0.00  0.00    -0.082 S 
ENDBRANCH   2  24
ENDBRANCH   4   3
TORSDOF 4
ENDMDL
MODEL 2
REMARK VINA RESULT:      -8.9      1.943      6.303
REMARK  Name = 
REMARK  4 active torsions:
REMARK  status: ('A' for Active; 'I' for Inactive)
REMARK    1  A    between atoms: C_2  and  C_24
REMARK    2  A    between atoms: N_3  and  C_4
REMARK    3  A    between atoms: C_8  and  N_12
REMARK    4  A    between atoms: C_15  and  C_19
REMARK                            x       y       z     vdW  Elec       q    Type
REMARK                         _______ _______ _______ _____ _____    ______ ____
ROOT
ATOM      4  C   UNL     1       0.494   0.763  23.772  0.00  0.00    +0.155 C 
ATOM      5  C   UNL     1       0.026   0.098  23.632  0.00  0.00    +0.166 C 
ATOM      6  O   UNL     1      -0.713   0.231  23.973  0.00  0.00    -0.350 OA
ATOM      7  C   UNL     1      -0.703   0.976  24.323  0.00  0.00    +0.166 C 
ATOM      8  C   UNL     1      -1.152   1.520  24.751  0.00  0.00    +0.154 C 
ATOM      9  C   UNL     1      -0.684   2.185  24.891  0.00  0.00    +0.166 C 
ATOM     10  O   UNL     1       0.055   2.052  24.550  0.00  0.00    -0.350 OA
ATOM     11  C   UNL     1       0.044   1.305  24.199  0.00  0.00    +0.166 C 
ENDROOT
BRANCH   8  12
ATOM     12  N   UNL     1      -1.933   1.417  24.996  0.00  0.00    -0.200 NA
ATOM     13  C   UNL     1      -2.504   1.981  24.803  0.00  0.00    +0.237 A 
ATOM     14  N   UNL     1      -3.285   1.878  25.048  0.00  0.00    -0.209 NA
ATOM     15  C   UNL     1      -3.856   2.441  24.856  0.00  0.00    +0.120 A 
ATOM     16  C   UNL     1      -3.646   3.109  24.419  0.00  0.00    +0.043 A 
ATOM     17  C   UNL     1      -2.864   3.212  24.174  0.00  0.00    +0.104 A 
ATOM     18  N   UNL     1      -2.294   2.648  24.367  0.00  0.00    -0.211 NA
BRANCH  15  19
ATOM     19  C   UNL     1      -4.637   2.338  25.100  0.00  0.00    +0.163 A 
ATOM     20  C   UNL     1      -5.200   1.857  24.736  0.00  0.00    +0.042 A 
ATOM     21  C   UNL     1      -5.903   1.919  25.162  0.00  0.00    +0.044 A 
ATOM     22  C   UNL     1      -5.775   2.439  25.789  0.00  0.00    +0.180 A 
ATOM     23  O   UNL     1      -4.992   2.698  25.751  0.00  0.00    -0.449 OA
ENDBRANCH  15  19
ENDBRANCH   8  12
BRANCH   4   3
ATOM      1  O   UNL     1       1.205  -0.353  22.784  0.00  0.00    -0.268 OA
ATOM      2  C   UNL     1       1.630   0.309  23.033  0.00  0.00    +0.271 C 
ATOM      3  N   UNL     1       1.275   0.866  23.527  0.00  0.00    -0.198 NA
BRANCH   2  24
ATOM     24  C   UNL     1       2.412   0.412  22.789  0.00  0.00    +0.084 A 
ATOM     25  C   UNL     1       2.954   0.943  23.111  0.00  0.00    +0.012 A 
ATOM     26  C   UNL     1       3.665   0.862  22.700  0.00  0.00    +0.008 A 
ATOM     27  C   UNL     1       3.562   0.280  22.124  0.00  0.00    +0.036 A 
ATOM     28  S   UNL     1       2.787   0.002  22.178  0.00  0.00    -0.082 S 
ENDBRANCH   2  24
ENDBRANCH   4   3
TORSDOF 4
ENDMDL
MODEL 3
REMARK VINA RESULT:      -7.6      2.717      6.487
REMARK  Name = 
REMARK  4 active torsions:
REMARK  status: ('A' for Active; 'I' for Inactive)
REMARK    1  A    between atoms: C_2  and  C_24
REMARK    2  A    between atoms: N_3  and  C_4
REMARK    3  A    between atoms: C_8  and  N_12
REMARK    4  A    between atoms: C_15  and  C_19
REMARK                            x       y       z     vdW  Elec       q    Type
REMARK                         _______ _______ _______ _____ _____    ______ ____
ROOT
ATOM      4  C   UNL     1       2.045   0.425  23.059  0.00  0.00    +0.155 C 
ATOM      5  C   UNL     1       1.697  -0.117  22.544  0.00  0.00    +0.166 C 
ATOM      6  O   UNL     1       0.880  -0.076  22.645  0.00  0.00    -0.350 OA
ATOM      7  C   UNL     1       0.722   0.490  23.223  0.00  0.00    +0.166 C 
ATOM      8  C   UNL     1       0.120   0.866  23.644  0.00  0.00    +0.154 C 
ATOM      9  C   UNL     1       0.468   1.407  24.159  0.00  0.00    +0.166 C 
ATOM     10  O   UNL     1       1.285   1.367  24.058  0.00  0.00    -0.350 OA
ATOM     11  C   UNL     1       1.443   0.800  23.479  0.00  0.00    +0.166 C 
ENDROOT
BRANCH   8  12
ATOM     12  N   UNL     1      -0.689   0.724  23.563  0.00  0.00    -0.200 NA
ATOM     13  C   UNL     1      -1.125   0.441  24.204  0.00  0.00    +0.237 A 
ATOM     14  N   UNL     1      -1.933   0.299  24.123  0.00  0.00    -0.209 NA
ATOM     15  C   UNL     1      -2.369   0.017  24.764  0.00  0.00    +0.120 A 
ATOM     16  C   UNL     1      -1.996  -0.123  25.487  0.00  0.00    +0.043 A 
ATOM     17  C   UNL     1      -1.187   0.019  25.568  0.00  0.00    +0.104 A 
ATOM     18  N   UNL     1      -0.752   0.301  24.926  0.00  0.00    -0.211 NA
BRANCH  15  19
ATOM     19  C   UNL     1      -3.177  -0.125  24.684  0.00  0.00    +0.163 A 
ATOM     20  C   UNL     1      -3.523  -0.832  24.436  0.00  0.00    +0.042 A 
ATOM     21  C   UNL     1      -4.342  -0.729  24.436  0.00  0.00    +0.044 A 
ATOM     22  C   UNL     1      -4.501   0.041  24.682  0.00  0.00    +0.180 A 
ATOM     23  O   UNL     1      -3.782   0.415  24.835  0.00  0.00    -0.449 OA
ENDBRANCH  15  19
ENDBRANCH   8  12
BRANCH   4   3
ATOM      1  O   UNL     1       3.104  -0.840  23.115  0.00  0.00    -0.268 OA
ATOM      2  C   UNL     1       3.383  -0.065  23.168  0.00  0.00    +0.271 C 
ATOM      3  N   UNL     1       2.854   0.567  23.140  0.00  0.00    -0.198 NA
BRANCH   2  24
ATOM     24  C   UNL     1       4.192   0.077  23.250  0.00  0.00    +0.084 A 
ATOM     25  C   UNL     1       4.598   0.737  22.969  0.00  0.00    +0.012 A 
ATOM     26  C   UNL     1       5.394   0.652  23.172  0.00  0.00    +0.008 A 
ATOM     27  C   UNL     1       5.479  -0.062  23.577  0.00  0.00    +0.036 A 
ATOM     28  S   UNL     1       4.736  -0.417  23.625  0.00  0.00    -0.082 S 
ENDBRANCH   2  24
ENDBRANCH   4   3
TORSDOF 4
ENDMDL
MODEL 4
REMARK VINA RESULT:      -7.3     15.275     16.708
REMARK  Name = 
REMARK  4 active torsions:
REMARK  status: ('A' for Active; 'I' for Inactive)
REMARK    1  A    between atoms: C_2  and  C_24
REMARK    2  A    between atoms: N_3  and  C_4
REMARK    3  A    between atoms: C_8  and  N_12
REMARK    4  A    between atoms: C_15  and  C_19
REMARK                            x       y       z     vdW  Elec       q    Type
REMARK                         _______ _______ _______ _____ _____    ______ ____
ROOT
ATOM      4  C   UNL     1      -5.470  -9.722  12.177  0.00  0.00    +0.155 C 
ATOM      5  C   UNL     1      -6.183  -9.360  12.378  0.00  0.00    +0.166 C 
ATOM      6  O   UNL     1      -6.347  -9.540  13.166  0.00  0.00    -0.350 OA
ATOM      7  C   UNL     1      -5.736 -10.013  13.452  0.00  0.00    +0.166 C 
ATOM      8  C   UNL     1      -5.458 -10.417  14.116  0.00  0.00    +0.154 C 
ATOM      9  C   UNL     1      -4.744 -10.779  13.915  0.00  0.00    +0.166 C 
ATOM     10  O   UNL     1      -4.581 -10.599  13.127  0.00  0.00    -0.350 OA
ATOM     11  C   UNL     1      -5.193 -10.126  12.841  0.00  0.00    +0.166 C 
ENDROOT
BRANCH   8  12
ATOM     12  N   UNL     1      -5.829 -10.452  14.852  0.00  0.00    -0.200 NA
ATOM     13  C   UNL     1      -5.381 -10.403  15.544  0.00  0.00    +0.237 A 
ATOM     14  N   UNL     1      -5.752 -10.438  16.279  0.00  0.00    -0.209 NA
ATOM     15  C   UNL     1      -5.304 -10.389  16.970  0.00  0.00    +0.120 A 
ATOM     16  C   UNL     1      -4.485 -10.305  16.925  0.00  0.00    +0.043 A 
ATOM     17  C   UNL     1      -4.113 -10.270  16.189  0.00  0.00    +0.104 A 
ATOM     18  N   UNL     1      -4.562 -10.319  15.499  0.00  0.00    -0.211 NA
BRANCH  15  19
ATOM     19  C   UNL     1      -5.675 -10.424  17.706  0.00  0.00    +0.163 A 
ATOM     20  C   UNL     1      -5.361 -10.760  18.392  0.00  0.00    +0.042 A 
ATOM     21  C   UNL     1      -5.917 -10.674  18.995  0.00  0.00    +0.044 A 
ATOM     22  C   UNL     1      -6.573 -10.284  18.683  0.00  0.00    +0.180 A 
ATOM     23  O   UNL     1      -6.424 -10.131  17.886  0.00  0.00    -0.449 OA
ENDBRANCH  15  19
ENDBRANCH   8  12
BRANCH   4   3
ATOM      1  O   UNL     1      -5.682  -8.404  11.208  0.00  0.00    -0.268 OA
ATOM      2  C   UNL     1      -5.205  -9.028  10.957  0.00  0.00    +0.271 C 
ATOM      3  N   UNL     1      -5.099  -9.687  11.441  0.00  0.00    -0.198 NA
BRANCH   2  24
ATOM     24  C   UNL     1      -4.833  -8.993  10.220  0.00  0.00    +0.084 A 
ATOM     25  C   UNL     1      -4.024  -8.899  10.090  0.00  0.00    +0.012 A 
ATOM     26  C   UNL     1      -3.897  -8.893   9.274  0.00  0.00    +0.008 A 
ATOM     27  C   UNL     1      -4.627  -8.983   8.901  0.00  0.00    +0.036 A 
ATOM     28  S   UNL     1      -5.206  -9.045   9.486  0.00  0.00    -0.082 S 
ENDBRANCH   2  24
ENDBRANCH   4   3
TORSDOF 4
ENDMDL
MODEL 5
REMARK VINA RESULT:      -7.1     15.200     16.286
REMARK  Name = 
REMARK  4 active torsions:
REMARK  status: ('A' for Active; 'I' for Inactive)
REMARK    1  A    between atoms: C_2  and  C_24
REMARK    2  A    between atoms: N_3  and  C_4
REMARK    3  A    between atoms: C_8  and  N_12
REMARK    4  A    between atoms: C_15  and  C_19
REMARK                            x       y       z     vdW  Elec       q    Type
REMARK                         _______ _______ _______ _____ _____    ______ ____
ROOT
ATOM      4  C   UNL     1      -5.219 -10.652  15.781  0.00  0.00    +0.155 C 
ATOM      5  C   UNL     1      -4.404 -10.553  15.702  0.00  0.00    +0.166 C 
ATOM      6  O   UNL     1      -4.233 -10.487  14.898  0.00  0.00    -0.350 OA
ATOM      7  C   UNL     1      -4.940 -10.545  14.480  0.00  0.00    +0.166 C 
ATOM      8  C   UNL     1      -5.273 -10.541  13.725  0.00  0.00    +0.154 C 
ATOM      9  C   UNL     1      -6.088 -10.640  13.804  0.00  0.00    +0.166 C 
ATOM     10  O   UNL     1      -6.260 -10.705  14.608  0.00  0.00    -0.350 OA
ATOM     11  C   UNL     1      -5.551 -10.647  15.026  0.00  0.00    +0.166 C 
ENDROOT
BRANCH   8  12
ATOM     12  N   UNL     1      -4.862 -10.452  13.015  0.00  0.00    -0.200 NA
ATOM     13  C   UNL     1      -5.125  -9.912  12.450  0.00  0.00    +0.237 A 
ATOM     14  N   UNL     1      -4.714  -9.823  11.741  0.00  0.00    -0.209 NA
ATOM     15  C   UNL     1      -4.977  -9.282  11.176  0.00  0.00    +0.120 A 
ATOM     16  C   UNL     1      -5.651  -8.829  11.321  0.00  0.00    +0.043 A 
ATOM     17  C   UNL     1      -6.062  -8.918  12.031  0.00  0.00    +0.104 A 
ATOM     18  N   UNL     1      -5.799  -9.459  12.595  0.00  0.00    -0.211 NA
BRANCH  15  19
ATOM     19  C   UNL     1      -4.566  -9.194  10.467  0.00  0.00    +0.163 A 
ATOM     20  C   UNL     1      -4.851  -9.379   9.715  0.00  0.00    +0.042 A 
ATOM     21  C   UNL     1      -4.259  -9.205   9.167  0.00  0.00    +0.044 A 
ATOM     22  C   UNL     1      -3.609  -8.912   9.580  0.00  0.00    +0.180 A 
ATOM     23  O   UNL     1      -3.798  -8.905  10.383  0.00  0.00    -0.449 OA
ENDBRANCH  15  19
ENDBRANCH   8  12
BRANCH   4   3
ATOM      1  O   UNL     1      -4.629  -9.976  17.167  0.00  0.00    -0.268 OA
ATOM      2  C   UNL     1      -5.335 -10.402  17.184  0.00  0.00    +0.271 C 
ATOM      3  N   UNL     1      -5.631 -10.740  16.491  0.00  0.00    -0.198 NA
BRANCH   2  24
ATOM     24  C   UNL     1      -5.747 -10.491  17.894  0.00  0.00    +0.084 A 
ATOM     25  C   UNL     1      -5.436 -10.780  18.601  0.00  0.00    +0.012 A 
ATOM     26  C   UNL     1      -6.039 -10.773  19.165  0.00  0.00    +0.008 A 
ATOM     27  C   UNL     1      -6.721 -10.479  18.806  0.00  0.00    +0.036 A 
ATOM     28  S   UNL     1      -6.541 -10.304  18.021  0.00  0.00    -0.082 S 
ENDBRANCH   2  24
ENDBRANCH   4   3
TORSDOF 4
ENDMDL
MODEL 6
REMARK VINA RESULT:      -6.7     14.886     15.690
REMARK  Name = 
REMARK  4 active torsions:
REMARK  status: ('A' for Active; 'I' for Inactive)
REMARK    1  A    between atoms: C_2  and  C_24
REMARK    2  A    between atoms: N_3  and  C_4
REMARK    3  A    between atoms: C_8  and  N_12
REMARK    4  A    between atoms: C_15  and  C_19
REMARK                            x       y       z     vdW  Elec       q    Type
REMARK                         _______ _______ _______ _____ _____    ______ ____
ROOT
ATOM      4  C   UNL     1      -7.231  -9.658  16.166  0.00  0.00    +0.155 C 
ATOM      5  C   UNL     1      -6.561  -9.371  16.551  0.00  0.00    +0.166 C 
ATOM      6  O   UNL     1      -5.899  -9.611  16.123  0.00  0.00    -0.350 OA
ATOM      7  C   UNL     1      -6.158 -10.047  15.473  0.00  0.00    +0.166 C 
ATOM      8  C   UNL     1      -5.910 -10.466  14.807  0.00  0.00    +0.154 C 
ATOM      9  C   UNL     1      -6.580 -10.753  14.422  0.00  0.00    +0.166 C 
ATOM     10  O   UNL     1      -7.243 -10.513  14.850  0.00  0.00    -0.350 OA
ATOM     11  C   UNL     1      -6.982 -10.076  15.500  0.00  0.00    +0.166 C 
ENDROOT
BRANCH   8  12
ATOM     12  N   UNL     1      -5.128 -10.577  14.568  0.00  0.00    -0.200 NA
ATOM     13  C   UNL     1      -4.913 -10.439  13.784  0.00  0.00    +0.237 A 
ATOM     14  N   UNL     1      -4.132 -10.550  13.544  0.00  0.00    -0.209 NA
ATOM     15  C   UNL     1      -3.916 -10.412  12.760  0.00  0.00    +0.120 A 
ATOM     16  C   UNL     1      -4.482 -10.163  12.215  0.00  0.00    +0.043 A 
ATOM     17  C   UNL     1      -5.265 -10.052  12.454  0.00  0.00    +0.104 A 
ATOM     18  N   UNL     1      -5.479 -10.190  13.238  0.00  0.00    -0.211 NA
BRANCH  15  19
ATOM     19  C   UNL     1      -3.135 -10.522  12.521  0.00  0.00    +0.163 A 
ATOM     20  C   UNL     1      -2.877 -10.640  11.746  0.00  0.00    +0.042 A 
ATOM     21  C   UNL     1      -2.056 -10.726  11.761  0.00  0.00    +0.044 A 
ATOM     22  C   UNL     1      -1.808 -10.661  12.544  0.00  0.00    +0.180 A 
ATOM     23  O   UNL     1      -2.474 -10.535  13.014  0.00  0.00    -0.449 OA
ENDBRANCH  15  19
ENDBRANCH   8  12
BRANCH   4   3
ATOM      1  O   UNL     1      -7.571  -9.308  17.742  0.00  0.00    -0.268 OA
ATOM      2  C   UNL     1      -8.183  -9.372  17.193  0.00  0.00    +0.271 C 
ATOM      3  N   UNL     1      -8.013  -9.547  16.405  0.00  0.00    -0.198 NA
BRANCH   2  24
ATOM     24  C   UNL     1      -8.965  -9.261  17.432  0.00  0.00    +0.084 A 
ATOM     25  C   UNL     1      -9.408  -8.572  17.335  0.00  0.00    +0.012 A 
ATOM     26  C   UNL     1     -10.158  -8.705  17.653  0.00  0.00    +0.008 A 
ATOM     27  C   UNL     1     -10.178  -9.476  17.946  0.00  0.00    +0.036 A 
ATOM     28  S   UNL     1      -9.441  -9.820  17.809  0.00  0.00    -0.082 S 
ENDBRANCH   2  24
ENDBRANCH   4   3
TORSDOF 4
ENDMDL
MODEL 7
REMARK VINA RESULT:      -6.6     16.149     17.175
REMARK  Name = 
REMARK  4 active torsions:
REMARK  status: ('A' for Active; 'I' for Inactive)
REMARK    1  A    between atoms: C_2  and  C_24
REMARK    2  A    between atoms: N_3  and  C_4
REMARK    3  A    between atoms: C_8  and  N_12
REMARK    4  A    between atoms: C_15  and  C_19
REMARK                            x       y       z     vdW  Elec       q    Type
REMARK                         _______ _______ _______ _____ _____    ______ ____
ROOT
ATOM      4  C   UNL     1      -6.092  -9.455  11.324  0.00  0.00    +0.155 C 
ATOM      5  C   UNL     1      -6.341  -9.059  12.003  0.00  0.00    +0.166 C 
ATOM      6  O   UNL     1      -5.874  -9.315  12.632  0.00  0.00    -0.350 OA
ATOM      7  C   UNL     1      -5.336  -9.869  12.343  0.00  0.00    +0.166 C 
ATOM      8  C   UNL     1      -4.715 -10.370  12.552  0.00  0.00    +0.154 C 
ATOM      9  C   UNL     1      -4.466 -10.766  11.873  0.00  0.00    +0.166 C 
ATOM     10  O   UNL     1      -4.933 -10.510  11.243  0.00  0.00    -0.350 OA
ATOM     11  C   UNL     1      -5.471  -9.955  11.534  0.00  0.00    +0.166 C 
ENDROOT
BRANCH   8  12
ATOM     12  N   UNL     1      -4.398 -10.459  13.309  0.00  0.00    -0.200 NA
ATOM     13  C   UNL     1      -3.580 -10.453  13.418  0.00  0.00    +0.237 A 
ATOM     14  N   UNL     1      -3.264 -10.541  14.174  0.00  0.00    -0.209 NA
ATOM     15  C   UNL     1      -2.446 -10.535  14.282  0.00  0.00    +0.120 A 
ATOM     16  C   UNL     1      -1.944 -10.440  13.634  0.00  0.00    +0.043 A 
ATOM     17  C   UNL     1      -2.261 -10.352  12.877  0.00  0.00    +0.104 A 
ATOM     18  N   UNL     1      -3.079 -10.358  12.769  0.00  0.00    -0.211 NA
BRANCH  15  19
ATOM     19  C   UNL     1      -2.129 -10.624  15.038  0.00  0.00    +0.163 A 
ATOM     20  C   UNL     1      -1.326 -10.649  15.228  0.00  0.00    +0.042 A 
ATOM     21  C   UNL     1      -1.260 -10.744  16.045  0.00  0.00    +0.044 A 
ATOM     22  C   UNL     1      -2.021 -10.777  16.360  0.00  0.00    +0.180 A 
ATOM     23  O   UNL     1      -2.558 -10.703  15.738  0.00  0.00    -0.449 OA
ENDBRANCH  15  19
ENDBRANCH   8  12
BRANCH   4   3
ATOM      1  O   UNL     1      -7.633  -8.896  11.134  0.00  0.00    -0.268 OA
ATOM      2  C   UNL     1      -7.179  -9.087  10.472  0.00  0.00    +0.271 C 
ATOM      3  N   UNL     1      -6.409  -9.366  10.567  0.00  0.00    -0.198 NA
BRANCH   2  24
ATOM     24  C   UNL     1      -7.496  -8.998   9.715  0.00  0.00    +0.084 A 
ATOM     25  C   UNL     1      -7.425  -8.331   9.235  0.00  0.00    +0.012 A 
ATOM     26  C   UNL     1      -7.824  -8.481   8.529  0.00  0.00    +0.008 A 
ATOM     27  C   UNL     1      -8.142  -9.242   8.572  0.00  0.00    +0.036 A 
ATOM     28  S   UNL     1      -7.939  -9.561   9.306  0.00  0.00    -0.082 S 
ENDBRANCH   2  24
ENDBRANCH   4   3
TORSDOF 4
ENDMDL
MODEL 8
REMARK VINA RESULT:      -6.5     15.162     16.886
REMARK  Name = 
REMARK  4 active torsions:
REMARK  status: ('A' for Active; 'I' for Inactive)
REMARK    1  A    between atoms: C_2  and  C_24
REMARK    2  A    between atoms: N_3  and  C_4
REMARK    3  A    between atoms: C_8  and  N_12
REMARK    4  A    between atoms: C_15  and  C_19
REMARK                            x       y       z     vdW  Elec       q    Type
REMARK                         _______ _______ _______ _____ _____    ______ ____
ROOT
ATOM      4  C   UNL     1      -5.288 -10.240  13.289  0.00  0.00    +0.155 C 
ATOM      5  C   UNL     1      -5.854  -9.819  12.861  0.00  0.00    +0.166 C 
ATOM      6  O   UNL     1      -6.514  -9.718  13.344  0.00  0.00    -0.350 OA
ATOM      7  C   UNL     1      -6.358 -10.076  14.070  0.00  0.00    +0.166 C 
ATOM      8  C   UNL     1      -6.668 -10.235  14.818  0.00  0.00    +0.154 C 
ATOM      9  C   UNL     1      -6.102 -10.656  15.245  0.00  0.00    +0.166 C 
ATOM     10  O   UNL     1      -5.442 -10.757  14.762  0.00  0.00    -0.350 OA
ATOM     11  C   UNL     1      -5.599 -10.399  14.036  0.00  0.00    +0.166 C 
ENDROOT
BRANCH   8  12
ATOM     12  N   UNL     1      -7.414 -10.011  15.090  0.00  0.00    -0.200 NA
ATOM     13  C   UNL     1      -7.509  -9.746  15.866  0.00  0.00    +0.237 A 
ATOM     14  N   UNL     1      -8.254  -9.523  16.138  0.00  0.00    -0.209 NA
ATOM     15  C   UNL     1      -8.349  -9.258  16.913  0.00  0.00    +0.120 A 
ATOM     16  C   UNL     1      -7.697  -9.216  17.417  0.00  0.00    +0.043 A 
ATOM     17  C   UNL     1      -6.950  -9.440  17.145  0.00  0.00    +0.104 A 
ATOM     18  N   UNL     1      -6.857  -9.705  16.369  0.00  0.00    -0.211 NA
BRANCH  15  19
ATOM     19  C   UNL     1      -9.094  -9.035  17.186  0.00  0.00    +0.163 A 
ATOM     20  C   UNL     1      -9.454  -8.301  17.067  0.00  0.00    +0.042 A 
ATOM     21  C   UNL     1     -10.194  -8.319  17.433  0.00  0.00    +0.044 A 
ATOM     22  C   UNL     1     -10.291  -9.062  17.776  0.00  0.00    +0.180 A 
ATOM     23  O   UNL     1      -9.611  -9.504  17.624  0.00  0.00    -0.449 OA
ENDBRANCH  15  19
ENDBRANCH   8  12
BRANCH   4   3
ATOM      1  O   UNL     1      -4.686  -9.585  11.899  0.00  0.00    -0.268 OA
ATOM      2  C   UNL     1      -4.241 -10.136  12.322  0.00  0.00    +0.271 C 
ATOM      3  N   UNL     1      -4.542 -10.463  13.017  0.00  0.00    -0.198 NA
BRANCH   2  24
ATOM     24  C   UNL     1      -3.494 -10.359  12.050  0.00  0.00    +0.084 A 
ATOM     25  C   UNL     1      -2.805 -10.394  12.501  0.00  0.00    +0.012 A 
ATOM     26  C   UNL     1      -2.191 -10.643  12.009  0.00  0.00    +0.008 A 
ATOM     27  C   UNL     1      -2.502 -10.762  11.253  0.00  0.00    +0.036 A 
ATOM     28  S   UNL     1      -3.307 -10.587  11.279  0.00  0.00    -0.082 S 
ENDBRANCH   2  24
ENDBRANCH   4   3
TORSDOF 4
ENDMDL
MODEL 9
REMARK VINA RESULT:      -6.2     18.386     19.537
REMARK  Name = 
REMARK  4 active torsions:
REMARK  status: ('A' for Active; 'I' for Inactive)
REMARK    1  A    between atoms: C_2  and  C_24
REMARK    2  A    between atoms: N_3  and  C_4
REMARK    3  A    between atoms: C_8  and  N_12
REMARK    4  A    between atoms: C_15  and  C_19
REMARK                            x       y       z     vdW  Elec       q    Type
REMARK                         _______ _______ _______ _____ _____    ______ ____
ROOT
ATOM      4  C   UNL     1      17.266  -4.048  24.446  0.00  0.00    +0.155 C 
ATOM      5  C   UNL     1      17.100  -4.400  23.718  0.00  0.00    +0.166 C 
ATOM      6  O   UNL     1      17.020  -5.211  23.841  0.00  0.00    -0.350 OA
ATOM      7  C   UNL     1      17.136  -5.362  24.642  0.00  0.00    +0.166 C 
ATOM      8  C   UNL     1      17.159  -5.956  25.215  0.00  0.00    +0.154 C 
ATOM      9  C   UNL     1      17.326  -5.604  25.942  0.00  0.00    +0.166 C 
ATOM     10  O   UNL     1      17.405  -4.793  25.820  0.00  0.00    -0.350 OA
ATOM     11  C   UNL     1      17.289  -4.642  25.017  0.00  0.00    +0.166 C 
ENDROOT
BRANCH   8  12
ATOM     12  N   UNL     1      17.037  -6.761  25.082  0.00  0.00    -0.200 NA
ATOM     13  C   UNL     1      16.533  -7.189  25.575  0.00  0.00    +0.237 A 
ATOM     14  N   UNL     1      16.411  -7.994  25.443  0.00  0.00    -0.209 NA
ATOM     15  C   UNL     1      15.907  -8.422  25.936  0.00  0.00    +0.120 A 
ATOM     16  C   UNL     1      15.525  -8.044  26.563  0.00  0.00    +0.043 A 
ATOM     17  C   UNL     1      15.647  -7.239  26.695  0.00  0.00    +0.104 A 
ATOM     18  N   UNL     1      16.151  -6.812  26.202  0.00  0.00    -0.211 NA
BRANCH  15  19
ATOM     19  C   UNL     1      15.785  -9.226  25.804  0.00  0.00    +0.163 A 
ATOM     20  C   UNL     1      15.156  -9.559  25.385  0.00  0.00    +0.042 A 
ATOM     21  C   UNL     1      15.253 -10.378  25.389  0.00  0.00    +0.044 A 
ATOM     22  C   UNL     1      15.940 -10.552  25.811  0.00  0.00    +0.180 A 
ATOM     23  O   UNL     1      16.269  -9.840  26.067  0.00  0.00    -0.449 OA
ENDBRANCH  15  19
ENDBRANCH   8  12
BRANCH   4   3
ATOM      1  O   UNL     1      16.155  -2.947  23.920  0.00  0.00    -0.268 OA
ATOM      2  C   UNL     1      16.833  -2.693  24.315  0.00  0.00    +0.271 C 
ATOM      3  N   UNL     1      17.388  -3.243  24.578  0.00  0.00    -0.198 NA
BRANCH   2  24
ATOM     24  C   UNL     1      16.955  -1.887  24.448  0.00  0.00    +0.084 A 
ATOM     25  C   UNL     1      16.650  -1.448  25.076  0.00  0.00    +0.012 A 
ATOM     26  C   UNL     1      16.910  -0.669  24.992  0.00  0.00    +0.008 A 
ATOM     27  C   UNL     1      17.375  -0.627  24.312  0.00  0.00    +0.036 A 
ATOM     28  S   UNL     1      17.403  -1.380  23.975  0.00  0.00    -0.082 S 
ENDBRANCH   2  24
ENDBRANCH   4   3
TORSDOF 4
ENDMDL
