MODEL 1
REMARK VINA RESULT:      -9.7      0.000      0.000
REMARK  Name = 
REMARK  5 active torsions:
REMARK  status: ('A' for Active; 'I' for Inactive)
REMARK    1  A    between atoms: C_1  and  O_2
REMARK    2  A    between atoms: C_1  and  C_24
REMARK    3  A    between atoms: O_2  and  C_3
REMARK    4  A    between atoms: C_7  and  N_11
REMARK    5  A    between atoms: C_14  and  C_18
REMARK                            x       y       z     vdW  Elec       q    Type
REMARK                         _______ _______ _______ _____ _____    ______ ____
ROOT
ATOM      3  C   UNL     1       0.872   0.794  23.624  0.00  0.00    +0.175 C 
ATOM      4  C   UNL     1       0.388   0.196  23.328  0.00  0.00    +0.174 C 
ATOM      5  O   UNL     1      -0.365   0.295  23.649  0.00  0.00    -0.349 OA
ATOM      6  C   UNL     1      -0.348   0.955  24.143  0.00  0.00    +0.167 C 
ATOM      7  C   UNL     1      -0.801   1.425  24.647  0.00  0.00    +0.154 C 
ATOM      8  C   UNL     1      -0.317   2.023  24.943  0.00  0.00    +0.166 C 
ATOM      9  O   UNL     1       0.436   1.923  24.622  0.00  0.00    -0.349 OA
ATOM     10  C   UNL     1       0.417   1.263  24.128  0.00  0.00    +0.173 C 
ENDROOT
BRANCH   7  11
ATOM     11  N   UNL     1      -1.600   1.315  24.823  0.00  0.00    -0.200 NA
ATOM     12  C   UNL     1      -2.133   1.937  24.729  0.00  0.00    +0.237 A 
ATOM     13  N   UNL     1      -2.931   1.828  24.905  0.00  0.00    -0.212 NA
ATOM     14  C   UNL     1      -3.464   2.450  24.811  0.00  0.00    +0.086 A 
ATOM     15  C   UNL     1      -3.199   3.183  24.540  0.00  0.00    +0.040 A 
ATOM     16  C   UNL     1      -2.400   3.293  24.364  0.00  0.00    +0.103 A 
ATOM     17  N   UNL     1      -1.867   2.670  24.458  0.00  0.00    -0.211 NA
BRANCH  14  18
ATOM     18  C   UNL     1      -4.262   2.341  24.987  0.00  0.00    +0.018 A 
ATOM     19  C   UNL     1      -4.639   2.843  25.525  0.00  0.00    +0.001 A 
ATOM     20  C   UNL     1      -5.437   2.733  25.701  0.00  0.00    +0.000 A 
ATOM     21  C   UNL     1      -5.859   2.123  25.341  0.00  0.00    +0.000 A 
ATOM     22  C   UNL     1      -5.483   1.622  24.804  0.00  0.00    +0.000 A 
ATOM     23  C   UNL     1      -4.684   1.731  24.628  0.00  0.00    +0.001 A 
ENDBRANCH  14  18
ENDBRANCH   7  11
BRANCH   3   2
ATOM      2  O   UNL     1       1.670   0.904  23.448  0.00  0.00    -0.346 OA
BRANCH   2   1
ATOM      1  C   UNL     1       2.072   0.348  22.990  0.00  0.00    +0.169 C 
BRANCH   1  24
ATOM     24  C   UNL     1       2.896   0.361  22.953  0.00  0.00    +0.007 A 
ATOM     25  C   UNL     1       3.286   1.029  22.666  0.00  0.00    -0.002 A 
ATOM     26  C   UNL     1       4.110   1.041  22.630  0.00  0.00    -0.000 A 
ATOM     27  C   UNL     1       4.545   0.386  22.881  0.00  0.00    -0.000 A 
ATOM     28  C   UNL     1       4.155  -0.281  23.168  0.00  0.00    -0.000 A 
ATOM     29  C   UNL     1       3.330  -0.295  23.204  0.00  0.00    -0.002 A 
ENDBRANCH   1  24
ENDBRANCH   2   1
ENDBRANCH   3   2
TORSDOF 5
ENDMDL
MODEL 2
REMARK VINA RESULT:      -9.6      1.688      2.270
REMARK  Name = 
REMARK  5 active torsions:
REMARK  status: ('A' for Active; 'I' for Inactive)
REMARK    1  A    between atoms: C_1  and  O_2
REMARK    2  A    between atoms: C_1  and  C_24
REMARK    3  A    between atoms: O_2  and  C_3
REMARK    4  A    between atoms: C_7  and  N_11
REMARK    5  A    between atoms: C_14  and  C_18
REMARK                            x       y       z     vdW  Elec       q    Type
REMARK                         _______ _______ _______ _____ _____    ______ ____
ROOT
ATOM      3  C   UNL     1       2.122   0.410  22.971  0.00  0.00    +0.175 C 
ATOM      4  C   UNL     1       1.773  -0.130  22.454  0.00  0.00    +0.174 C 
ATOM      5  O   UNL     1       0.957  -0.102  22.570  0.00  0.00    -0.349 OA
ATOM      6  C   UNL     1       0.801   0.455  23.157  0.00  0.00    +0.167 C 
ATOM      7  C   UNL     1       0.201   0.817  23.592  0.00  0.00    +0.154 C 
ATOM      8  C   UNL     1       0.549   1.356  24.109  0.00  0.00    +0.166 C 
ATOM      9  O   UNL     1       1.365   1.328  23.994  0.00  0.00    -0.349 OA
ATOM     10  C   UNL     1       1.521   0.771  23.406  0.00  0.00    +0.173 C 
ENDROOT
BRANCH   7  11
ATOM     11  N   UNL     1      -0.608   0.665  23.522  0.00  0.00    -0.200 NA
ATOM     12  C   UNL     1      -1.032   0.378  24.169  0.00  0.00    +0.237 A 
ATOM     13  N   UNL     1      -1.839   0.226  24.099  0.00  0.00    -0.212 NA
ATOM     14  C   UNL     1      -2.263  -0.061  24.746  0.00  0.00    +0.086 A 
ATOM     15  C   UNL     1      -1.879  -0.195  25.464  0.00  0.00    +0.040 A 
ATOM     16  C   UNL     1      -1.071  -0.044  25.534  0.00  0.00    +0.103 A 
ATOM     17  N   UNL     1      -0.647   0.243  24.887  0.00  0.00    -0.211 NA
BRANCH  14  18
ATOM     18  C   UNL     1      -3.070  -0.212  24.676  0.00  0.00    +0.018 A 
ATOM     19  C   UNL     1      -3.331  -0.964  24.452  0.00  0.00    +0.001 A 
ATOM     20  C   UNL     1      -4.139  -1.115  24.382  0.00  0.00    +0.000 A 
ATOM     21  C   UNL     1      -4.686  -0.518  24.536  0.00  0.00    +0.000 A 
ATOM     22  C   UNL     1      -4.426   0.232  24.760  0.00  0.00    +0.000 A 
ATOM     23  C   UNL     1      -3.618   0.384  24.830  0.00  0.00    +0.001 A 
ENDBRANCH  14  18
ENDBRANCH   7  11
BRANCH   3   2
ATOM      2  O   UNL     1       2.930   0.562  23.042  0.00  0.00    -0.346 OA
BRANCH   2   1
ATOM      1  C   UNL     1       3.478  -0.025  22.853  0.00  0.00    +0.169 C 
BRANCH   1  24
ATOM     24  C   UNL     1       4.227  -0.017  23.199  0.00  0.00    +0.007 A 
ATOM     25  C   UNL     1       4.703   0.653  23.137  0.00  0.00    -0.002 A 
ATOM     26  C   UNL     1       5.452   0.660  23.484  0.00  0.00    -0.000 A 
ATOM     27  C   UNL     1       5.724  -0.003  23.893  0.00  0.00    -0.000 A 
ATOM     28  C   UNL     1       5.247  -0.673  23.955  0.00  0.00    -0.000 A 
ATOM     29  C   UNL     1       4.498  -0.681  23.608  0.00  0.00    -0.002 A 
ENDBRANCH   1  24
ENDBRANCH   2   1
ENDBRANCH   3   2
TORSDOF 5
ENDMDL
MODEL 3
REMARK VINA RESULT:      -8.8      1.334      6.668
REMARK  Name = 
REMARK  5 active torsions:
REMARK  status: ('A' for Active; 'I' for Inactive)
REMARK    1  A    between atoms: C_1  and  O_2
REMARK    2  A    between atoms: C_1  and  C_24
REMARK    3  A    between atoms: O_2  and  C_3
REMARK    4  A    between atoms: C_7  and  N_11
REMARK    5  A    between atoms: C_14  and  C_18
REMARK                            x       y       z     vdW  Elec       q    Type
REMARK                         _______ _______ _______ _____ _____    ______ ____
ROOT
ATOM      3  C   UNL     1      -2.487   2.350  24.678  0.00  0.00    +0.175 C 
ATOM      4  C   UNL     1      -2.253   2.856  24.071  0.00  0.00    +0.174 C 
ATOM      5  O   UNL     1      -1.462   2.699  23.900  0.00  0.00    -0.349 OA
ATOM      6  C   UNL     1      -1.207   2.096  24.401  0.00  0.00    +0.167 C 
ATOM      7  C   UNL     1      -0.561   1.625  24.605  0.00  0.00    +0.154 C 
ATOM      8  C   UNL     1      -0.796   1.119  25.212  0.00  0.00    +0.166 C 
ATOM      9  O   UNL     1      -1.587   1.276  25.384  0.00  0.00    -0.349 OA
ATOM     10  C   UNL     1      -1.841   1.880  24.882  0.00  0.00    +0.173 C 
ENDROOT
BRANCH   7  11
ATOM     11  N   UNL     1       0.189   1.656  24.262  0.00  0.00    -0.200 NA
ATOM     12  C   UNL     1       0.492   0.995  23.872  0.00  0.00    +0.237 A 
ATOM     13  N   UNL     1       1.241   1.026  23.529  0.00  0.00    -0.212 NA
ATOM     14  C   UNL     1       1.544   0.365  23.138  0.00  0.00    +0.086 A 
ATOM     15  C   UNL     1       1.097  -0.327  23.092  0.00  0.00    +0.040 A 
ATOM     16  C   UNL     1       0.347  -0.358  23.435  0.00  0.00    +0.103 A 
ATOM     17  N   UNL     1       0.045   0.303  23.825  0.00  0.00    -0.211 NA
BRANCH  14  18
ATOM     18  C   UNL     1       2.293   0.396  22.795  0.00  0.00    +0.018 A 
ATOM     19  C   UNL     1       2.911   0.779  23.188  0.00  0.00    +0.001 A 
ATOM     20  C   UNL     1       3.660   0.809  22.845  0.00  0.00    +0.000 A 
ATOM     21  C   UNL     1       3.793   0.458  22.110  0.00  0.00    +0.000 A 
ATOM     22  C   UNL     1       3.176   0.076  21.718  0.00  0.00    +0.000 A 
ATOM     23  C   UNL     1       2.426   0.045  22.062  0.00  0.00    +0.001 A 
ENDBRANCH  14  18
ENDBRANCH   7  11
BRANCH   3   2
ATOM      2  O   UNL     1      -3.237   2.319  25.022  0.00  0.00    -0.346 OA
BRANCH   2   1
ATOM      1  C   UNL     1      -3.891   2.612  24.612  0.00  0.00    +0.169 C 
BRANCH   1  24
ATOM     24  C   UNL     1      -4.649   2.518  24.924  0.00  0.00    +0.007 A 
ATOM     25  C   UNL     1      -5.093   1.848  24.735  0.00  0.00    -0.002 A 
ATOM     26  C   UNL     1      -5.850   1.754  25.047  0.00  0.00    -0.000 A 
ATOM     27  C   UNL     1      -6.165   2.330  25.547  0.00  0.00    -0.000 A 
ATOM     28  C   UNL     1      -5.722   2.999  25.736  0.00  0.00    -0.000 A 
ATOM     29  C   UNL     1      -4.963   3.093  25.425  0.00  0.00    -0.002 A 
ENDBRANCH   1  24
ENDBRANCH   2   1
ENDBRANCH   3   2
TORSDOF 5
ENDMDL
MODEL 4
REMARK VINA RESULT:      -8.0      2.898      4.723
REMARK  Name = 
REMARK  5 active torsions:
REMARK  status: ('A' for Active; 'I' for Inactive)
REMARK    1  A    between atoms: C_1  and  O_2
REMARK    2  A    between atoms: C_1  and  C_24
REMARK    3  A    between atoms: O_2  and  C_3
REMARK    4  A    between atoms: C_7  and  N_11
REMARK    5  A    between atoms: C_14  and  C_18
REMARK                            x       y       z     vdW  Elec       q    Type
REMARK                         _______ _______ _______ _____ _____    ______ ____
ROOT
ATOM      3  C   UNL     1      -0.675   2.608  24.499  0.00  0.00    +0.175 C 
ATOM      4  C   UNL     1      -0.271   2.064  24.969  0.00  0.00    +0.174 C 
ATOM      5  O   UNL     1      -0.586   1.317  24.821  0.00  0.00    -0.349 OA
ATOM      6  C   UNL     1      -1.185   1.398  24.261  0.00  0.00    +0.167 C 
ATOM      7  C   UNL     1      -1.751   0.987  23.823  0.00  0.00    +0.154 C 
ATOM      8  C   UNL     1      -2.156   1.531  23.354  0.00  0.00    +0.166 C 
ATOM      9  O   UNL     1      -1.840   2.279  23.501  0.00  0.00    -0.349 OA
ATOM     10  C   UNL     1      -1.240   2.197  24.062  0.00  0.00    +0.173 C 
ENDROOT
BRANCH   7  11
ATOM     11  N   UNL     1      -1.888   0.174  23.851  0.00  0.00    -0.200 NA
ATOM     12  C   UNL     1      -2.627  -0.113  24.078  0.00  0.00    +0.237 A 
ATOM     13  N   UNL     1      -2.764  -0.926  24.105  0.00  0.00    -0.212 NA
ATOM     14  C   UNL     1      -3.503  -1.213  24.333  0.00  0.00    +0.086 A 
ATOM     15  C   UNL     1      -4.106  -0.686  24.533  0.00  0.00    +0.040 A 
ATOM     16  C   UNL     1      -3.969   0.127  24.506  0.00  0.00    +0.103 A 
ATOM     17  N   UNL     1      -3.230   0.413  24.278  0.00  0.00    -0.211 NA
BRANCH  14  18
ATOM     18  C   UNL     1      -3.640  -2.025  24.360  0.00  0.00    +0.018 A 
ATOM     19  C   UNL     1      -3.319  -2.478  24.973  0.00  0.00    +0.001 A 
ATOM     20  C   UNL     1      -3.456  -3.290  25.000  0.00  0.00    +0.000 A 
ATOM     21  C   UNL     1      -3.913  -3.652  24.417  0.00  0.00    +0.000 A 
ATOM     22  C   UNL     1      -4.234  -3.200  23.805  0.00  0.00    +0.000 A 
ATOM     23  C   UNL     1      -4.097  -2.387  23.777  0.00  0.00    +0.001 A 
ENDBRANCH  14  18
ENDBRANCH   7  11
BRANCH   3   2
ATOM      2  O   UNL     1      -0.539   3.422  24.472  0.00  0.00    -0.346 OA
BRANCH   2   1
ATOM      1  C   UNL     1      -0.637   3.880  25.151  0.00  0.00    +0.169 C 
BRANCH   1  24
ATOM     24  C   UNL     1      -0.987   4.625  25.098  0.00  0.00    +0.007 A 
ATOM     25  C   UNL     1      -0.584   5.246  24.734  0.00  0.00    -0.002 A 
ATOM     26  C   UNL     1      -0.934   5.990  24.682  0.00  0.00    -0.000 A 
ATOM     27  C   UNL     1      -1.687   6.116  24.994  0.00  0.00    -0.000 A 
ATOM     28  C   UNL     1      -2.091   5.495  25.358  0.00  0.00    -0.000 A 
ATOM     29  C   UNL     1      -1.741   4.749  25.410  0.00  0.00    -0.002 A 
ENDBRANCH   1  24
ENDBRANCH   2   1
ENDBRANCH   3   2
TORSDOF 5
ENDMDL
MODEL 5
REMARK VINA RESULT:      -7.3     15.257     16.308
REMARK  Name = 
REMARK  5 active torsions:
REMARK  status: ('A' for Active; 'I' for Inactive)
REMARK    1  A    between atoms: C_1  and  O_2
REMARK    2  A    between atoms: C_1  and  C_24
REMARK    3  A    between atoms: O_2  and  C_3
REMARK    4  A    between atoms: C_7  and  N_11
REMARK    5  A    between atoms: C_14  and  C_18
REMARK                            x       y       z     vdW  Elec       q    Type
REMARK                         _______ _______ _______ _____ _____    ______ ____
ROOT
ATOM      3  C   UNL     1      -5.464  -9.648  12.410  0.00  0.00    +0.175 C 
ATOM      4  C   UNL     1      -6.129  -9.210  12.623  0.00  0.00    +0.174 C 
ATOM      5  O   UNL     1      -6.298  -9.371  13.414  0.00  0.00    -0.349 OA
ATOM      6  C   UNL     1      -5.738  -9.909  13.690  0.00  0.00    +0.167 C 
ATOM      7  C   UNL     1      -5.496 -10.343  14.349  0.00  0.00    +0.154 C 
ATOM      8  C   UNL     1      -4.830 -10.781  14.136  0.00  0.00    +0.166 C 
ATOM      9  O   UNL     1      -4.661 -10.619  13.346  0.00  0.00    -0.349 OA
ATOM     10  C   UNL     1      -5.222 -10.080  13.069  0.00  0.00    +0.173 C 
ENDROOT
BRANCH   7  11
ATOM     11  N   UNL     1      -5.857 -10.338  15.091  0.00  0.00    -0.200 NA
ATOM     12  C   UNL     1      -5.402 -10.443  15.772  0.00  0.00    +0.237 A 
ATOM     13  N   UNL     1      -5.762 -10.438  16.513  0.00  0.00    -0.212 NA
ATOM     14  C   UNL     1      -5.308 -10.544  17.194  0.00  0.00    +0.086 A 
ATOM     15  C   UNL     1      -4.493 -10.655  17.132  0.00  0.00    +0.040 A 
ATOM     16  C   UNL     1      -4.132 -10.660  16.390  0.00  0.00    +0.103 A 
ATOM     17  N   UNL     1      -4.587 -10.554  15.710  0.00  0.00    -0.211 NA
BRANCH  14  18
ATOM     18  C   UNL     1      -5.668 -10.539  17.936  0.00  0.00    +0.018 A 
ATOM     19  C   UNL     1      -5.243 -10.779  18.603  0.00  0.00    +0.001 A 
ATOM     20  C   UNL     1      -5.603 -10.774  19.344  0.00  0.00    +0.000 A 
ATOM     21  C   UNL     1      -6.387 -10.530  19.421  0.00  0.00    +0.000 A 
ATOM     22  C   UNL     1      -6.811 -10.290  18.755  0.00  0.00    +0.000 A 
ATOM     23  C   UNL     1      -6.451 -10.295  18.013  0.00  0.00    +0.001 A 
ENDBRANCH  14  18
ENDBRANCH   7  11
BRANCH   3   2
ATOM      2  O   UNL     1      -5.103  -9.653  11.668  0.00  0.00    -0.346 OA
BRANCH   2   1
ATOM      1  C   UNL     1      -5.282  -9.064  11.118  0.00  0.00    +0.169 C 
BRANCH   1  24
ATOM     24  C   UNL     1      -4.900  -9.053  10.387  0.00  0.00    +0.007 A 
ATOM     25  C   UNL     1      -5.333  -9.170   9.694  0.00  0.00    -0.002 A 
ATOM     26  C   UNL     1      -4.951  -9.158   8.963  0.00  0.00    -0.000 A 
ATOM     27  C   UNL     1      -4.137  -9.030   8.924  0.00  0.00    -0.000 A 
ATOM     28  C   UNL     1      -3.704  -8.913   9.617  0.00  0.00    -0.000 A 
ATOM     29  C   UNL     1      -4.086  -8.925  10.349  0.00  0.00    -0.002 A 
ENDBRANCH   1  24
ENDBRANCH   2   1
ENDBRANCH   3   2
TORSDOF 5
ENDMDL
MODEL 6
REMARK VINA RESULT:      -6.7     15.429     16.336
REMARK  Name = 
REMARK  5 active torsions:
REMARK  status: ('A' for Active; 'I' for Inactive)
REMARK    1  A    between atoms: C_1  and  O_2
REMARK    2  A    between atoms: C_1  and  C_24
REMARK    3  A    between atoms: O_2  and  C_3
REMARK    4  A    between atoms: C_7  and  N_11
REMARK    5  A    between atoms: C_14  and  C_18
REMARK                            x       y       z     vdW  Elec       q    Type
REMARK                         _______ _______ _______ _____ _____    ______ ____
ROOT
ATOM      3  C   UNL     1      -6.014  -9.482  12.408  0.00  0.00    +0.175 C 
ATOM      4  C   UNL     1      -6.776  -9.205  12.255  0.00  0.00    +0.174 C 
ATOM      5  O   UNL     1      -7.244  -9.374  12.913  0.00  0.00    -0.349 OA
ATOM      6  C   UNL     1      -6.773  -9.754  13.472  0.00  0.00    +0.167 C 
ATOM      7  C   UNL     1      -6.769 -10.093  14.224  0.00  0.00    +0.154 C 
ATOM      8  C   UNL     1      -6.008 -10.370  14.376  0.00  0.00    +0.166 C 
ATOM      9  O   UNL     1      -5.539 -10.202  13.719  0.00  0.00    -0.349 OA
ATOM     10  C   UNL     1      -6.012  -9.821  13.159  0.00  0.00    +0.173 C 
ENDROOT
BRANCH   7  11
ATOM     11  N   UNL     1      -7.416 -10.147  14.734  0.00  0.00    -0.200 NA
ATOM     12  C   UNL     1      -7.334  -9.937  15.528  0.00  0.00    +0.237 A 
ATOM     13  N   UNL     1      -7.979  -9.990  16.037  0.00  0.00    -0.212 NA
ATOM     14  C   UNL     1      -7.897  -9.781  16.831  0.00  0.00    +0.086 A 
ATOM     15  C   UNL     1      -7.169  -9.518  17.115  0.00  0.00    +0.040 A 
ATOM     16  C   UNL     1      -6.522  -9.465  16.605  0.00  0.00    +0.103 A 
ATOM     17  N   UNL     1      -6.605  -9.675  15.811  0.00  0.00    -0.211 NA
BRANCH  14  18
ATOM     18  C   UNL     1      -8.543  -9.834  17.341  0.00  0.00    +0.018 A 
ATOM     19  C   UNL     1      -9.107  -9.230  17.358  0.00  0.00    +0.001 A 
ATOM     20  C   UNL     1      -9.752  -9.283  17.868  0.00  0.00    +0.000 A 
ATOM     21  C   UNL     1      -9.836  -9.939  18.361  0.00  0.00    +0.000 A 
ATOM     22  C   UNL     1      -9.273 -10.542  18.345  0.00  0.00    +0.000 A 
ATOM     23  C   UNL     1      -8.627 -10.489  17.834  0.00  0.00    +0.001 A 
ENDBRANCH  14  18
ENDBRANCH   7  11
BRANCH   3   2
ATOM      2  O   UNL     1      -5.368  -9.429  11.898  0.00  0.00    -0.346 OA
BRANCH   2   1
ATOM      1  C   UNL     1      -5.449  -9.058  11.165  0.00  0.00    +0.169 C 
BRANCH   1  24
ATOM     24  C   UNL     1      -4.829  -9.077  10.621  0.00  0.00    +0.007 A 
ATOM     25  C   UNL     1      -4.069  -9.279  10.870  0.00  0.00    -0.002 A 
ATOM     26  C   UNL     1      -3.449  -9.298  10.326  0.00  0.00    -0.000 A 
ATOM     27  C   UNL     1      -3.589  -9.115   9.534  0.00  0.00    -0.000 A 
ATOM     28  C   UNL     1      -4.349  -8.913   9.285  0.00  0.00    -0.000 A 
ATOM     29  C   UNL     1      -4.970  -8.894   9.829  0.00  0.00    -0.002 A 
ENDBRANCH   1  24
ENDBRANCH   2   1
ENDBRANCH   3   2
TORSDOF 5
ENDMDL
MODEL 7
REMARK VINA RESULT:      -6.1     16.523     18.108
REMARK  Name = 
REMARK  5 active torsions:
REMARK  status: ('A' for Active; 'I' for Inactive)
REMARK    1  A    between atoms: C_1  and  O_2
REMARK    2  A    between atoms: C_1  and  C_24
REMARK    3  A    between atoms: O_2  and  C_3
REMARK    4  A    between atoms: C_7  and  N_11
REMARK    5  A    between atoms: C_14  and  C_18
REMARK                            x       y       z     vdW  Elec       q    Type
REMARK                         _______ _______ _______ _____ _____    ______ ____
ROOT
ATOM      3  C   UNL     1      -6.347  -9.429  10.922  0.00  0.00    +0.175 C 
ATOM      4  C   UNL     1      -6.520  -8.925  11.552  0.00  0.00    +0.174 C 
ATOM      5  O   UNL     1      -6.020  -9.119  12.178  0.00  0.00    -0.349 OA
ATOM      6  C   UNL     1      -5.537  -9.741  11.936  0.00  0.00    +0.167 C 
ATOM      7  C   UNL     1      -4.929 -10.246  12.172  0.00  0.00    +0.154 C 
ATOM      8  C   UNL     1      -4.755 -10.750  11.543  0.00  0.00    +0.166 C 
ATOM      9  O   UNL     1      -5.255 -10.556  10.916  0.00  0.00    -0.349 OA
ATOM     10  C   UNL     1      -5.739  -9.933  11.159  0.00  0.00    +0.173 C 
ENDROOT
BRANCH   7  11
ATOM     11  N   UNL     1      -4.559 -10.247  12.910  0.00  0.00    -0.200 NA
ATOM     12  C   UNL     1      -3.740 -10.330  12.961  0.00  0.00    +0.237 A 
ATOM     13  N   UNL     1      -3.370 -10.331  13.698  0.00  0.00    -0.212 NA
ATOM     14  C   UNL     1      -2.551 -10.414  13.750  0.00  0.00    +0.086 A 
ATOM     15  C   UNL     1      -2.101 -10.497  13.063  0.00  0.00    +0.040 A 
ATOM     16  C   UNL     1      -2.471 -10.496  12.325  0.00  0.00    +0.103 A 
ATOM     17  N   UNL     1      -3.290 -10.413  12.275  0.00  0.00    -0.211 NA
BRANCH  14  18
ATOM     18  C   UNL     1      -2.181 -10.415  14.487  0.00  0.00    +0.018 A 
ATOM     19  C   UNL     1      -2.547 -10.780  15.131  0.00  0.00    +0.001 A 
ATOM     20  C   UNL     1      -2.177 -10.781  15.868  0.00  0.00    +0.000 A 
ATOM     21  C   UNL     1      -1.443 -10.417  15.962  0.00  0.00    +0.000 A 
ATOM     22  C   UNL     1      -1.078 -10.053  15.319  0.00  0.00    +0.000 A 
ATOM     23  C   UNL     1      -1.447 -10.052  14.581  0.00  0.00    +0.001 A 
ENDBRANCH  14  18
ENDBRANCH   7  11
BRANCH   3   2
ATOM      2  O   UNL     1      -6.716  -9.428  10.184  0.00  0.00    -0.346 OA
BRANCH   2   1
ATOM      1  C   UNL     1      -7.005  -8.723   9.868  0.00  0.00    +0.169 C 
BRANCH   1  24
ATOM     24  C   UNL     1      -7.599  -8.740   9.295  0.00  0.00    +0.007 A 
ATOM     25  C   UNL     1      -8.213  -8.190   9.321  0.00  0.00    -0.002 A 
ATOM     26  C   UNL     1      -8.806  -8.208   8.749  0.00  0.00    -0.000 A 
ATOM     27  C   UNL     1      -8.786  -8.775   8.150  0.00  0.00    -0.000 A 
ATOM     28  C   UNL     1      -8.172  -9.325   8.124  0.00  0.00    -0.000 A 
ATOM     29  C   UNL     1      -7.578  -9.308   8.697  0.00  0.00    -0.002 A 
ENDBRANCH   1  24
ENDBRANCH   2   1
ENDBRANCH   3   2
TORSDOF 5
ENDMDL
MODEL 8
REMARK VINA RESULT:      -6.1     17.556     19.163
REMARK  Name = 
REMARK  5 active torsions:
REMARK  status: ('A' for Active; 'I' for Inactive)
REMARK    1  A    between atoms: C_1  and  O_2
REMARK    2  A    between atoms: C_1  and  C_24
REMARK    3  A    between atoms: O_2  and  C_3
REMARK    4  A    between atoms: C_7  and  N_11
REMARK    5  A    between atoms: C_14  and  C_18
REMARK                            x       y       z     vdW  Elec       q    Type
REMARK                         _______ _______ _______ _____ _____    ______ ____
ROOT
ATOM      3  C   UNL     1      -7.723  -7.489   8.843  0.00  0.00    +0.175 C 
ATOM      4  C   UNL     1      -7.010  -7.186   8.560  0.00  0.00    +0.174 C 
ATOM      5  O   UNL     1      -6.401  -7.668   8.837  0.00  0.00    -0.349 OA
ATOM      6  C   UNL     1      -6.737  -8.269   9.291  0.00  0.00    +0.167 C 
ATOM      7  C   UNL     1      -6.570  -8.938   9.743  0.00  0.00    +0.154 C 
ATOM      8  C   UNL     1      -7.283  -9.241  10.026  0.00  0.00    +0.166 C 
ATOM      9  O   UNL     1      -7.892  -8.759   9.749  0.00  0.00    -0.349 OA
ATOM     10  C   UNL     1      -7.555  -8.158   9.294  0.00  0.00    +0.173 C 
ENDROOT
BRANCH   7  11
ATOM     11  N   UNL     1      -5.819  -9.251   9.887  0.00  0.00    -0.200 NA
ATOM     12  C   UNL     1      -5.572  -9.392  10.661  0.00  0.00    +0.237 A 
ATOM     13  N   UNL     1      -4.823  -9.704  10.805  0.00  0.00    -0.212 NA
ATOM     14  C   UNL     1      -4.576  -9.845  11.579  0.00  0.00    +0.086 A 
ATOM     15  C   UNL     1      -5.079  -9.675  12.210  0.00  0.00    +0.040 A 
ATOM     16  C   UNL     1      -5.830  -9.362  12.066  0.00  0.00    +0.103 A 
ATOM     17  N   UNL     1      -6.076  -9.221  11.292  0.00  0.00    -0.211 NA
BRANCH  14  18
ATOM     18  C   UNL     1      -3.826 -10.157  11.723  0.00  0.00    +0.018 A 
ATOM     19  C   UNL     1      -3.608 -10.368  12.492  0.00  0.00    +0.001 A 
ATOM     20  C   UNL     1      -2.858 -10.680  12.636  0.00  0.00    +0.000 A 
ATOM     21  C   UNL     1      -2.326 -10.781  12.013  0.00  0.00    +0.000 A 
ATOM     22  C   UNL     1      -2.545 -10.570  11.246  0.00  0.00    +0.000 A 
ATOM     23  C   UNL     1      -3.295 -10.258  11.102  0.00  0.00    +0.001 A 
ENDBRANCH  14  18
ENDBRANCH   7  11
BRANCH   3   2
ATOM      2  O   UNL     1      -8.473  -7.177   8.699  0.00  0.00    -0.346 OA
BRANCH   2   1
ATOM      1  C   UNL     1      -8.551  -6.423   8.372  0.00  0.00    +0.169 C 
BRANCH   1  24
ATOM     24  C   UNL     1      -9.274  -6.027   8.415  0.00  0.00    +0.007 A 
ATOM     25  C   UNL     1      -9.291  -5.215   8.559  0.00  0.00    -0.002 A 
ATOM     26  C   UNL     1     -10.013  -4.820   8.602  0.00  0.00    -0.000 A 
ATOM     27  C   UNL     1     -10.719  -5.235   8.502  0.00  0.00    -0.000 A 
ATOM     28  C   UNL     1     -10.701  -6.047   8.358  0.00  0.00    -0.000 A 
ATOM     29  C   UNL     1      -9.979  -6.444   8.314  0.00  0.00    -0.002 A 
ENDBRANCH   1  24
ENDBRANCH   2   1
ENDBRANCH   3   2
TORSDOF 5
ENDMDL
