MODEL 1
REMARK VINA RESULT:     -10.6      0.000      0.000
REMARK  Name = 
REMARK  4 active torsions:
REMARK  status: ('A' for Active; 'I' for Inactive)
REMARK    1  A    between atoms: N_2  and  C_3
REMARK    2  A    between atoms: C_6  and  C_9
REMARK    3  A    between atoms: C_12  and  C_14
REMARK    4  A    between atoms: N_18  and  C_19
REMARK                            x       y       z     vdW  Elec       q    Type
REMARK                         _______ _______ _______ _____ _____    ______ ____
ROOT
ATOM      9  C   UNL     1      -3.750   0.785  24.406  0.00  0.00    +0.205 A 
ATOM     10  N   UNL     1      -3.688   1.247  23.726  0.00  0.00    -0.056 NA
ATOM     11  O   UNL     1      -4.038   1.977  23.881  0.00  0.00    -0.336 OA
ATOM     12  C   UNL     1      -4.318   1.965  24.658  0.00  0.00    +0.251 A 
ATOM     13  N   UNL     1      -4.140   1.229  24.981  0.00  0.00    -0.190 NA
ENDROOT
BRANCH   9   6
ATOM      3  C   UNL     1      -2.914  -1.530  24.673  0.00  0.00    +0.148 A 
ATOM      4  C   UNL     1      -3.684  -1.398  24.410  0.00  0.00    +0.036 A 
ATOM      5  C   UNL     1      -3.963  -0.626  24.321  0.00  0.00    +0.008 A 
ATOM      6  C   UNL     1      -3.471   0.013  24.495  0.00  0.00    +0.058 A 
ATOM      7  C   UNL     1      -2.700  -0.120  24.758  0.00  0.00    +0.103 A 
ATOM      8  N   UNL     1      -2.422  -0.891  24.847  0.00  0.00    -0.228 NA
BRANCH   3   2
ATOM      1  C   UNL     1      -1.925  -2.527  24.407  0.00  0.00    +0.137 C 
ATOM      2  N   UNL     1      -2.636  -2.301  24.761  0.00  0.00    -0.218 NA
ENDBRANCH   3   2
ENDBRANCH   9   6
BRANCH  12  14
ATOM     14  C   UNL     1      -4.708   2.583  25.041  0.00  0.00    +0.138 C 
ATOM     15  C   UNL     1      -5.515   2.620  25.207  0.00  0.00    +0.027 C 
ATOM     16  C   UNL     1      -5.663   3.333  25.594  0.00  0.00    +0.019 C 
ATOM     17  C   UNL     1      -4.947   3.737  25.669  0.00  0.00    +0.072 C 
ATOM     18  N   UNL     1      -4.357   3.274  25.327  0.00  0.00    -0.268 NA
BRANCH  18  19
ATOM     19  C   UNL     1      -3.556   3.466  25.279  0.00  0.00    +0.061 C 
ATOM     20  C   UNL     1      -3.051   3.286  25.907  0.00  0.00    +0.033 C 
ATOM     21  C   UNL     1      -2.250   3.478  25.859  0.00  0.00    +0.074 C 
ATOM     22  N   UNL     1      -1.953   3.849  25.184  0.00  0.00    -0.271 NA
ATOM     23  C   UNL     1      -1.153   4.040  25.137  0.00  0.00    +0.090 C 
ATOM     24  C   UNL     1      -2.458   4.028  24.557  0.00  0.00    +0.074 C 
ATOM     25  C   UNL     1      -3.260   3.837  24.605  0.00  0.00    +0.033 C 
ENDBRANCH  18  19
ENDBRANCH  12  14
TORSDOF 4
ENDMDL
MODEL 2
REMARK VINA RESULT:     -10.3      0.967      2.207
REMARK  Name = 
REMARK  4 active torsions:
REMARK  status: ('A' for Active; 'I' for Inactive)
REMARK    1  A    between atoms: N_2  and  C_3
REMARK    2  A    between atoms: C_6  and  C_9
REMARK    3  A    between atoms: C_12  and  C_14
REMARK    4  A    between atoms: N_18  and  C_19
REMARK                            x       y       z     vdW  Elec       q    Type
REMARK                         _______ _______ _______ _____ _____    ______ ____
ROOT
ATOM      9  C   UNL     1      -2.625   0.926  24.354  0.00  0.00    +0.205 A 
ATOM     10  N   UNL     1      -2.731   1.264  23.610  0.00  0.00    -0.056 NA
ATOM     11  O   UNL     1      -2.435   2.033  23.634  0.00  0.00    -0.336 OA
ATOM     12  C   UNL     1      -2.146   2.170  24.395  0.00  0.00    +0.251 A 
ATOM     13  N   UNL     1      -2.263   1.486  24.839  0.00  0.00    -0.190 NA
ENDROOT
BRANCH   9   6
ATOM      3  C   UNL     1      -3.278  -1.368  25.017  0.00  0.00    +0.148 A 
ATOM      4  C   UNL     1      -3.857  -0.817  24.815  0.00  0.00    +0.036 A 
ATOM      5  C   UNL     1      -3.639  -0.052  24.593  0.00  0.00    +0.008 A 
ATOM      6  C   UNL     1      -2.843   0.161  24.575  0.00  0.00    +0.058 A 
ATOM      7  C   UNL     1      -2.263  -0.391  24.779  0.00  0.00    +0.103 A 
ATOM      8  N   UNL     1      -2.481  -1.155  25.000  0.00  0.00    -0.228 NA
BRANCH   3   2
ATOM      1  C   UNL     1      -3.512  -2.736  24.675  0.00  0.00    +0.137 C 
ATOM      2  N   UNL     1      -3.496  -2.132  25.238  0.00  0.00    -0.218 NA
ENDBRANCH   3   2
ENDBRANCH   9   6
BRANCH  12  14
ATOM     14  C   UNL     1      -1.800   2.870  24.662  0.00  0.00    +0.138 C 
ATOM     15  C   UNL     1      -0.995   3.049  24.652  0.00  0.00    +0.027 C 
ATOM     16  C   UNL     1      -0.897   3.804  24.970  0.00  0.00    +0.019 C 
ATOM     17  C   UNL     1      -1.642   4.091  25.177  0.00  0.00    +0.072 C 
ATOM     18  N   UNL     1      -2.200   3.515  24.987  0.00  0.00    -0.268 NA
BRANCH  18  19
ATOM     19  C   UNL     1      -3.015   3.572  25.101  0.00  0.00    +0.061 C 
ATOM     20  C   UNL     1      -3.341   3.393  25.838  0.00  0.00    +0.033 C 
ATOM     21  C   UNL     1      -4.157   3.449  25.953  0.00  0.00    +0.074 C 
ATOM     22  N   UNL     1      -4.646   3.684  25.331  0.00  0.00    -0.271 NA
ATOM     23  C   UNL     1      -5.460   3.740  25.446  0.00  0.00    +0.090 C 
ATOM     24  C   UNL     1      -4.320   3.862  24.595  0.00  0.00    +0.074 C 
ATOM     25  C   UNL     1      -3.504   3.806  24.480  0.00  0.00    +0.033 C 
ENDBRANCH  18  19
ENDBRANCH  12  14
TORSDOF 4
ENDMDL
MODEL 3
REMARK VINA RESULT:     -10.2      1.481      4.259
REMARK  Name = 
REMARK  4 active torsions:
REMARK  status: ('A' for Active; 'I' for Inactive)
REMARK    1  A    between atoms: N_2  and  C_3
REMARK    2  A    between atoms: C_6  and  C_9
REMARK    3  A    between atoms: C_12  and  C_14
REMARK    4  A    between atoms: N_18  and  C_19
REMARK                            x       y       z     vdW  Elec       q    Type
REMARK                         _______ _______ _______ _____ _____    ______ ____
ROOT
ATOM      9  C   UNL     1      -4.212   0.746  24.591  0.00  0.00    +0.205 A 
ATOM     10  N   UNL     1      -4.014   0.632  23.798  0.00  0.00    -0.056 NA
ATOM     11  O   UNL     1      -3.636  -0.097  23.732  0.00  0.00    -0.336 OA
ATOM     12  C   UNL     1      -3.602  -0.435  24.485  0.00  0.00    +0.251 A 
ATOM     13  N   UNL     1      -3.958   0.086  25.014  0.00  0.00    -0.190 NA
ENDROOT
BRANCH   9   6
ATOM      3  C   UNL     1      -5.370   2.721  25.531  0.00  0.00    +0.148 A 
ATOM      4  C   UNL     1      -5.728   1.980  25.564  0.00  0.00    +0.036 A 
ATOM      5  C   UNL     1      -5.342   1.321  25.250  0.00  0.00    +0.008 A 
ATOM      6  C   UNL     1      -4.598   1.405  24.904  0.00  0.00    +0.058 A 
ATOM      7  C   UNL     1      -4.240   2.148  24.872  0.00  0.00    +0.103 A 
ATOM      8  N   UNL     1      -4.626   2.806  25.185  0.00  0.00    -0.228 NA
BRANCH   3   2
ATOM      1  C   UNL     1      -5.555   4.138  25.587  0.00  0.00    +0.137 C 
ATOM      2  N   UNL     1      -5.756   3.380  25.845  0.00  0.00    -0.218 NA
ENDBRANCH   3   2
ENDBRANCH   9   6
BRANCH  12  14
ATOM     14  C   UNL     1      -3.269  -1.167  24.672  0.00  0.00    +0.138 C 
ATOM     15  C   UNL     1      -3.670  -1.885  24.716  0.00  0.00    +0.027 C 
ATOM     16  C   UNL     1      -3.124  -2.470  24.919  0.00  0.00    +0.019 C 
ATOM     17  C   UNL     1      -2.386  -2.112  25.001  0.00  0.00    +0.072 C 
ATOM     18  N   UNL     1      -2.474  -1.307  24.848  0.00  0.00    -0.268 NA
BRANCH  18  19
ATOM     19  C   UNL     1      -1.876  -0.739  24.868  0.00  0.00    +0.061 C 
ATOM     20  C   UNL     1      -1.696  -0.356  25.577  0.00  0.00    +0.033 C 
ATOM     21  C   UNL     1      -1.097   0.212  25.597  0.00  0.00    +0.074 C 
ATOM     22  N   UNL     1      -0.679   0.396  24.910  0.00  0.00    -0.271 NA
ATOM     23  C   UNL     1      -0.080   0.963  24.931  0.00  0.00    +0.090 C 
ATOM     24  C   UNL     1      -0.859   0.012  24.202  0.00  0.00    +0.074 C 
ATOM     25  C   UNL     1      -1.458  -0.556  24.182  0.00  0.00    +0.033 C 
ENDBRANCH  18  19
ENDBRANCH  12  14
TORSDOF 4
ENDMDL
MODEL 4
REMARK VINA RESULT:     -10.2      1.280      2.553
REMARK  Name = 
REMARK  4 active torsions:
REMARK  status: ('A' for Active; 'I' for Inactive)
REMARK    1  A    between atoms: N_2  and  C_3
REMARK    2  A    between atoms: C_6  and  C_9
REMARK    3  A    between atoms: C_12  and  C_14
REMARK    4  A    between atoms: N_18  and  C_19
REMARK                            x       y       z     vdW  Elec       q    Type
REMARK                         _______ _______ _______ _____ _____    ______ ____
ROOT
ATOM      9  C   UNL     1      -1.608   1.487  24.368  0.00  0.00    +0.205 A 
ATOM     10  N   UNL     1      -1.888   1.788  23.654  0.00  0.00    -0.056 NA
ATOM     11  O   UNL     1      -1.894   2.610  23.707  0.00  0.00    -0.336 OA
ATOM     12  C   UNL     1      -1.616   2.819  24.456  0.00  0.00    +0.251 A 
ATOM     13  N   UNL     1      -1.439   2.125  24.864  0.00  0.00    -0.190 NA
ENDROOT
BRANCH   9   6
ATOM      3  C   UNL     1      -1.321  -0.906  24.929  0.00  0.00    +0.148 A 
ATOM      4  C   UNL     1      -2.052  -0.542  25.039  0.00  0.00    +0.036 A 
ATOM      5  C   UNL     1      -2.148   0.256  24.852  0.00  0.00    +0.008 A 
ATOM      6  C   UNL     1      -1.512   0.689  24.555  0.00  0.00    +0.058 A 
ATOM      7  C   UNL     1      -0.779   0.324  24.445  0.00  0.00    +0.103 A 
ATOM      8  N   UNL     1      -0.684  -0.473  24.632  0.00  0.00    -0.228 NA
BRANCH   3   2
ATOM      1  C   UNL     1      -1.654  -2.279  24.705  0.00  0.00    +0.137 C 
ATOM      2  N   UNL     1      -1.225  -1.704  25.115  0.00  0.00    -0.218 NA
ENDBRANCH   3   2
ENDBRANCH   9   6
BRANCH  12  14
ATOM     14  C   UNL     1      -1.530   3.587  24.744  0.00  0.00    +0.138 C 
ATOM     15  C   UNL     1      -0.831   4.023  24.764  0.00  0.00    +0.027 C 
ATOM     16  C   UNL     1      -0.999   4.760  25.096  0.00  0.00    +0.019 C 
ATOM     17  C   UNL     1      -1.803   4.779  25.279  0.00  0.00    +0.072 C 
ATOM     18  N   UNL     1      -2.132   4.055  25.062  0.00  0.00    -0.268 NA
BRANCH  18  19
ATOM     19  C   UNL     1      -2.922   3.835  25.148  0.00  0.00    +0.061 C 
ATOM     20  C   UNL     1      -3.194   3.549  25.873  0.00  0.00    +0.033 C 
ATOM     21  C   UNL     1      -3.985   3.329  25.960  0.00  0.00    +0.074 C 
ATOM     22  N   UNL     1      -4.503   3.394  25.321  0.00  0.00    -0.271 NA
ATOM     23  C   UNL     1      -5.293   3.174  25.407  0.00  0.00    +0.090 C 
ATOM     24  C   UNL     1      -4.232   3.680  24.597  0.00  0.00    +0.074 C 
ATOM     25  C   UNL     1      -3.441   3.900  24.510  0.00  0.00    +0.033 C 
ENDBRANCH  18  19
ENDBRANCH  12  14
TORSDOF 4
ENDMDL
MODEL 5
REMARK VINA RESULT:      -9.8      1.794      4.170
REMARK  Name = 
REMARK  4 active torsions:
REMARK  status: ('A' for Active; 'I' for Inactive)
REMARK    1  A    between atoms: N_2  and  C_3
REMARK    2  A    between atoms: C_6  and  C_9
REMARK    3  A    between atoms: C_12  and  C_14
REMARK    4  A    between atoms: N_18  and  C_19
REMARK                            x       y       z     vdW  Elec       q    Type
REMARK                         _______ _______ _______ _____ _____    ______ ____
ROOT
ATOM      9  C   UNL     1      -3.063   1.853  24.088  0.00  0.00    +0.205 A 
ATOM     10  N   UNL     1      -2.808   1.589  23.350  0.00  0.00    -0.056 NA
ATOM     11  O   UNL     1      -1.987   1.660  23.322  0.00  0.00    -0.336 OA
ATOM     12  C   UNL     1      -1.734   1.968  24.045  0.00  0.00    +0.251 A 
ATOM     13  N   UNL     1      -2.399   2.088  24.517  0.00  0.00    -0.190 NA
ENDROOT
BRANCH   9   6
ATOM      3  C   UNL     1      -5.408   1.930  24.877  0.00  0.00    +0.148 A 
ATOM      4  C   UNL     1      -4.997   1.215  24.873  0.00  0.00    +0.036 A 
ATOM      5  C   UNL     1      -4.216   1.189  24.610  0.00  0.00    +0.008 A 
ATOM      6  C   UNL     1      -3.844   1.879  24.351  0.00  0.00    +0.058 A 
ATOM      7  C   UNL     1      -4.256   2.595  24.355  0.00  0.00    +0.103 A 
ATOM      8  N   UNL     1      -5.037   2.620  24.617  0.00  0.00    -0.228 NA
BRANCH   3   2
ATOM      1  C   UNL     1      -6.352   2.017  25.947  0.00  0.00    +0.137 C 
ATOM      2  N   UNL     1      -6.189   1.955  25.139  0.00  0.00    -0.218 NA
ENDBRANCH   3   2
ENDBRANCH   9   6
BRANCH  12  14
ATOM     14  C   UNL     1      -0.953   2.129  24.256  0.00  0.00    +0.138 C 
ATOM     15  C   UNL     1      -0.578   2.862  24.211  0.00  0.00    +0.027 C 
ATOM     16  C   UNL     1       0.197   2.769  24.477  0.00  0.00    +0.019 C 
ATOM     17  C   UNL     1       0.302   1.978  24.686  0.00  0.00    +0.072 C 
ATOM     18  N   UNL     1      -0.408   1.582  24.550  0.00  0.00    -0.268 NA
BRANCH  18  19
ATOM     19  C   UNL     1      -0.551   0.780  24.683  0.00  0.00    +0.061 C 
ATOM     20  C   UNL     1      -0.410   0.232  24.083  0.00  0.00    +0.033 C 
ATOM     21  C   UNL     1      -0.553  -0.570  24.215  0.00  0.00    +0.074 C 
ATOM     22  N   UNL     1      -0.836  -0.823  24.948  0.00  0.00    -0.271 NA
ATOM     23  C   UNL     1      -0.979  -1.625  25.080  0.00  0.00    +0.090 C 
ATOM     24  C   UNL     1      -0.976  -0.275  25.548  0.00  0.00    +0.074 C 
ATOM     25  C   UNL     1      -0.834   0.527  25.415  0.00  0.00    +0.033 C 
ENDBRANCH  18  19
ENDBRANCH  12  14
TORSDOF 4
ENDMDL
