MODEL 1
REMARK VINA RESULT:      -7.1      0.000      0.000
REMARK  Name = 
REMARK  2 active torsions:
REMARK  status: ('A' for Active; 'I' for Inactive)
REMARK    1  A    between atoms: N_7  and  C_8
REMARK    2  A    between atoms: C_8  and  C_9
REMARK                            x       y       z     vdW  Elec       q    Type
REMARK                         _______ _______ _______ _____ _____    ______ ____
ROOT
ATOM      1  O   UNL     1      -5.652   3.606  25.884  0.00  0.00    -0.251 OA
ATOM      2  C   UNL     1      -4.958   3.321  25.541  0.00  0.00    +0.323 C 
ATOM      3  N   UNL     1      -4.273   3.758  25.398  0.00  0.00    -0.187 NA
ATOM      4  C   UNL     1      -3.719   3.256  25.049  0.00  0.00    +0.138 C 
ATOM      5  C   UNL     1      -4.062   2.510  24.975  0.00  0.00    +0.115 C 
ATOM      6  C   UNL     1      -3.776   1.798  24.671  0.00  0.00    +0.094 C 
ATOM      7  N   UNL     1      -4.256   1.127  24.670  0.00  0.00    -0.264 NA
ATOM     14  C   UNL     1      -5.022   1.168  24.974  0.00  0.00    +0.094 C 
ATOM     15  C   UNL     1      -5.308   1.879  25.278  0.00  0.00    +0.112 C 
ATOM     16  N   UNL     1      -4.828   2.550  25.279  0.00  0.00    -0.260 N 
ENDROOT
BRANCH   7   8
ATOM      8  C   UNL     1      -3.970   0.415  24.365  0.00  0.00    +0.126 C 
BRANCH   8   9
ATOM      9  C   UNL     1      -3.608  -0.131  24.864  0.00  0.00    +0.104 A 
ATOM     10  N   UNL     1      -3.990  -0.628  25.400  0.00  0.00    -0.240 NA
ATOM     11  C   UNL     1      -3.417  -1.082  25.783  0.00  0.00    +0.106 A 
ATOM     12  C   UNL     1      -2.679  -0.865  25.483  0.00  0.00    +0.057 A 
ATOM     13  S   UNL     1      -2.797  -0.278  24.916  0.00  0.00    -0.069 S 
ENDBRANCH   8   9
ENDBRANCH   7   8
TORSDOF 2
ENDMDL
MODEL 2
REMARK VINA RESULT:      -7.0      2.354      3.976
REMARK  Name = 
REMARK  2 active torsions:
REMARK  status: ('A' for Active; 'I' for Inactive)
REMARK    1  A    between atoms: N_7  and  C_8
REMARK    2  A    between atoms: C_8  and  C_9
REMARK                            x       y       z     vdW  Elec       q    Type
REMARK                         _______ _______ _______ _____ _____    ______ ____
ROOT
ATOM      1  O   UNL     1      -3.272  -2.872  25.442  0.00  0.00    -0.251 OA
ATOM      2  C   UNL     1      -3.617  -2.388  24.869  0.00  0.00    +0.323 C 
ATOM      3  N   UNL     1      -3.927  -2.638  24.147  0.00  0.00    -0.187 NA
ATOM      4  C   UNL     1      -4.215  -1.974  23.749  0.00  0.00    +0.138 C 
ATOM      5  C   UNL     1      -4.082  -1.314  24.226  0.00  0.00    +0.115 C 
ATOM      6  C   UNL     1      -4.249  -0.513  24.121  0.00  0.00    +0.094 C 
ATOM      7  N   UNL     1      -4.047   0.031  24.706  0.00  0.00    -0.264 NA
ATOM     14  C   UNL     1      -3.678  -0.225  25.398  0.00  0.00    +0.094 C 
ATOM     15  C   UNL     1      -3.510  -1.025  25.505  0.00  0.00    +0.112 C 
ATOM     16  N   UNL     1      -3.712  -1.571  24.918  0.00  0.00    -0.260 N 
ENDROOT
BRANCH   7   8
ATOM      8  C   UNL     1      -4.214   0.832  24.600  0.00  0.00    +0.126 C 
BRANCH   8   9
ATOM      9  C   UNL     1      -3.636   1.339  24.304  0.00  0.00    +0.104 A 
ATOM     10  N   UNL     1      -3.385   1.385  23.520  0.00  0.00    -0.240 NA
ATOM     11  C   UNL     1      -2.800   1.964  23.472  0.00  0.00    +0.106 A 
ATOM     12  C   UNL     1      -2.688   2.278  24.227  0.00  0.00    +0.057 A 
ATOM     13  S   UNL     1      -3.205   1.892  24.742  0.00  0.00    -0.069 S 
ENDBRANCH   8   9
ENDBRANCH   7   8
TORSDOF 2
ENDMDL
MODEL 3
REMARK VINA RESULT:      -6.9      1.998      2.675
REMARK  Name = 
REMARK  2 active torsions:
REMARK  status: ('A' for Active; 'I' for Inactive)
REMARK    1  A    between atoms: N_7  and  C_8
REMARK    2  A    between atoms: C_8  and  C_9
REMARK                            x       y       z     vdW  Elec       q    Type
REMARK                         _______ _______ _______ _____ _____    ______ ____
ROOT
ATOM      1  O   UNL     1      -5.819   3.150  26.092  0.00  0.00    -0.251 OA
ATOM      2  C   UNL     1      -5.315   2.745  25.580  0.00  0.00    +0.323 C 
ATOM      3  N   UNL     1      -5.510   2.079  25.134  0.00  0.00    -0.187 NA
ATOM      4  C   UNL     1      -4.843   1.857  24.701  0.00  0.00    +0.138 C 
ATOM      5  C   UNL     1      -4.236   2.386  24.880  0.00  0.00    +0.115 C 
ATOM      6  C   UNL     1      -3.455   2.439  24.620  0.00  0.00    +0.094 C 
ATOM      7  N   UNL     1      -2.966   3.040  24.901  0.00  0.00    -0.264 NA
ATOM     14  C   UNL     1      -3.258   3.589  25.444  0.00  0.00    +0.094 C 
ATOM     15  C   UNL     1      -4.038   3.537  25.705  0.00  0.00    +0.112 C 
ATOM     16  N   UNL     1      -4.528   2.934  25.423  0.00  0.00    -0.260 N 
ENDROOT
BRANCH   7   8
ATOM      8  C   UNL     1      -2.185   3.094  24.640  0.00  0.00    +0.126 C 
BRANCH   8   9
ATOM      9  C   UNL     1      -1.574   2.781  25.097  0.00  0.00    +0.104 A 
ATOM     10  N   UNL     1      -1.382   1.982  25.169  0.00  0.00    -0.240 NA
ATOM     11  C   UNL     1      -0.737   1.920  25.680  0.00  0.00    +0.106 A 
ATOM     12  C   UNL     1      -0.531   2.681  25.925  0.00  0.00    +0.057 A 
ATOM     13  S   UNL     1      -1.048   3.213  25.564  0.00  0.00    -0.069 S 
ENDBRANCH   8   9
ENDBRANCH   7   8
TORSDOF 2
ENDMDL
MODEL 4
REMARK VINA RESULT:      -6.9      2.544      3.711
REMARK  Name = 
REMARK  2 active torsions:
REMARK  status: ('A' for Active; 'I' for Inactive)
REMARK    1  A    between atoms: N_7  and  C_8
REMARK    2  A    between atoms: C_8  and  C_9
REMARK                            x       y       z     vdW  Elec       q    Type
REMARK                         _______ _______ _______ _____ _____    ______ ____
ROOT
ATOM      1  O   UNL     1      -0.076   2.655  26.385  0.00  0.00    -0.251 OA
ATOM      2  C   UNL     1      -0.629   2.289  25.893  0.00  0.00    +0.323 C 
ATOM      3  N   UNL     1      -0.582   1.519  25.600  0.00  0.00    -0.187 NA
ATOM      4  C   UNL     1      -1.250   1.383  25.133  0.00  0.00    +0.138 C 
ATOM      5  C   UNL     1      -1.708   2.069  25.139  0.00  0.00    +0.115 C 
ATOM      6  C   UNL     1      -2.425   2.257  24.777  0.00  0.00    +0.094 C 
ATOM      7  N   UNL     1      -2.758   3.003  24.884  0.00  0.00    -0.264 NA
ATOM     14  C   UNL     1      -2.374   3.563  25.353  0.00  0.00    +0.094 C 
ATOM     15  C   UNL     1      -1.657   3.376  25.715  0.00  0.00    +0.112 C 
ATOM     16  N   UNL     1      -1.324   2.629  25.608  0.00  0.00    -0.260 N 
ENDROOT
BRANCH   7   8
ATOM      8  C   UNL     1      -3.476   3.191  24.522  0.00  0.00    +0.126 C 
BRANCH   8   9
ATOM      9  C   UNL     1      -4.187   3.030  24.906  0.00  0.00    +0.104 A 
ATOM     10  N   UNL     1      -4.495   3.443  25.551  0.00  0.00    -0.240 NA
ATOM     11  C   UNL     1      -5.214   3.096  25.757  0.00  0.00    +0.106 A 
ATOM     12  C   UNL     1      -5.351   2.467  25.239  0.00  0.00    +0.057 A 
ATOM     13  S   UNL     1      -4.716   2.427  24.714  0.00  0.00    -0.069 S 
ENDBRANCH   8   9
ENDBRANCH   7   8
TORSDOF 2
ENDMDL
MODEL 5
REMARK VINA RESULT:      -6.8      1.919      3.633
REMARK  Name = 
REMARK  2 active torsions:
REMARK  status: ('A' for Active; 'I' for Inactive)
REMARK    1  A    between atoms: N_7  and  C_8
REMARK    2  A    between atoms: C_8  and  C_9
REMARK                            x       y       z     vdW  Elec       q    Type
REMARK                         _______ _______ _______ _____ _____    ______ ____
ROOT
ATOM      1  O   UNL     1      -1.778  -0.861  25.611  0.00  0.00    -0.251 OA
ATOM      2  C   UNL     1      -2.579  -0.730  25.460  0.00  0.00    +0.323 C 
ATOM      3  N   UNL     1      -3.190  -1.270  25.581  0.00  0.00    -0.187 NA
ATOM      4  C   UNL     1      -3.898  -0.909  25.356  0.00  0.00    +0.138 C 
ATOM      5  C   UNL     1      -3.723  -0.146  25.097  0.00  0.00    +0.115 C 
ATOM      6  C   UNL     1      -4.201   0.463  24.811  0.00  0.00    +0.094 C 
ATOM      7  N   UNL     1      -3.864   1.182  24.589  0.00  0.00    -0.264 NA
ATOM     14  C   UNL     1      -3.049   1.293  24.653  0.00  0.00    +0.094 C 
ATOM     15  C   UNL     1      -2.571   0.684  24.939  0.00  0.00    +0.112 C 
ATOM     16  N   UNL     1      -2.908  -0.036  25.161  0.00  0.00    -0.260 N 
ENDROOT
BRANCH   7   8
ATOM      8  C   UNL     1      -4.342   1.791  24.303  0.00  0.00    +0.126 C 
BRANCH   8   9
ATOM      9  C   UNL     1      -4.632   2.365  24.818  0.00  0.00    +0.104 A 
ATOM     10  N   UNL     1      -5.274   2.279  25.329  0.00  0.00    -0.240 NA
ATOM     11  C   UNL     1      -5.371   2.987  25.741  0.00  0.00    +0.106 A 
ATOM     12  C   UNL     1      -4.787   3.512  25.484  0.00  0.00    +0.057 A 
ATOM     13  S   UNL     1      -4.331   3.127  24.914  0.00  0.00    -0.069 S 
ENDBRANCH   8   9
ENDBRANCH   7   8
TORSDOF 2
ENDMDL
