MODEL 1
REMARK VINA RESULT:     -11.5      0.000      0.000
REMARK  Name = 
REMARK  6 active torsions:
REMARK  status: ('A' for Active; 'I' for Inactive)
REMARK    1  A    between atoms: C_5  and  C_8
REMARK    2  A    between atoms: N_10  and  C_11
REMARK    3  A    between atoms: C_11  and  C_12
REMARK    4  A    between atoms: C_14  and  C_15
REMARK    5  A    between atoms: C_15  and  C_16
REMARK    6  A    between atoms: N_21  and  C_24
REMARK                            x       y       z     vdW  Elec       q    Type
REMARK                         _______ _______ _______ _____ _____    ______ ____
ROOT
ATOM     12  C   UNL     1      -4.682   3.213  25.686  0.00  0.00    +0.170 C 
ATOM     13  O   UNL     1      -4.430   2.489  25.381  0.00  0.00    -0.351 OA
ATOM     14  C   UNL     1      -5.100   2.039  25.206  0.00  0.00    +0.157 C 
ATOM     30  C   UNL     1      -5.765   2.485  25.404  0.00  0.00    +0.212 C 
ATOM     31  O   UNL     1      -6.550   2.247  25.320  0.00  0.00    -0.218 OA
ATOM     32  C   UNL     1      -5.507   3.211  25.701  0.00  0.00    +0.213 C 
ATOM     33  O   UNL     1      -5.989   3.825  25.965  0.00  0.00    -0.218 OA
ENDROOT
BRANCH  12  11
ATOM     11  C   UNL     1      -4.194   3.831  25.934  0.00  0.00    +0.148 C 
BRANCH  11  10
ATOM      8  C   UNL     1      -2.851   4.315  25.971  0.00  0.00    +0.265 C 
ATOM      9  O   UNL     1      -2.952   4.537  26.759  0.00  0.00    -0.268 OA
ATOM     10  N   UNL     1      -3.471   3.962  25.559  0.00  0.00    -0.199 NA
BRANCH   8   5
ATOM      1  C   UNL     1       0.040   4.839  24.469  0.00  0.00    +0.031 C 
ATOM      2  C   UNL     1      -0.682   4.709  24.844  0.00  0.00    -0.022 A 
ATOM      3  C   UNL     1      -1.226   5.324  24.918  0.00  0.00    -0.004 A 
ATOM      4  C   UNL     1      -1.949   5.193  25.294  0.00  0.00    +0.004 A 
ATOM      5  C   UNL     1      -2.128   4.446  25.595  0.00  0.00    +0.055 A 
ATOM      6  C   UNL     1      -1.583   3.830  25.521  0.00  0.00    +0.004 A 
ATOM      7  C   UNL     1      -0.861   3.962  25.145  0.00  0.00    -0.004 A 
ENDBRANCH   8   5
ENDBRANCH  11  10
ENDBRANCH  12  11
BRANCH  14  15
ATOM     15  C   UNL     1      -5.102   1.277  24.890  0.00  0.00    +0.117 C 
BRANCH  15  16
ATOM     16  C   UNL     1      -4.541   1.063  24.324  0.00  0.00    +0.228 C 
ATOM     17  O   UNL     1      -4.348   1.587  23.716  0.00  0.00    -0.275 OA
ATOM     18  N   UNL     1      -4.174   0.326  24.365  0.00  0.00    -0.276 N 
ATOM     19  C   UNL     1      -3.613   0.112  23.800  0.00  0.00    +0.115 C 
ATOM     20  C   UNL     1      -3.246  -0.625  23.841  0.00  0.00    +0.112 C 
ATOM     21  N   UNL     1      -3.439  -1.149  24.449  0.00  0.00    -0.304 N 
ATOM     22  C   UNL     1      -4.000  -0.935  25.015  0.00  0.00    +0.112 C 
ATOM     23  C   UNL     1      -4.367  -0.198  24.973  0.00  0.00    +0.115 C 
BRANCH  21  24
ATOM     24  C   UNL     1      -3.071  -1.886  24.490  0.00  0.00    +0.048 A 
ATOM     25  C   UNL     1      -3.524  -2.575  24.466  0.00  0.00    +0.015 A 
ATOM     26  C   UNL     1      -3.156  -3.313  24.508  0.00  0.00    +0.001 A 
ATOM     27  C   UNL     1      -2.335  -3.360  24.573  0.00  0.00    +0.000 A 
ATOM     28  C   UNL     1      -1.882  -2.672  24.596  0.00  0.00    +0.001 A 
ATOM     29  C   UNL     1      -2.250  -1.934  24.555  0.00  0.00    +0.015 A 
ENDBRANCH  21  24
ENDBRANCH  15  16
ENDBRANCH  14  15
TORSDOF 6
ENDMDL
MODEL 2
REMARK VINA RESULT:     -11.0      1.907      3.735
REMARK  Name = 
REMARK  6 active torsions:
REMARK  status: ('A' for Active; 'I' for Inactive)
REMARK    1  A    between atoms: C_5  and  C_8
REMARK    2  A    between atoms: N_10  and  C_11
REMARK    3  A    between atoms: C_11  and  C_12
REMARK    4  A    between atoms: C_14  and  C_15
REMARK    5  A    between atoms: C_15  and  C_16
REMARK    6  A    between atoms: N_21  and  C_24
REMARK                            x       y       z     vdW  Elec       q    Type
REMARK                         _______ _______ _______ _____ _____    ______ ____
ROOT
ATOM     12  C   UNL     1      -1.516   3.105  24.741  0.00  0.00    +0.170 C 
ATOM     13  O   UNL     1      -1.490   2.284  24.816  0.00  0.00    -0.351 OA
ATOM     14  C   UNL     1      -0.704   2.045  24.736  0.00  0.00    +0.157 C 
ATOM     30  C   UNL     1      -0.244   2.719  24.612  0.00  0.00    +0.212 C 
ATOM     31  O   UNL     1       0.573   2.735  24.504  0.00  0.00    -0.218 OA
ATOM     32  C   UNL     1      -0.746   3.374  24.615  0.00  0.00    +0.213 C 
ATOM     33  O   UNL     1      -0.518   4.159  24.510  0.00  0.00    -0.218 OA
ENDROOT
BRANCH  12  11
ATOM     11  C   UNL     1      -2.193   3.575  24.785  0.00  0.00    +0.148 C 
BRANCH  11  10
ATOM      8  C   UNL     1      -3.620   3.578  24.725  0.00  0.00    +0.265 C 
ATOM      9  O   UNL     1      -3.600   4.257  24.257  0.00  0.00    -0.268 OA
ATOM     10  N   UNL     1      -2.918   3.237  24.989  0.00  0.00    -0.199 NA
BRANCH   8   5
ATOM      1  C   UNL     1      -6.518   2.227  25.541  0.00  0.00    +0.031 C 
ATOM      2  C   UNL     1      -5.794   2.564  25.338  0.00  0.00    -0.022 A 
ATOM      3  C   UNL     1      -5.538   3.250  25.717  0.00  0.00    -0.004 A 
ATOM      4  C   UNL     1      -4.813   3.588  25.513  0.00  0.00    +0.004 A 
ATOM      5  C   UNL     1      -4.345   3.240  24.930  0.00  0.00    +0.055 A 
ATOM      6  C   UNL     1      -4.602   2.553  24.550  0.00  0.00    +0.004 A 
ATOM      7  C   UNL     1      -5.326   2.216  24.754  0.00  0.00    -0.004 A 
ENDBRANCH   8   5
ENDBRANCH  11  10
ENDBRANCH  12  11
BRANCH  14  15
ATOM     15  C   UNL     1      -0.427   1.269  24.774  0.00  0.00    +0.117 C 
BRANCH  15  16
ATOM     16  C   UNL     1      -0.696   0.763  25.368  0.00  0.00    +0.228 C 
ATOM     17  O   UNL     1      -0.463   0.885  26.150  0.00  0.00    -0.275 OA
ATOM     18  N   UNL     1      -1.197   0.135  25.180  0.00  0.00    -0.276 N 
ATOM     19  C   UNL     1      -1.466  -0.370  25.773  0.00  0.00    +0.115 C 
ATOM     20  C   UNL     1      -1.967  -0.998  25.585  0.00  0.00    +0.112 C 
ATOM     21  N   UNL     1      -2.200  -1.120  24.803  0.00  0.00    -0.304 N 
ATOM     22  C   UNL     1      -1.931  -0.614  24.209  0.00  0.00    +0.112 C 
ATOM     23  C   UNL     1      -1.430   0.014  24.397  0.00  0.00    +0.115 C 
BRANCH  21  24
ATOM     24  C   UNL     1      -2.701  -1.748  24.615  0.00  0.00    +0.048 A 
ATOM     25  C   UNL     1      -2.417  -2.522  24.632  0.00  0.00    +0.015 A 
ATOM     26  C   UNL     1      -2.919  -3.149  24.444  0.00  0.00    +0.001 A 
ATOM     27  C   UNL     1      -3.704  -3.002  24.239  0.00  0.00    +0.000 A 
ATOM     28  C   UNL     1      -3.989  -2.228  24.222  0.00  0.00    +0.001 A 
ATOM     29  C   UNL     1      -3.487  -1.601  24.410  0.00  0.00    +0.015 A 
ENDBRANCH  21  24
ENDBRANCH  15  16
ENDBRANCH  14  15
TORSDOF 6
ENDMDL
MODEL 3
REMARK VINA RESULT:     -10.6      2.380      5.902
REMARK  Name = 
REMARK  6 active torsions:
REMARK  status: ('A' for Active; 'I' for Inactive)
REMARK    1  A    between atoms: C_5  and  C_8
REMARK    2  A    between atoms: N_10  and  C_11
REMARK    3  A    between atoms: C_11  and  C_12
REMARK    4  A    between atoms: C_14  and  C_15
REMARK    5  A    between atoms: C_15  and  C_16
REMARK    6  A    between atoms: N_21  and  C_24
REMARK                            x       y       z     vdW  Elec       q    Type
REMARK                         _______ _______ _______ _____ _____    ______ ____
ROOT
ATOM     12  C   UNL     1      -0.264   0.554  24.289  0.00  0.00    +0.170 C 
ATOM     13  O   UNL     1      -0.928   1.042  24.268  0.00  0.00    -0.351 OA
ATOM     14  C   UNL     1      -0.674   1.814  24.119  0.00  0.00    +0.157 C 
ATOM     30  C   UNL     1       0.148   1.802  24.048  0.00  0.00    +0.212 C 
ATOM     31  O   UNL     1       0.631   2.453  23.898  0.00  0.00    -0.218 OA
ATOM     32  C   UNL     1       0.402   1.024  24.152  0.00  0.00    +0.213 C 
ATOM     33  O   UNL     1       1.182   0.761  24.126  0.00  0.00    -0.218 OA
ENDROOT
BRANCH  12  11
ATOM     11  C   UNL     1      -0.264  -0.260  24.422  0.00  0.00    +0.148 C 
BRANCH  11  10
ATOM      8  C   UNL     1      -1.064  -1.383  24.794  0.00  0.00    +0.265 C 
ATOM      9  O   UNL     1      -0.460  -1.651  25.287  0.00  0.00    -0.268 OA
ATOM     10  N   UNL     1      -0.966  -0.688  24.361  0.00  0.00    -0.199 NA
BRANCH   8   5
ATOM      1  C   UNL     1      -3.875  -3.096  24.551  0.00  0.00    +0.031 C 
ATOM      2  C   UNL     1      -3.173  -2.668  24.612  0.00  0.00    -0.022 A 
ATOM      3  C   UNL     1      -3.148  -1.977  25.060  0.00  0.00    -0.004 A 
ATOM      4  C   UNL     1      -2.446  -1.548  25.121  0.00  0.00    +0.004 A 
ATOM      5  C   UNL     1      -1.767  -1.811  24.733  0.00  0.00    +0.055 A 
ATOM      6  C   UNL     1      -1.791  -2.503  24.284  0.00  0.00    +0.004 A 
ATOM      7  C   UNL     1      -2.494  -2.931  24.223  0.00  0.00    -0.004 A 
ENDBRANCH   8   5
ENDBRANCH  11  10
ENDBRANCH  12  11
BRANCH  14  15
ATOM     15  C   UNL     1      -1.157   2.479  24.054  0.00  0.00    +0.117 C 
BRANCH  15  16
ATOM     16  C   UNL     1      -1.857   2.440  23.618  0.00  0.00    +0.228 C 
ATOM     17  O   UNL     1      -1.831   2.266  22.811  0.00  0.00    -0.275 OA
ATOM     18  N   UNL     1      -2.582   2.575  23.987  0.00  0.00    -0.276 N 
ATOM     19  C   UNL     1      -3.281   2.536  23.551  0.00  0.00    +0.115 C 
ATOM     20  C   UNL     1      -4.006   2.671  23.921  0.00  0.00    +0.112 C 
ATOM     21  N   UNL     1      -4.032   2.845  24.727  0.00  0.00    -0.304 N 
ATOM     22  C   UNL     1      -3.332   2.884  25.163  0.00  0.00    +0.112 C 
ATOM     23  C   UNL     1      -2.608   2.749  24.793  0.00  0.00    +0.115 C 
BRANCH  21  24
ATOM     24  C   UNL     1      -4.757   2.980  25.096  0.00  0.00    +0.048 A 
ATOM     25  C   UNL     1      -4.981   3.747  25.298  0.00  0.00    +0.015 A 
ATOM     26  C   UNL     1      -5.706   3.882  25.668  0.00  0.00    +0.001 A 
ATOM     27  C   UNL     1      -6.207   3.249  25.835  0.00  0.00    +0.000 A 
ATOM     28  C   UNL     1      -5.984   2.481  25.634  0.00  0.00    +0.001 A 
ATOM     29  C   UNL     1      -5.259   2.346  25.264  0.00  0.00    +0.015 A 
ENDBRANCH  21  24
ENDBRANCH  15  16
ENDBRANCH  14  15
TORSDOF 6
ENDMDL
MODEL 4
REMARK VINA RESULT:     -10.2      2.524      4.825
REMARK  Name = 
REMARK  6 active torsions:
REMARK  status: ('A' for Active; 'I' for Inactive)
REMARK    1  A    between atoms: C_5  and  C_8
REMARK    2  A    between atoms: N_10  and  C_11
REMARK    3  A    between atoms: C_11  and  C_12
REMARK    4  A    between atoms: C_14  and  C_15
REMARK    5  A    between atoms: C_15  and  C_16
REMARK    6  A    between atoms: N_21  and  C_24
REMARK                            x       y       z     vdW  Elec       q    Type
REMARK                         _______ _______ _______ _____ _____    ______ ____
ROOT
ATOM     12  C   UNL     1      -3.671   2.377  24.984  0.00  0.00    +0.170 C 
ATOM     13  O   UNL     1      -2.855   2.301  24.887  0.00  0.00    -0.351 OA
ATOM     14  C   UNL     1      -2.530   3.059  24.855  0.00  0.00    +0.157 C 
ATOM     30  C   UNL     1      -3.145   3.604  24.932  0.00  0.00    +0.212 C 
ATOM     31  O   UNL     1      -3.068   4.425  24.930  0.00  0.00    -0.218 OA
ATOM     32  C   UNL     1      -3.850   3.183  25.012  0.00  0.00    +0.213 C 
ATOM     33  O   UNL     1      -4.602   3.509  25.103  0.00  0.00    -0.218 OA
ENDROOT
BRANCH  12  11
ATOM     11  C   UNL     1      -4.212   1.758  25.042  0.00  0.00    +0.148 C 
BRANCH  11  10
ATOM      8  C   UNL     1      -4.465   0.352  25.070  0.00  0.00    +0.265 C 
ATOM      9  O   UNL     1      -5.190   0.489  25.439  0.00  0.00    -0.268 OA
ATOM     10  N   UNL     1      -3.977   0.986  24.872  0.00  0.00    -0.199 NA
BRANCH   8   5
ATOM      1  C   UNL     1      -3.521  -2.735  24.387  0.00  0.00    +0.031 C 
ATOM      2  C   UNL     1      -3.757  -1.964  24.558  0.00  0.00    -0.022 A 
ATOM      3  C   UNL     1      -4.197  -1.536  24.007  0.00  0.00    -0.004 A 
ATOM      4  C   UNL     1      -4.433  -0.764  24.177  0.00  0.00    +0.004 A 
ATOM      5  C   UNL     1      -4.229  -0.420  24.899  0.00  0.00    +0.055 A 
ATOM      6  C   UNL     1      -3.789  -0.849  25.451  0.00  0.00    +0.004 A 
ATOM      7  C   UNL     1      -3.553  -1.620  25.280  0.00  0.00    -0.004 A 
ENDBRANCH   8   5
ENDBRANCH  11  10
ENDBRANCH  12  11
BRANCH  14  15
ATOM     15  C   UNL     1      -1.731   3.240  24.762  0.00  0.00    +0.117 C 
BRANCH  15  16
ATOM     16  C   UNL     1      -1.159   2.808  25.172  0.00  0.00    +0.228 C 
ATOM     17  O   UNL     1      -1.130   2.841  25.996  0.00  0.00    -0.275 OA
ATOM     18  N   UNL     1      -0.617   2.343  24.759  0.00  0.00    -0.276 N 
ATOM     19  C   UNL     1      -0.047   1.912  25.169  0.00  0.00    +0.115 C 
ATOM     20  C   UNL     1       0.495   1.447  24.756  0.00  0.00    +0.112 C 
ATOM     21  N   UNL     1       0.466   1.413  23.932  0.00  0.00    -0.304 N 
ATOM     22  C   UNL     1      -0.105   1.845  23.522  0.00  0.00    +0.112 C 
ATOM     23  C   UNL     1      -0.647   2.310  23.935  0.00  0.00    +0.115 C 
BRANCH  21  24
ATOM     24  C   UNL     1       1.008   0.949  23.519  0.00  0.00    +0.048 A 
ATOM     25  C   UNL     1       0.758   0.258  23.144  0.00  0.00    +0.015 A 
ATOM     26  C   UNL     1       1.301  -0.207  22.731  0.00  0.00    +0.001 A 
ATOM     27  C   UNL     1       2.092   0.020  22.693  0.00  0.00    +0.000 A 
ATOM     28  C   UNL     1       2.343   0.711  23.067  0.00  0.00    +0.001 A 
ATOM     29  C   UNL     1       1.801   1.175  23.480  0.00  0.00    +0.015 A 
ENDBRANCH  21  24
ENDBRANCH  15  16
ENDBRANCH  14  15
TORSDOF 6
ENDMDL
