MODEL 1
REMARK VINA RESULT:     -13.8      0.000      0.000
REMARK  Name = 
REMARK  3 active torsions:
REMARK  status: ('A' for Active; 'I' for Inactive)
REMARK    1  A    between atoms: C_2  and  C_5
REMARK    2  A    between atoms: C_8  and  O_9
REMARK    3  A    between atoms: O_9  and  C_10
REMARK                            x       y       z     vdW  Elec       q    Type
REMARK                         _______ _______ _______ _____ _____    ______ ____
ROOT
ATOM     10  C   UNL     1      -4.001   1.114  24.294  0.00  0.00    +0.217 C 
ATOM     11  C   UNL     1      -4.780   1.007  24.544  0.00  0.00    +0.187 C 
ATOM     12  O   UNL     1      -5.250   1.513  24.996  0.00  0.00    -0.348 OA
ATOM     13  C   UNL     1      -5.056   2.251  25.310  0.00  0.00    +0.164 C 
ATOM     14  C   UNL     1      -4.344   2.665  25.249  0.00  0.00    +0.125 C 
ATOM     15  N   UNL     1      -3.651   2.444  24.860  0.00  0.00    -0.282 N 
ATOM     16  C   UNL     1      -3.499   1.754  24.435  0.00  0.00    +0.139 C 
ATOM     17  C   UNL     1      -3.029   2.984  24.901  0.00  0.00    +0.163 A 
ATOM     18  N   UNL     1      -2.284   2.893  24.560  0.00  0.00    -0.224 NA
ATOM     19  C   UNL     1      -1.838   3.563  24.739  0.00  0.00    +0.089 A 
ATOM     20  C   UNL     1      -2.307   4.068  25.191  0.00  0.00    +0.050 A 
ATOM     21  S   UNL     1      -3.043   3.711  25.292  0.00  0.00    -0.052 S 
ATOM     22  C   UNL     1      -2.002   4.789  25.453  0.00  0.00    +0.008 A 
ATOM     23  C   UNL     1      -1.230   5.004  25.263  0.00  0.00    +0.001 A 
ATOM     24  C   UNL     1      -0.760   4.498  24.810  0.00  0.00    +0.002 A 
ATOM     25  C   UNL     1      -1.064   3.778  24.548  0.00  0.00    +0.020 A 
ENDROOT
BRANCH  10   9
ATOM      9  O   UNL     1      -3.681   0.501  23.844  0.00  0.00    -0.460 OA
BRANCH   9   8
ATOM      5  C   UNL     1      -3.541  -1.782  24.789  0.00  0.00    +0.091 A 
ATOM      6  C   UNL     1      -3.016  -1.198  25.043  0.00  0.00    +0.106 A 
ATOM      7  N   UNL     1      -3.063  -0.436  24.727  0.00  0.00    -0.210 NA
ATOM      8  C   UNL     1      -3.634  -0.260  24.159  0.00  0.00    +0.225 A 
ATOM     26  C   UNL     1      -4.159  -0.845  23.905  0.00  0.00    +0.058 A 
ATOM     27  C   UNL     1      -4.112  -1.606  24.221  0.00  0.00    +0.010 A 
BRANCH   5   2
ATOM      1  F   UNL     1      -3.446  -3.304  25.420  0.00  0.00    -0.166 F 
ATOM      2  C   UNL     1      -3.493  -2.544  25.104  0.00  0.00    +0.420 C 
ATOM      3  F   UNL     1      -3.652  -2.242  25.855  0.00  0.00    -0.166 F 
ATOM      4  F   UNL     1      -3.335  -2.845  24.354  0.00  0.00    -0.166 F 
ENDBRANCH   5   2
ENDBRANCH   9   8
ENDBRANCH  10   9
TORSDOF 3
ENDMDL
MODEL 2
REMARK VINA RESULT:     -13.4      1.730      2.562
REMARK  Name = 
REMARK  3 active torsions:
REMARK  status: ('A' for Active; 'I' for Inactive)
REMARK    1  A    between atoms: C_2  and  C_5
REMARK    2  A    between atoms: C_8  and  O_9
REMARK    3  A    between atoms: O_9  and  C_10
REMARK                            x       y       z     vdW  Elec       q    Type
REMARK                         _______ _______ _______ _____ _____    ______ ____
ROOT
ATOM     10  C   UNL     1      -1.333  -0.028  25.076  0.00  0.00    +0.217 C 
ATOM     11  C   UNL     1      -0.790  -0.495  24.665  0.00  0.00    +0.187 C 
ATOM     12  O   UNL     1      -0.158  -0.253  24.192  0.00  0.00    -0.348 OA
ATOM     13  C   UNL     1       0.086   0.514  24.013  0.00  0.00    +0.164 C 
ATOM     14  C   UNL     1      -0.241   1.230  24.263  0.00  0.00    +0.125 C 
ATOM     15  N   UNL     1      -0.892   1.355  24.753  0.00  0.00    -0.282 N 
ATOM     16  C   UNL     1      -1.378   0.795  25.115  0.00  0.00    +0.139 C 
ATOM     17  C   UNL     1      -1.083   2.144  24.901  0.00  0.00    +0.163 A 
ATOM     18  N   UNL     1      -1.705   2.412  25.370  0.00  0.00    -0.224 NA
ATOM     19  C   UNL     1      -1.691   3.237  25.365  0.00  0.00    +0.089 A 
ATOM     20  C   UNL     1      -1.060   3.478  24.892  0.00  0.00    +0.050 A 
ATOM     21  S   UNL     1      -0.683   2.803  24.605  0.00  0.00    -0.052 S 
ATOM     22  C   UNL     1      -0.909   4.282  24.784  0.00  0.00    +0.008 A 
ATOM     23  C   UNL     1      -1.390   4.845  25.149  0.00  0.00    +0.001 A 
ATOM     24  C   UNL     1      -2.021   4.603  25.621  0.00  0.00    +0.002 A 
ATOM     25  C   UNL     1      -2.173   3.800  25.730  0.00  0.00    +0.020 A 
ENDROOT
BRANCH  10   9
ATOM      9  O   UNL     1      -1.907  -0.439  25.503  0.00  0.00    -0.460 OA
BRANCH   9   8
ATOM      5  C   UNL     1      -3.610  -1.783  24.313  0.00  0.00    +0.091 A 
ATOM      6  C   UNL     1      -3.701  -0.965  24.377  0.00  0.00    +0.106 A 
ATOM      7  N   UNL     1      -3.133  -0.517  24.774  0.00  0.00    -0.210 NA
ATOM      8  C   UNL     1      -2.475  -0.887  25.106  0.00  0.00    +0.225 A 
ATOM     26  C   UNL     1      -2.384  -1.705  25.043  0.00  0.00    +0.058 A 
ATOM     27  C   UNL     1      -2.952  -2.153  24.646  0.00  0.00    +0.010 A 
BRANCH   5   2
ATOM      1  F   UNL     1      -4.746  -2.679  23.519  0.00  0.00    -0.166 F 
ATOM      2  C   UNL     1      -4.178  -2.231  23.916  0.00  0.00    +0.420 C 
ATOM      3  F   UNL     1      -4.320  -1.599  23.406  0.00  0.00    -0.166 F 
ATOM      4  F   UNL     1      -4.036  -2.864  24.426  0.00  0.00    -0.166 F 
ENDBRANCH   5   2
ENDBRANCH   9   8
ENDBRANCH  10   9
TORSDOF 3
ENDMDL
MODEL 3
REMARK VINA RESULT:     -12.6      2.969      5.310
REMARK  Name = 
REMARK  3 active torsions:
REMARK  status: ('A' for Active; 'I' for Inactive)
REMARK    1  A    between atoms: C_2  and  C_5
REMARK    2  A    between atoms: C_8  and  O_9
REMARK    3  A    between atoms: O_9  and  C_10
REMARK                            x       y       z     vdW  Elec       q    Type
REMARK                         _______ _______ _______ _____ _____    ______ ____
ROOT
ATOM     10  C   UNL     1      -3.556   2.499  25.451  0.00  0.00    +0.217 C 
ATOM     11  C   UNL     1      -4.093   3.076  25.205  0.00  0.00    +0.187 C 
ATOM     12  O   UNL     1      -4.758   2.988  24.724  0.00  0.00    -0.348 OA
ATOM     13  C   UNL     1      -5.050   2.303  24.371  0.00  0.00    +0.164 C 
ATOM     14  C   UNL     1      -4.750   1.535  24.411  0.00  0.00    +0.125 C 
ATOM     15  N   UNL     1      -4.084   1.263  24.814  0.00  0.00    -0.282 N 
ATOM     16  C   UNL     1      -3.553   1.692  25.277  0.00  0.00    +0.139 C 
ATOM     17  C   UNL     1      -3.928   0.456  24.746  0.00  0.00    +0.163 A 
ATOM     18  N   UNL     1      -3.299   0.052  25.094  0.00  0.00    -0.224 NA
ATOM     19  C   UNL     1      -3.357  -0.742  24.880  0.00  0.00    +0.089 A 
ATOM     20  C   UNL     1      -4.021  -0.830  24.399  0.00  0.00    +0.050 A 
ATOM     21  S   UNL     1      -4.375  -0.090  24.316  0.00  0.00    -0.052 S 
ATOM     22  C   UNL     1      -4.218  -1.573  24.100  0.00  0.00    +0.008 A 
ATOM     23  C   UNL     1      -3.752  -2.228  24.280  0.00  0.00    +0.001 A 
ATOM     24  C   UNL     1      -3.087  -2.141  24.761  0.00  0.00    +0.002 A 
ATOM     25  C   UNL     1      -2.889  -1.398  25.061  0.00  0.00    +0.020 A 
ENDROOT
BRANCH  10   9
ATOM      9  O   UNL     1      -2.943   2.763  25.935  0.00  0.00    -0.460 OA
BRANCH   9   8
ATOM      5  C   UNL     1      -1.373   4.489  25.109  0.00  0.00    +0.091 A 
ATOM      6  C   UNL     1      -1.269   3.699  24.893  0.00  0.00    +0.106 A 
ATOM      7  N   UNL     1      -1.793   3.124  25.168  0.00  0.00    -0.210 NA
ATOM      8  C   UNL     1      -2.419   3.338  25.659  0.00  0.00    +0.225 A 
ATOM     26  C   UNL     1      -2.524   4.128  25.875  0.00  0.00    +0.058 A 
ATOM     27  C   UNL     1      -2.000   4.704  25.599  0.00  0.00    +0.010 A 
BRANCH   5   2
ATOM      1  F   UNL     1      -0.326   5.639  24.557  0.00  0.00    -0.166 F 
ATOM      2  C   UNL     1      -0.849   5.064  24.833  0.00  0.00    +0.420 C 
ATOM      3  F   UNL     1      -1.309   5.651  25.185  0.00  0.00    -0.166 F 
ATOM      4  F   UNL     1      -0.390   4.477  24.480  0.00  0.00    -0.166 F 
ENDBRANCH   5   2
ENDBRANCH   9   8
ENDBRANCH  10   9
TORSDOF 3
ENDMDL
MODEL 4
REMARK VINA RESULT:     -12.6      2.683      5.113
REMARK  Name = 
REMARK  3 active torsions:
REMARK  status: ('A' for Active; 'I' for Inactive)
REMARK    1  A    between atoms: C_2  and  C_5
REMARK    2  A    between atoms: C_8  and  O_9
REMARK    3  A    between atoms: O_9  and  C_10
REMARK                            x       y       z     vdW  Elec       q    Type
REMARK                         _______ _______ _______ _____ _____    ______ ____
ROOT
ATOM     10  C   UNL     1      -2.150   1.736  24.572  0.00  0.00    +0.217 C 
ATOM     11  C   UNL     1      -1.490   2.011  24.983  0.00  0.00    +0.187 C 
ATOM     12  O   UNL     1      -0.958   1.583  25.447  0.00  0.00    -0.348 OA
ATOM     13  C   UNL     1      -0.955   0.775  25.613  0.00  0.00    +0.164 C 
ATOM     14  C   UNL     1      -1.484   0.195  25.357  0.00  0.00    +0.125 C 
ATOM     15  N   UNL     1      -2.146   0.280  24.872  0.00  0.00    -0.282 N 
ATOM     16  C   UNL     1      -2.442   0.966  24.522  0.00  0.00    +0.139 C 
ATOM     17  C   UNL     1      -2.566  -0.412  24.715  0.00  0.00    +0.163 A 
ATOM     18  N   UNL     1      -3.244  -0.473  24.249  0.00  0.00    -0.224 NA
ATOM     19  C   UNL     1      -3.479  -1.264  24.243  0.00  0.00    +0.089 A 
ATOM     20  C   UNL     1      -2.947  -1.691  24.707  0.00  0.00    +0.050 A 
ATOM     21  S   UNL     1      -2.383  -1.166  24.999  0.00  0.00    -0.052 S 
ATOM     22  C   UNL     1      -3.046  -2.505  24.802  0.00  0.00    +0.008 A 
ATOM     23  C   UNL     1      -3.676  -2.890  24.435  0.00  0.00    +0.001 A 
ATOM     24  C   UNL     1      -4.208  -2.463  23.972  0.00  0.00    +0.002 A 
ATOM     25  C   UNL     1      -4.110  -1.649  23.875  0.00  0.00    +0.020 A 
ENDROOT
BRANCH  10   9
ATOM      9  O   UNL     1      -2.575   2.307  24.155  0.00  0.00    -0.460 OA
BRANCH   9   8
ATOM      5  C   UNL     1      -4.590   3.331  25.165  0.00  0.00    +0.091 A 
ATOM      6  C   UNL     1      -3.845   3.477  25.491  0.00  0.00    +0.106 A 
ATOM      7  N   UNL     1      -3.174   3.135  25.154  0.00  0.00    -0.210 NA
ATOM      8  C   UNL     1      -3.247   2.649  24.492  0.00  0.00    +0.225 A 
ATOM     26  C   UNL     1      -3.991   2.503  24.166  0.00  0.00    +0.058 A 
ATOM     27  C   UNL     1      -4.663   2.844  24.504  0.00  0.00    +0.010 A 
BRANCH   5   2
ATOM      1  F   UNL     1      -5.932   4.014  25.839  0.00  0.00    -0.166 F 
ATOM      2  C   UNL     1      -5.261   3.673  25.502  0.00  0.00    +0.420 C 
ATOM      3  F   UNL     1      -5.094   4.382  25.117  0.00  0.00    -0.166 F 
ATOM      4  F   UNL     1      -5.429   2.963  25.888  0.00  0.00    -0.166 F 
ENDBRANCH   5   2
ENDBRANCH   9   8
ENDBRANCH  10   9
TORSDOF 3
ENDMDL
MODEL 5
REMARK VINA RESULT:     -12.5      3.430      5.840
REMARK  Name = 
REMARK  3 active torsions:
REMARK  status: ('A' for Active; 'I' for Inactive)
REMARK    1  A    between atoms: C_2  and  C_5
REMARK    2  A    between atoms: C_8  and  O_9
REMARK    3  A    between atoms: O_9  and  C_10
REMARK                            x       y       z     vdW  Elec       q    Type
REMARK                         _______ _______ _______ _____ _____    ______ ____
ROOT
ATOM     10  C   UNL     1      -0.538   1.365  25.234  0.00  0.00    +0.217 C 
ATOM     11  C   UNL     1       0.093   1.555  24.736  0.00  0.00    +0.187 C 
ATOM     12  O   UNL     1       0.378   1.137  24.084  0.00  0.00    -0.348 OA
ATOM     13  C   UNL     1       0.103   0.426  23.769  0.00  0.00    +0.164 C 
ATOM     14  C   UNL     1      -0.525  -0.044  24.028  0.00  0.00    +0.125 C 
ATOM     15  N   UNL     1      -1.033   0.082  24.666  0.00  0.00    -0.282 N 
ATOM     16  C   UNL     1      -1.038   0.709  25.202  0.00  0.00    +0.139 C 
ATOM     17  C   UNL     1      -1.611  -0.494  24.782  0.00  0.00    +0.163 A 
ATOM     18  N   UNL     1      -2.181  -0.496  25.378  0.00  0.00    -0.224 NA
ATOM     19  C   UNL     1      -2.643  -1.173  25.287  0.00  0.00    +0.089 A 
ATOM     20  C   UNL     1      -2.358  -1.591  24.635  0.00  0.00    +0.050 A 
ATOM     21  S   UNL     1      -1.720  -1.172  24.323  0.00  0.00    -0.052 S 
ATOM     22  C   UNL     1      -2.716  -2.299  24.411  0.00  0.00    +0.008 A 
ATOM     23  C   UNL     1      -3.359  -2.589  24.837  0.00  0.00    +0.001 A 
ATOM     24  C   UNL     1      -3.645  -2.172  25.489  0.00  0.00    +0.002 A 
ATOM     25  C   UNL     1      -3.287  -1.464  25.714  0.00  0.00    +0.020 A 
ENDROOT
BRANCH  10   9
ATOM      9  O   UNL     1      -0.687   1.900  25.843  0.00  0.00    -0.460 OA
BRANCH   9   8
ATOM      5  C   UNL     1      -1.289   4.241  25.311  0.00  0.00    +0.091 A 
ATOM      6  C   UNL     1      -1.876   3.662  25.346  0.00  0.00    +0.106 A 
ATOM      7  N   UNL     1      -1.675   2.881  25.524  0.00  0.00    -0.210 NA
ATOM      8  C   UNL     1      -0.889   2.680  25.666  0.00  0.00    +0.225 A 
ATOM     26  C   UNL     1      -0.301   3.259  25.631  0.00  0.00    +0.058 A 
ATOM     27  C   UNL     1      -0.502   4.040  25.453  0.00  0.00    +0.010 A 
BRANCH   5   2
ATOM      1  F   UNL     1      -1.691   5.802  24.957  0.00  0.00    -0.166 F 
ATOM      2  C   UNL     1      -1.490   5.022  25.134  0.00  0.00    +0.420 C 
ATOM      3  F   UNL     1      -2.143   4.967  25.635  0.00  0.00    -0.166 F 
ATOM      4  F   UNL     1      -0.838   5.076  24.633  0.00  0.00    -0.166 F 
ENDBRANCH   5   2
ENDBRANCH   9   8
ENDBRANCH  10   9
TORSDOF 3
ENDMDL
MODEL 6
REMARK VINA RESULT:     -10.9      2.026      3.284
REMARK  Name = 
REMARK  3 active torsions:
REMARK  status: ('A' for Active; 'I' for Inactive)
REMARK    1  A    between atoms: C_2  and  C_5
REMARK    2  A    between atoms: C_8  and  O_9
REMARK    3  A    between atoms: O_9  and  C_10
REMARK                            x       y       z     vdW  Elec       q    Type
REMARK                         _______ _______ _______ _____ _____    ______ ____
ROOT
ATOM     10  C   UNL     1      -1.413   2.138  24.015  0.00  0.00    +0.217 C 
ATOM     11  C   UNL     1      -0.734   2.591  24.139  0.00  0.00    +0.187 C 
ATOM     12  O   UNL     1      -0.658   3.301  24.552  0.00  0.00    -0.348 OA
ATOM     13  C   UNL     1      -1.241   3.733  24.943  0.00  0.00    +0.164 C 
ATOM     14  C   UNL     1      -2.046   3.562  25.018  0.00  0.00    +0.125 C 
ATOM     15  N   UNL     1      -2.465   2.917  24.721  0.00  0.00    -0.282 N 
ATOM     16  C   UNL     1      -2.183   2.284  24.274  0.00  0.00    +0.139 C 
ATOM     17  C   UNL     1      -3.272   2.904  24.892  0.00  0.00    +0.163 A 
ATOM     18  N   UNL     1      -3.808   2.323  24.659  0.00  0.00    -0.224 NA
ATOM     19  C   UNL     1      -4.551   2.530  24.949  0.00  0.00    +0.089 A 
ATOM     20  C   UNL     1      -4.474   3.240  25.363  0.00  0.00    +0.050 A 
ATOM     21  S   UNL     1      -3.684   3.472  25.327  0.00  0.00    -0.052 S 
ATOM     22  C   UNL     1      -5.136   3.583  25.718  0.00  0.00    +0.008 A 
ATOM     23  C   UNL     1      -5.872   3.217  25.659  0.00  0.00    +0.001 A 
ATOM     24  C   UNL     1      -5.948   2.507  25.246  0.00  0.00    +0.002 A 
ATOM     25  C   UNL     1      -5.288   2.163  24.891  0.00  0.00    +0.020 A 
ENDROOT
BRANCH  10   9
ATOM      9  O   UNL     1      -1.308   1.449  23.574  0.00  0.00    -0.460 OA
BRANCH   9   8
ATOM      5  C   UNL     1      -0.758  -0.677  24.716  0.00  0.00    +0.091 A 
ATOM      6  C   UNL     1      -1.547  -0.450  24.625  0.00  0.00    +0.106 A 
ATOM      7  N   UNL     1      -1.730   0.259  24.244  0.00  0.00    -0.210 NA
ATOM      8  C   UNL     1      -1.125   0.740  23.955  0.00  0.00    +0.225 A 
ATOM     26  C   UNL     1      -0.337   0.513  24.046  0.00  0.00    +0.058 A 
ATOM     27  C   UNL     1      -0.154  -0.196  24.428  0.00  0.00    +0.010 A 
BRANCH   5   2
ATOM      1  F   UNL     1      -0.393  -2.094  25.478  0.00  0.00    -0.166 F 
ATOM      2  C   UNL     1      -0.575  -1.386  25.097  0.00  0.00    +0.420 C 
ATOM      3  F   UNL     1      -0.562  -1.773  24.369  0.00  0.00    -0.166 F 
ATOM      4  F   UNL     1      -0.589  -0.999  25.825  0.00  0.00    -0.166 F 
ENDBRANCH   5   2
ENDBRANCH   9   8
ENDBRANCH  10   9
TORSDOF 3
ENDMDL
MODEL 7
REMARK VINA RESULT:     -10.7      2.720      3.902
REMARK  Name = 
REMARK  3 active torsions:
REMARK  status: ('A' for Active; 'I' for Inactive)
REMARK    1  A    between atoms: C_2  and  C_5
REMARK    2  A    between atoms: C_8  and  O_9
REMARK    3  A    between atoms: O_9  and  C_10
REMARK                            x       y       z     vdW  Elec       q    Type
REMARK                         _______ _______ _______ _____ _____    ______ ____
ROOT
ATOM     10  C   UNL     1      -2.334  -0.550  25.002  0.00  0.00    +0.217 C 
ATOM     11  C   UNL     1      -2.446  -1.322  24.731  0.00  0.00    +0.187 C 
ATOM     12  O   UNL     1      -3.135  -1.671  24.441  0.00  0.00    -0.348 OA
ATOM     13  C   UNL     1      -3.882  -1.335  24.351  0.00  0.00    +0.164 C 
ATOM     14  C   UNL     1      -4.127  -0.566  24.528  0.00  0.00    +0.125 C 
ATOM     15  N   UNL     1      -3.683   0.056  24.839  0.00  0.00    -0.282 N 
ATOM     16  C   UNL     1      -2.886   0.063  25.049  0.00  0.00    +0.139 C 
ATOM     17  C   UNL     1      -4.090   0.764  24.954  0.00  0.00    +0.163 A 
ATOM     18  N   UNL     1      -3.773   1.462  25.255  0.00  0.00    -0.224 NA
ATOM     19  C   UNL     1      -4.373   2.027  25.275  0.00  0.00    +0.089 A 
ATOM     20  C   UNL     1      -5.062   1.678  24.986  0.00  0.00    +0.050 A 
ATOM     21  S   UNL     1      -4.888   0.897  24.787  0.00  0.00    -0.052 S 
ATOM     22  C   UNL     1      -5.760   2.117  24.941  0.00  0.00    +0.008 A 
ATOM     23  C   UNL     1      -5.768   2.904  25.185  0.00  0.00    +0.001 A 
ATOM     24  C   UNL     1      -5.079   3.253  25.475  0.00  0.00    +0.002 A 
ATOM     25  C   UNL     1      -4.382   2.816  25.520  0.00  0.00    +0.020 A 
ENDROOT
BRANCH  10   9
ATOM      9  O   UNL     1      -1.573  -0.366  25.259  0.00  0.00    -0.460 OA
BRANCH   9   8
ATOM      5  C   UNL     1       0.249  -0.067  23.609  0.00  0.00    +0.091 A 
ATOM      6  C   UNL     1      -0.261   0.560  23.779  0.00  0.00    +0.106 A 
ATOM      7  N   UNL     1      -0.868   0.460  24.330  0.00  0.00    -0.210 NA
ATOM      8  C   UNL     1      -0.965  -0.266  24.708  0.00  0.00    +0.225 A 
ATOM     26  C   UNL     1      -0.456  -0.893  24.538  0.00  0.00    +0.058 A 
ATOM     27  C   UNL     1       0.151  -0.793  23.988  0.00  0.00    +0.010 A 
BRANCH   5   2
ATOM      1  F   UNL     1       1.462   0.134  22.510  0.00  0.00    -0.166 F 
ATOM      2  C   UNL     1       0.856   0.033  23.059  0.00  0.00    +0.420 C 
ATOM      3  F   UNL     1       1.077   0.735  23.432  0.00  0.00    -0.166 F 
ATOM      4  F   UNL     1       0.634  -0.668  22.686  0.00  0.00    -0.166 F 
ENDBRANCH   5   2
ENDBRANCH   9   8
ENDBRANCH  10   9
TORSDOF 3
ENDMDL
MODEL 8
REMARK VINA RESULT:     -10.1      2.771      3.887
REMARK  Name = 
REMARK  3 active torsions:
REMARK  status: ('A' for Active; 'I' for Inactive)
REMARK    1  A    between atoms: C_2  and  C_5
REMARK    2  A    between atoms: C_8  and  O_9
REMARK    3  A    between atoms: O_9  and  C_10
REMARK                            x       y       z     vdW  Elec       q    Type
REMARK                         _______ _______ _______ _____ _____    ______ ____
ROOT
ATOM     10  C   UNL     1      -3.018   3.458  24.515  0.00  0.00    +0.217 C 
ATOM     11  C   UNL     1      -3.031   4.131  24.993  0.00  0.00    +0.187 C 
ATOM     12  O   UNL     1      -2.421   4.454  25.444  0.00  0.00    -0.348 OA
ATOM     13  C   UNL     1      -1.646   4.184  25.531  0.00  0.00    +0.164 C 
ATOM     14  C   UNL     1      -1.291   3.523  25.186  0.00  0.00    +0.125 C 
ATOM     15  N   UNL     1      -1.621   2.970  24.671  0.00  0.00    -0.282 N 
ATOM     16  C   UNL     1      -2.390   2.941  24.372  0.00  0.00    +0.139 C 
ATOM     17  C   UNL     1      -1.117   2.367  24.421  0.00  0.00    +0.163 A 
ATOM     18  N   UNL     1      -1.314   1.751  23.909  0.00  0.00    -0.224 NA
ATOM     19  C   UNL     1      -0.646   1.277  23.812  0.00  0.00    +0.089 A 
ATOM     20  C   UNL     1      -0.036   1.600  24.263  0.00  0.00    +0.050 A 
ATOM     21  S   UNL     1      -0.327   2.273  24.640  0.00  0.00    -0.052 S 
ATOM     22  C   UNL     1       0.706   1.239  24.272  0.00  0.00    +0.008 A 
ATOM     23  C   UNL     1       0.837   0.555  23.831  0.00  0.00    +0.001 A 
ATOM     24  C   UNL     1       0.227   0.232  23.379  0.00  0.00    +0.002 A 
ATOM     25  C   UNL     1      -0.515   0.593  23.369  0.00  0.00    +0.020 A 
ENDROOT
BRANCH  10   9
ATOM      9  O   UNL     1      -3.724   3.277  24.131  0.00  0.00    -0.460 OA
BRANCH   9   8
ATOM      5  C   UNL     1      -5.576   2.215  25.383  0.00  0.00    +0.091 A 
ATOM      6  C   UNL     1      -5.043   1.748  24.960  0.00  0.00    +0.106 A 
ATOM      7  N   UNL     1      -4.426   2.102  24.542  0.00  0.00    -0.210 NA
ATOM      8  C   UNL     1      -4.342   2.922  24.548  0.00  0.00    +0.225 A 
ATOM     26  C   UNL     1      -4.875   3.390  24.971  0.00  0.00    +0.058 A 
ATOM     27  C   UNL     1      -5.492   3.035  25.389  0.00  0.00    +0.010 A 
BRANCH   5   2
ATOM      1  F   UNL     1      -6.810   1.506  26.218  0.00  0.00    -0.166 F 
ATOM      2  C   UNL     1      -6.194   1.860  25.800  0.00  0.00    +0.420 C 
ATOM      3  F   UNL     1      -5.739   1.879  26.488  0.00  0.00    -0.166 F 
ATOM      4  F   UNL     1      -6.648   1.841  25.113  0.00  0.00    -0.166 F 
ENDBRANCH   5   2
ENDBRANCH   9   8
ENDBRANCH  10   9
TORSDOF 3
ENDMDL
MODEL 9
REMARK VINA RESULT:     -10.0      3.039      4.355
REMARK  Name = 
REMARK  3 active torsions:
REMARK  status: ('A' for Active; 'I' for Inactive)
REMARK    1  A    between atoms: C_2  and  C_5
REMARK    2  A    between atoms: C_8  and  O_9
REMARK    3  A    between atoms: O_9  and  C_10
REMARK                            x       y       z     vdW  Elec       q    Type
REMARK                         _______ _______ _______ _____ _____    ______ ____
ROOT
ATOM     10  C   UNL     1      -3.917   0.186  24.707  0.00  0.00    +0.217 C 
ATOM     11  C   UNL     1      -4.331  -0.241  25.280  0.00  0.00    +0.187 C 
ATOM     12  O   UNL     1      -4.047  -0.815  25.799  0.00  0.00    -0.348 OA
ATOM     13  C   UNL     1      -3.279  -1.106  25.874  0.00  0.00    +0.164 C 
ATOM     14  C   UNL     1      -2.604  -0.893  25.448  0.00  0.00    +0.125 C 
ATOM     15  N   UNL     1      -2.532  -0.338  24.843  0.00  0.00    -0.282 N 
ATOM     16  C   UNL     1      -3.116   0.142  24.513  0.00  0.00    +0.139 C 
ATOM     17  C   UNL     1      -1.775  -0.251  24.525  0.00  0.00    +0.163 A 
ATOM     18  N   UNL     1      -1.560   0.265  23.919  0.00  0.00    -0.224 NA
ATOM     19  C   UNL     1      -0.754   0.169  23.777  0.00  0.00    +0.089 A 
ATOM     20  C   UNL     1      -0.470  -0.405  24.296  0.00  0.00    +0.050 A 
ATOM     21  S   UNL     1      -1.101  -0.665  24.759  0.00  0.00    -0.052 S 
ATOM     22  C   UNL     1       0.328  -0.617  24.280  0.00  0.00    +0.008 A 
ATOM     23  C   UNL     1       0.841  -0.255  23.746  0.00  0.00    +0.001 A 
ATOM     24  C   UNL     1       0.557   0.320  23.227  0.00  0.00    +0.002 A 
ATOM     25  C   UNL     1      -0.240   0.532  23.242  0.00  0.00    +0.020 A 
ENDROOT
BRANCH  10   9
ATOM      9  O   UNL     1      -4.362   0.727  24.272  0.00  0.00    -0.460 OA
BRANCH   9   8
ATOM      5  C   UNL     1      -4.982   2.905  25.271  0.00  0.00    +0.091 A 
ATOM      6  C   UNL     1      -5.395   2.222  25.481  0.00  0.00    +0.106 A 
ATOM      7  N   UNL     1      -5.188   1.496  25.148  0.00  0.00    -0.210 NA
ATOM      8  C   UNL     1      -4.569   1.453  24.605  0.00  0.00    +0.225 A 
ATOM     26  C   UNL     1      -4.156   2.136  24.395  0.00  0.00    +0.058 A 
ATOM     27  C   UNL     1      -4.363   2.862  24.728  0.00  0.00    +0.010 A 
BRANCH   5   2
ATOM      1  F   UNL     1      -5.396   4.356  25.937  0.00  0.00    -0.166 F 
ATOM      2  C   UNL     1      -5.189   3.631  25.604  0.00  0.00    +0.420 C 
ATOM      3  F   UNL     1      -4.417   3.726  25.876  0.00  0.00    -0.166 F 
ATOM      4  F   UNL     1      -5.962   3.536  25.332  0.00  0.00    -0.166 F 
ENDBRANCH   5   2
ENDBRANCH   9   8
ENDBRANCH  10   9
TORSDOF 3
ENDMDL
MODEL 10
REMARK VINA RESULT:      -9.8     16.485     18.636
REMARK  Name = 
REMARK  3 active torsions:
REMARK  status: ('A' for Active; 'I' for Inactive)
REMARK    1  A    between atoms: C_2  and  C_5
REMARK    2  A    between atoms: C_8  and  O_9
REMARK    3  A    between atoms: O_9  and  C_10
REMARK                            x       y       z     vdW  Elec       q    Type
REMARK                         _______ _______ _______ _____ _____    ______ ____
ROOT
ATOM     10  C   UNL     1      12.703   6.884  19.317  0.00  0.00    +0.217 C 
ATOM     11  C   UNL     1      12.399   7.229  18.632  0.00  0.00    +0.187 C 
ATOM     12  O   UNL     1      12.804   7.626  18.032  0.00  0.00    -0.348 OA
ATOM     13  C   UNL     1      13.612   7.776  17.970  0.00  0.00    +0.164 C 
ATOM     14  C   UNL     1      14.217   7.566  18.493  0.00  0.00    +0.125 C 
ATOM     15  N   UNL     1      14.161   7.155  19.205  0.00  0.00    -0.282 N 
ATOM     16  C   UNL     1      13.487   6.852  19.572  0.00  0.00    +0.139 C 
ATOM     17  C   UNL     1      14.872   7.031  19.604  0.00  0.00    +0.163 A 
ATOM     18  N   UNL     1      14.964   6.637  20.323  0.00  0.00    -0.224 NA
ATOM     19  C   UNL     1      15.765   6.642  20.516  0.00  0.00    +0.089 A 
ATOM     20  C   UNL     1      16.170   7.038  19.916  0.00  0.00    +0.050 A 
ATOM     21  S   UNL     1      15.619   7.279  19.353  0.00  0.00    -0.052 S 
ATOM     22  C   UNL     1      16.989   7.129  19.962  0.00  0.00    +0.008 A 
ATOM     23  C   UNL     1      17.403   6.823  20.606  0.00  0.00    +0.001 A 
ATOM     24  C   UNL     1      16.998   6.427  21.206  0.00  0.00    +0.002 A 
ATOM     25  C   UNL     1      16.179   6.335  21.161  0.00  0.00    +0.020 A 
ENDROOT
BRANCH  10   9
ATOM      9  O   UNL     1      12.150   6.525  19.813  0.00  0.00    -0.460 OA
BRANCH   9   8
ATOM      5  C   UNL     1      11.010   7.855  21.561  0.00  0.00    +0.091 A 
ATOM      6  C   UNL     1      10.878   8.023  20.764  0.00  0.00    +0.106 A 
ATOM      7  N   UNL     1      11.259   7.579  20.181  0.00  0.00    -0.210 NA
ATOM      8  C   UNL     1      11.770   6.969  20.396  0.00  0.00    +0.225 A 
ATOM     26  C   UNL     1      11.901   6.801  21.193  0.00  0.00    +0.058 A 
ATOM     27  C   UNL     1      11.521   7.245  21.776  0.00  0.00    +0.010 A 
BRANCH   5   2
ATOM      1  F   UNL     1      10.249   8.743  22.726  0.00  0.00    -0.166 F 
ATOM      2  C   UNL     1      10.629   8.299  22.144  0.00  0.00    +0.420 C 
ATOM      3  F   UNL     1      11.116   8.942  21.971  0.00  0.00    -0.166 F 
ATOM      4  F   UNL     1      10.143   7.656  22.317  0.00  0.00    -0.166 F 
ENDBRANCH   5   2
ENDBRANCH   9   8
ENDBRANCH  10   9
TORSDOF 3
ENDMDL
