MODEL 1
REMARK VINA RESULT:     -13.4      0.000      0.000
REMARK  Name = 
REMARK  6 active torsions:
REMARK  status: ('A' for Active; 'I' for Inactive)
REMARK    1  A    between atoms: C_4  and  C_5
REMARK    2  A    between atoms: C_5  and  N_6
REMARK    3  A    between atoms: N_6  and  C_7
REMARK    4  A    between atoms: C_12  and  C_13
REMARK    5  A    between atoms: C_13  and  C_14
REMARK    6  A    between atoms: C_14  and  C_15
REMARK                            x       y       z     vdW  Elec       q    Type
REMARK                         _______ _______ _______ _____ _____    ______ ____
ROOT
ATOM      7  C   UNL     1      -4.703   1.018  24.888  0.00  0.00    +0.091 C 
ATOM      8  C   UNL     1      -5.323   1.234  25.388  0.00  0.00    +0.044 C 
ATOM      9  C   UNL     1      -5.271   2.047  25.521  0.00  0.00    +0.138 C 
ATOM     10  N   UNL     1      -4.619   2.333  25.104  0.00  0.00    -0.265 NA
ATOM     11  C   UNL     1      -4.269   1.697  24.713  0.00  0.00    +0.090 C 
ATOM     12  C   UNL     1      -4.429   3.135  25.135  0.00  0.00    +0.080 C 
ATOM     26  C   UNL     1      -4.891   3.651  25.583  0.00  0.00    +0.131 C 
ATOM     27  N   UNL     1      -5.543   3.366  26.000  0.00  0.00    -0.203 NA
ATOM     28  C   UNL     1      -5.733   2.563  25.969  0.00  0.00    +0.256 C 
ATOM     29  O   UNL     1      -6.385   2.277  26.386  0.00  0.00    -0.272 OA
ENDROOT
BRANCH   7   6
ATOM      6  N   UNL     1      -4.546   0.257  24.612  0.00  0.00    -0.213 NA
BRANCH   6   5
ATOM      5  C   UNL     1      -3.859  -0.134  24.847  0.00  0.00    +0.116 C 
BRANCH   5   4
ATOM      1  C   UNL     1      -4.238  -2.782  23.718  0.00  0.00    +0.130 C 
ATOM      2  N   UNL     1      -3.894  -2.126  24.079  0.00  0.00    -0.324 N 
ATOM      3  C   UNL     1      -4.267  -1.405  24.232  0.00  0.00    +0.073 A 
ATOM      4  C   UNL     1      -3.720  -0.908  24.598  0.00  0.00    +0.014 A 
ATOM     30  C   UNL     1      -3.009  -1.321  24.671  0.00  0.00    +0.015 A 
ATOM     31  C   UNL     1      -3.117  -2.073  24.351  0.00  0.00    +0.060 A 
ATOM     32  C   UNL     1      -2.493  -2.613  24.347  0.00  0.00    +0.017 A 
ATOM     33  C   UNL     1      -1.762  -2.401  24.665  0.00  0.00    +0.001 A 
ATOM     34  C   UNL     1      -1.654  -1.649  24.986  0.00  0.00    +0.000 A 
ATOM     35  C   UNL     1      -2.278  -1.108  24.989  0.00  0.00    +0.001 A 
ENDBRANCH   5   4
ENDBRANCH   6   5
ENDBRANCH   7   6
BRANCH  12  13
ATOM     13  C   UNL     1      -3.777   3.421  24.718  0.00  0.00    +0.027 C 
BRANCH  13  14
ATOM     14  C   UNL     1      -3.069   3.573  25.113  0.00  0.00    +0.087 C 
BRANCH  14  15
ATOM     15  C   UNL     1      -2.587   4.197  24.870  0.00  0.00    +0.229 C 
ATOM     16  O   UNL     1      -2.919   4.859  24.507  0.00  0.00    -0.275 OA
ATOM     17  N   UNL     1      -1.771   4.158  24.988  0.00  0.00    -0.259 N 
ATOM     18  C   UNL     1      -1.222   4.735  24.775  0.00  0.00    +0.103 C 
ATOM     19  C   UNL     1      -0.473   4.469  24.996  0.00  0.00    +0.049 C 
ATOM     20  C   UNL     1      -0.559   3.726  25.346  0.00  0.00    -0.007 A 
ATOM     21  C   UNL     1      -0.012   3.201  25.668  0.00  0.00    -0.003 A 
ATOM     22  C   UNL     1      -0.265   2.483  25.986  0.00  0.00    -0.000 A 
ATOM     23  C   UNL     1      -1.067   2.291  25.981  0.00  0.00    +0.001 A 
ATOM     24  C   UNL     1      -1.616   2.817  25.659  0.00  0.00    +0.015 A 
ATOM     25  C   UNL     1      -1.362   3.534  25.341  0.00  0.00    +0.050 A 
ENDBRANCH  14  15
ENDBRANCH  13  14
ENDBRANCH  12  13
TORSDOF 6
ENDMDL
MODEL 2
REMARK VINA RESULT:     -12.5      2.271      5.992
REMARK  Name = 
REMARK  6 active torsions:
REMARK  status: ('A' for Active; 'I' for Inactive)
REMARK    1  A    between atoms: C_4  and  C_5
REMARK    2  A    between atoms: C_5  and  N_6
REMARK    3  A    between atoms: N_6  and  C_7
REMARK    4  A    between atoms: C_12  and  C_13
REMARK    5  A    between atoms: C_13  and  C_14
REMARK    6  A    between atoms: C_14  and  C_15
REMARK                            x       y       z     vdW  Elec       q    Type
REMARK                         _______ _______ _______ _____ _____    ______ ____
ROOT
ATOM      7  C   UNL     1      -0.954   1.653  24.780  0.00  0.00    +0.091 C 
ATOM      8  C   UNL     1      -0.320   1.696  24.254  0.00  0.00    +0.044 C 
ATOM      9  C   UNL     1      -0.062   0.926  24.103  0.00  0.00    +0.138 C 
ATOM     10  N   UNL     1      -0.537   0.409  24.536  0.00  0.00    -0.265 NA
ATOM     11  C   UNL     1      -1.088   0.858  24.954  0.00  0.00    +0.090 C 
ATOM     12  C   UNL     1      -0.407  -0.405  24.493  0.00  0.00    +0.080 C 
ATOM     26  C   UNL     1       0.199  -0.700  24.017  0.00  0.00    +0.131 C 
ATOM     27  N   UNL     1       0.674  -0.183  23.585  0.00  0.00    -0.203 NA
ATOM     28  C   UNL     1       0.543   0.631  23.628  0.00  0.00    +0.256 C 
ATOM     29  O   UNL     1       1.018   1.149  23.195  0.00  0.00    -0.272 OA
ENDROOT
BRANCH   7   6
ATOM      6  N   UNL     1      -1.379   2.293  25.080  0.00  0.00    -0.213 NA
BRANCH   6   5
ATOM      5  C   UNL     1      -2.093   2.514  24.731  0.00  0.00    +0.116 C 
BRANCH   5   4
ATOM      1  C   UNL     1      -3.153   4.557  26.502  0.00  0.00    +0.130 C 
ATOM      2  N   UNL     1      -3.104   3.943  25.954  0.00  0.00    -0.324 N 
ATOM      3  C   UNL     1      -2.409   3.591  25.680  0.00  0.00    +0.073 A 
ATOM      4  C   UNL     1      -2.617   3.004  25.139  0.00  0.00    +0.014 A 
ATOM     30  C   UNL     1      -3.440   2.993  25.078  0.00  0.00    +0.015 A 
ATOM     31  C   UNL     1      -3.741   3.574  25.581  0.00  0.00    +0.060 A 
ATOM     32  C   UNL     1      -4.555   3.690  25.635  0.00  0.00    +0.017 A 
ATOM     33  C   UNL     1      -5.070   3.227  25.186  0.00  0.00    +0.001 A 
ATOM     34  C   UNL     1      -4.769   2.647  24.682  0.00  0.00    +0.000 A 
ATOM     35  C   UNL     1      -3.953   2.530  24.628  0.00  0.00    +0.001 A 
ENDBRANCH   5   4
ENDBRANCH   6   5
ENDBRANCH   7   6
BRANCH  12  13
ATOM     13  C   UNL     1      -0.882  -0.922  24.925  0.00  0.00    +0.027 C 
BRANCH  13  14
ATOM     14  C   UNL     1      -1.506  -1.315  24.556  0.00  0.00    +0.087 C 
BRANCH  14  15
ATOM     15  C   UNL     1      -1.702  -2.083  24.783  0.00  0.00    +0.229 C 
ATOM     16  O   UNL     1      -1.130  -2.572  25.121  0.00  0.00    -0.275 OA
ATOM     17  N   UNL     1      -2.470  -2.363  24.672  0.00  0.00    -0.259 N 
ATOM     18  C   UNL     1      -2.746  -3.115  24.870  0.00  0.00    +0.103 C 
ATOM     19  C   UNL     1      -3.544  -3.156  24.664  0.00  0.00    +0.049 C 
ATOM     20  C   UNL     1      -3.761  -2.430  24.338  0.00  0.00    -0.007 A 
ATOM     21  C   UNL     1      -4.477  -2.152  24.037  0.00  0.00    -0.003 A 
ATOM     22  C   UNL     1      -4.530  -1.384  23.741  0.00  0.00    -0.000 A 
ATOM     23  C   UNL     1      -3.867  -0.894  23.746  0.00  0.00    +0.001 A 
ATOM     24  C   UNL     1      -3.150  -1.172  24.047  0.00  0.00    +0.015 A 
ATOM     25  C   UNL     1      -3.098  -1.940  24.342  0.00  0.00    +0.050 A 
ENDBRANCH  14  15
ENDBRANCH  13  14
ENDBRANCH  12  13
TORSDOF 6
ENDMDL
MODEL 3
REMARK VINA RESULT:     -12.0      1.936      3.784
REMARK  Name = 
REMARK  6 active torsions:
REMARK  status: ('A' for Active; 'I' for Inactive)
REMARK    1  A    between atoms: C_4  and  C_5
REMARK    2  A    between atoms: C_5  and  N_6
REMARK    3  A    between atoms: N_6  and  C_7
REMARK    4  A    between atoms: C_12  and  C_13
REMARK    5  A    between atoms: C_13  and  C_14
REMARK    6  A    between atoms: C_14  and  C_15
REMARK                            x       y       z     vdW  Elec       q    Type
REMARK                         _______ _______ _______ _____ _____    ______ ____
ROOT
ATOM      7  C   UNL     1      -0.678  -0.375  24.590  0.00  0.00    +0.091 C 
ATOM      8  C   UNL     1      -0.072  -0.269  24.039  0.00  0.00    +0.044 C 
ATOM      9  C   UNL     1       0.179   0.516  24.086  0.00  0.00    +0.138 C 
ATOM     10  N   UNL     1      -0.272   0.894  24.665  0.00  0.00    -0.265 NA
ATOM     11  C   UNL     1      -0.801   0.343  24.976  0.00  0.00    +0.090 C 
ATOM     12  C   UNL     1      -0.141   1.692  24.834  0.00  0.00    +0.080 C 
ATOM     26  C   UNL     1       0.440   2.110  24.424  0.00  0.00    +0.131 C 
ATOM     27  N   UNL     1       0.890   1.732  23.845  0.00  0.00    -0.203 NA
ATOM     28  C   UNL     1       0.759   0.934  23.676  0.00  0.00    +0.256 C 
ATOM     29  O   UNL     1       1.210   0.556  23.098  0.00  0.00    -0.272 OA
ENDROOT
BRANCH   7   6
ATOM      6  N   UNL     1      -1.088  -1.077  24.729  0.00  0.00    -0.213 NA
BRANCH   6   5
ATOM      5  C   UNL     1      -1.863  -1.053  25.013  0.00  0.00    +0.116 C 
BRANCH   5   4
ATOM      1  C   UNL     1      -3.106  -3.570  24.268  0.00  0.00    +0.130 C 
ATOM      2  N   UNL     1      -2.985  -2.767  24.411  0.00  0.00    -0.324 N 
ATOM      3  C   UNL     1      -2.290  -2.423  24.693  0.00  0.00    +0.073 A 
ATOM      4  C   UNL     1      -2.414  -1.610  24.753  0.00  0.00    +0.014 A 
ATOM     30  C   UNL     1      -3.186  -1.450  24.509  0.00  0.00    +0.015 A 
ATOM     31  C   UNL     1      -3.539  -2.165  24.298  0.00  0.00    +0.060 A 
ATOM     32  C   UNL     1      -4.319  -2.176  24.029  0.00  0.00    +0.017 A 
ATOM     33  C   UNL     1      -4.746  -1.473  23.972  0.00  0.00    +0.001 A 
ATOM     34  C   UNL     1      -4.393  -0.758  24.184  0.00  0.00    +0.000 A 
ATOM     35  C   UNL     1      -3.613  -0.746  24.452  0.00  0.00    +0.001 A 
ENDBRANCH   5   4
ENDBRANCH   6   5
ENDBRANCH   7   6
BRANCH  12  13
ATOM     13  C   UNL     1      -0.592   2.070  25.412  0.00  0.00    +0.027 C 
BRANCH  13  14
ATOM     14  C   UNL     1      -1.186   2.597  25.193  0.00  0.00    +0.087 C 
BRANCH  14  15
ATOM     15  C   UNL     1      -1.507   3.113  25.751  0.00  0.00    +0.229 C 
ATOM     16  O   UNL     1      -1.075   3.311  26.425  0.00  0.00    -0.275 OA
ATOM     17  N   UNL     1      -2.259   3.431  25.634  0.00  0.00    -0.259 N 
ATOM     18  C   UNL     1      -2.649   3.951  26.141  0.00  0.00    +0.103 C 
ATOM     19  C   UNL     1      -3.385   4.127  25.811  0.00  0.00    +0.049 C 
ATOM     20  C   UNL     1      -3.449   3.714  25.099  0.00  0.00    -0.007 A 
ATOM     21  C   UNL     1      -4.051   3.674  24.537  0.00  0.00    -0.003 A 
ATOM     22  C   UNL     1      -3.958   3.205  23.864  0.00  0.00    -0.000 A 
ATOM     23  C   UNL     1      -3.262   2.775  23.755  0.00  0.00    +0.001 A 
ATOM     24  C   UNL     1      -2.660   2.815  24.318  0.00  0.00    +0.015 A 
ATOM     25  C   UNL     1      -2.754   3.284  24.990  0.00  0.00    +0.050 A 
ENDBRANCH  14  15
ENDBRANCH  13  14
ENDBRANCH  12  13
TORSDOF 6
ENDMDL
MODEL 4
REMARK VINA RESULT:     -12.0      1.444      3.684
REMARK  Name = 
REMARK  6 active torsions:
REMARK  status: ('A' for Active; 'I' for Inactive)
REMARK    1  A    between atoms: C_4  and  C_5
REMARK    2  A    between atoms: C_5  and  N_6
REMARK    3  A    between atoms: N_6  and  C_7
REMARK    4  A    between atoms: C_12  and  C_13
REMARK    5  A    between atoms: C_13  and  C_14
REMARK    6  A    between atoms: C_14  and  C_15
REMARK                            x       y       z     vdW  Elec       q    Type
REMARK                         _______ _______ _______ _____ _____    ______ ____
ROOT
ATOM      7  C   UNL     1      -0.726   1.096  25.126  0.00  0.00    +0.091 C 
ATOM      8  C   UNL     1      -0.182   1.505  24.659  0.00  0.00    +0.044 C 
ATOM      9  C   UNL     1      -0.377   2.306  24.684  0.00  0.00    +0.138 C 
ATOM     10  N   UNL     1      -1.041   2.393  25.167  0.00  0.00    -0.265 NA
ATOM     11  C   UNL     1      -1.256   1.645  25.440  0.00  0.00    +0.090 C 
ATOM     12  C   UNL     1      -1.363   3.142  25.295  0.00  0.00    +0.080 C 
ATOM     26  C   UNL     1      -1.021   3.804  24.941  0.00  0.00    +0.131 C 
ATOM     27  N   UNL     1      -0.357   3.717  24.458  0.00  0.00    -0.203 NA
ATOM     28  C   UNL     1      -0.035   2.968  24.330  0.00  0.00    +0.256 C 
ATOM     29  O   UNL     1       0.628   2.882  23.847  0.00  0.00    -0.272 OA
ENDROOT
BRANCH   7   6
ATOM      6  N   UNL     1      -0.737   0.282  25.257  0.00  0.00    -0.213 NA
BRANCH   6   5
ATOM      5  C   UNL     1      -1.442  -0.093  25.465  0.00  0.00    +0.116 C 
BRANCH   5   4
ATOM      1  C   UNL     1      -1.127  -2.716  24.258  0.00  0.00    +0.130 C 
ATOM      2  N   UNL     1      -1.457  -2.059  24.632  0.00  0.00    -0.324 N 
ATOM      3  C   UNL     1      -1.063  -1.358  24.819  0.00  0.00    +0.073 A 
ATOM      4  C   UNL     1      -1.602  -0.853  25.186  0.00  0.00    +0.014 A 
ATOM     30  C   UNL     1      -2.329  -1.242  25.226  0.00  0.00    +0.015 A 
ATOM     31  C   UNL     1      -2.240  -1.987  24.884  0.00  0.00    +0.060 A 
ATOM     32  C   UNL     1      -2.881  -2.503  24.846  0.00  0.00    +0.017 A 
ATOM     33  C   UNL     1      -3.614  -2.275  25.150  0.00  0.00    +0.001 A 
ATOM     34  C   UNL     1      -3.703  -1.530  25.493  0.00  0.00    +0.000 A 
ATOM     35  C   UNL     1      -3.061  -1.013  25.531  0.00  0.00    +0.001 A 
ENDBRANCH   5   4
ENDBRANCH   6   5
ENDBRANCH   7   6
BRANCH  12  13
ATOM     13  C   UNL     1      -2.026   3.228  25.778  0.00  0.00    +0.027 C 
BRANCH  13  14
ATOM     14  C   UNL     1      -2.771   3.329  25.440  0.00  0.00    +0.087 C 
BRANCH  14  15
ATOM     15  C   UNL     1      -3.361   3.731  25.854  0.00  0.00    +0.229 C 
ATOM     16  O   UNL     1      -3.159   4.342  26.371  0.00  0.00    -0.275 OA
ATOM     17  N   UNL     1      -4.152   3.521  25.753  0.00  0.00    -0.259 N 
ATOM     18  C   UNL     1      -4.798   3.871  26.127  0.00  0.00    +0.103 C 
ATOM     19  C   UNL     1      -5.482   3.491  25.864  0.00  0.00    +0.049 C 
ATOM     20  C   UNL     1      -5.258   2.906  25.327  0.00  0.00    -0.007 A 
ATOM     21  C   UNL     1      -5.696   2.360  24.892  0.00  0.00    -0.003 A 
ATOM     22  C   UNL     1      -5.313   1.831  24.387  0.00  0.00    -0.000 A 
ATOM     23  C   UNL     1      -4.491   1.850  24.318  0.00  0.00    +0.001 A 
ATOM     24  C   UNL     1      -4.052   2.397  24.753  0.00  0.00    +0.015 A 
ATOM     25  C   UNL     1      -4.436   2.925  25.258  0.00  0.00    +0.050 A 
ENDBRANCH  14  15
ENDBRANCH  13  14
ENDBRANCH  12  13
TORSDOF 6
ENDMDL
MODEL 5
REMARK VINA RESULT:     -11.9      1.786      5.187
REMARK  Name = 
REMARK  6 active torsions:
REMARK  status: ('A' for Active; 'I' for Inactive)
REMARK    1  A    between atoms: C_4  and  C_5
REMARK    2  A    between atoms: C_5  and  N_6
REMARK    3  A    between atoms: N_6  and  C_7
REMARK    4  A    between atoms: C_12  and  C_13
REMARK    5  A    between atoms: C_13  and  C_14
REMARK    6  A    between atoms: C_14  and  C_15
REMARK                            x       y       z     vdW  Elec       q    Type
REMARK                         _______ _______ _______ _____ _____    ______ ____
ROOT
ATOM      7  C   UNL     1      -2.096   2.876  25.001  0.00  0.00    +0.091 C 
ATOM      8  C   UNL     1      -1.465   3.187  25.433  0.00  0.00    +0.044 C 
ATOM      9  C   UNL     1      -0.844   2.645  25.399  0.00  0.00    +0.138 C 
ATOM     10  N   UNL     1      -1.091   2.000  24.948  0.00  0.00    -0.265 NA
ATOM     11  C   UNL     1      -1.865   2.143  24.702  0.00  0.00    +0.090 C 
ATOM     12  C   UNL     1      -0.578   1.366  24.820  0.00  0.00    +0.080 C 
ATOM     26  C   UNL     1       0.180   1.377  25.143  0.00  0.00    +0.131 C 
ATOM     27  N   UNL     1       0.428   2.022  25.594  0.00  0.00    -0.203 NA
ATOM     28  C   UNL     1      -0.085   2.656  25.723  0.00  0.00    +0.256 C 
ATOM     29  O   UNL     1       0.162   3.301  26.174  0.00  0.00    -0.272 OA
ENDROOT
BRANCH   7   6
ATOM      6  N   UNL     1      -2.830   3.236  24.889  0.00  0.00    -0.213 NA
BRANCH   6   5
ATOM      5  C   UNL     1      -3.480   2.784  24.657  0.00  0.00    +0.116 C 
BRANCH   5   4
ATOM      1  C   UNL     1      -5.738   4.285  25.697  0.00  0.00    +0.130 C 
ATOM      2  N   UNL     1      -5.274   3.670  25.404  0.00  0.00    -0.324 N 
ATOM      3  C   UNL     1      -4.478   3.723  25.188  0.00  0.00    +0.073 A 
ATOM      4  C   UNL     1      -4.235   2.980  24.925  0.00  0.00    +0.014 A 
ATOM     30  C   UNL     1      -4.880   2.467  24.978  0.00  0.00    +0.015 A 
ATOM     31  C   UNL     1      -5.521   2.894  25.274  0.00  0.00    +0.060 A 
ATOM     32  C   UNL     1      -6.248   2.520  25.386  0.00  0.00    +0.017 A 
ATOM     33  C   UNL     1      -6.334   1.720  25.203  0.00  0.00    +0.001 A 
ATOM     34  C   UNL     1      -5.692   1.294  24.908  0.00  0.00    +0.000 A 
ATOM     35  C   UNL     1      -4.965   1.668  24.795  0.00  0.00    +0.001 A 
ENDBRANCH   5   4
ENDBRANCH   6   5
ENDBRANCH   7   6
BRANCH  12  13
ATOM     13  C   UNL     1      -0.826   0.721  24.368  0.00  0.00    +0.027 C 
BRANCH  13  14
ATOM     14  C   UNL     1      -1.012   0.007  24.737  0.00  0.00    +0.087 C 
BRANCH  14  15
ATOM     15  C   UNL     1      -0.879  -0.706  24.345  0.00  0.00    +0.229 C 
ATOM     16  O   UNL     1      -0.236  -0.783  23.834  0.00  0.00    -0.275 OA
ATOM     17  N   UNL     1      -1.390  -1.344  24.464  0.00  0.00    -0.259 N 
ATOM     18  C   UNL     1      -1.327  -2.087  24.112  0.00  0.00    +0.103 C 
ATOM     19  C   UNL     1      -1.951  -2.553  24.386  0.00  0.00    +0.049 C 
ATOM     20  C   UNL     1      -2.399  -2.096  24.907  0.00  0.00    -0.007 A 
ATOM     21  C   UNL     1      -3.078  -2.264  25.344  0.00  0.00    -0.003 A 
ATOM     22  C   UNL     1      -3.411  -1.686  25.829  0.00  0.00    -0.000 A 
ATOM     23  C   UNL     1      -3.064  -0.939  25.878  0.00  0.00    +0.001 A 
ATOM     24  C   UNL     1      -2.384  -0.770  25.440  0.00  0.00    +0.015 A 
ATOM     25  C   UNL     1      -2.052  -1.349  24.956  0.00  0.00    +0.050 A 
ENDBRANCH  14  15
ENDBRANCH  13  14
ENDBRANCH  12  13
TORSDOF 6
ENDMDL
MODEL 6
REMARK VINA RESULT:     -11.6      1.031      4.781
REMARK  Name = 
REMARK  6 active torsions:
REMARK  status: ('A' for Active; 'I' for Inactive)
REMARK    1  A    between atoms: C_4  and  C_5
REMARK    2  A    between atoms: C_5  and  N_6
REMARK    3  A    between atoms: N_6  and  C_7
REMARK    4  A    between atoms: C_12  and  C_13
REMARK    5  A    between atoms: C_13  and  C_14
REMARK    6  A    between atoms: C_14  and  C_15
REMARK                            x       y       z     vdW  Elec       q    Type
REMARK                         _______ _______ _______ _____ _____    ______ ____
ROOT
ATOM      7  C   UNL     1      -3.979   3.087  25.262  0.00  0.00    +0.091 C 
ATOM      8  C   UNL     1      -4.666   3.195  25.706  0.00  0.00    +0.044 C 
ATOM      9  C   UNL     1      -5.124   2.512  25.634  0.00  0.00    +0.138 C 
ATOM     10  N   UNL     1      -4.721   1.984  25.146  0.00  0.00    -0.265 NA
ATOM     11  C   UNL     1      -4.013   2.339  24.916  0.00  0.00    +0.090 C 
ATOM     12  C   UNL     1      -5.050   1.247  24.975  0.00  0.00    +0.080 C 
ATOM     26  C   UNL     1      -5.783   1.039  25.292  0.00  0.00    +0.131 C 
ATOM     27  N   UNL     1      -6.186   1.568  25.780  0.00  0.00    -0.203 NA
ATOM     28  C   UNL     1      -5.857   2.305  25.951  0.00  0.00    +0.256 C 
ATOM     29  O   UNL     1      -6.260   2.834  26.439  0.00  0.00    -0.272 OA
ENDROOT
BRANCH   7   6
ATOM      6  N   UNL     1      -3.365   3.632  25.178  0.00  0.00    -0.213 NA
BRANCH   6   5
ATOM      5  C   UNL     1      -2.747   3.646  25.724  0.00  0.00    +0.116 C 
BRANCH   5   4
ATOM      1  C   UNL     1      -0.599   5.247  24.604  0.00  0.00    +0.130 C 
ATOM      2  N   UNL     1      -1.010   4.637  24.977  0.00  0.00    -0.324 N 
ATOM      3  C   UNL     1      -1.826   4.607  25.101  0.00  0.00    +0.073 A 
ATOM      4  C   UNL     1      -1.998   3.901  25.491  0.00  0.00    +0.014 A 
ATOM     30  C   UNL     1      -1.289   3.495  25.609  0.00  0.00    +0.015 A 
ATOM     31  C   UNL     1      -0.678   3.950  25.291  0.00  0.00    +0.060 A 
ATOM     32  C   UNL     1       0.100   3.680  25.329  0.00  0.00    +0.017 A 
ATOM     33  C   UNL     1       0.269   2.955  25.685  0.00  0.00    +0.001 A 
ATOM     34  C   UNL     1      -0.342   2.500  26.003  0.00  0.00    +0.000 A 
ATOM     35  C   UNL     1      -1.121   2.770  25.965  0.00  0.00    +0.001 A 
ENDBRANCH   5   4
ENDBRANCH   6   5
ENDBRANCH   7   6
BRANCH  12  13
ATOM     13  C   UNL     1      -4.647   0.718  24.487  0.00  0.00    +0.027 C 
BRANCH  13  14
ATOM     14  C   UNL     1      -4.304   0.040  24.808  0.00  0.00    +0.087 C 
BRANCH  14  15
ATOM     15  C   UNL     1      -4.339  -0.674  24.396  0.00  0.00    +0.229 C 
ATOM     16  O   UNL     1      -4.976  -0.831  23.897  0.00  0.00    -0.275 OA
ATOM     17  N   UNL     1      -3.737  -1.231  24.485  0.00  0.00    -0.259 N 
ATOM     18  C   UNL     1      -3.698  -1.966  24.112  0.00  0.00    +0.103 C 
ATOM     19  C   UNL     1      -3.005  -2.340  24.358  0.00  0.00    +0.049 C 
ATOM     20  C   UNL     1      -2.617  -1.837  24.885  0.00  0.00    -0.007 A 
ATOM     21  C   UNL     1      -1.910  -1.914  25.302  0.00  0.00    -0.003 A 
ATOM     22  C   UNL     1      -1.655  -1.307  25.799  0.00  0.00    -0.000 A 
ATOM     23  C   UNL     1      -2.107  -0.621  25.877  0.00  0.00    +0.001 A 
ATOM     24  C   UNL     1      -2.815  -0.544  25.459  0.00  0.00    +0.015 A 
ATOM     25  C   UNL     1      -3.069  -1.152  24.963  0.00  0.00    +0.050 A 
ENDBRANCH  14  15
ENDBRANCH  13  14
ENDBRANCH  12  13
TORSDOF 6
ENDMDL
MODEL 7
REMARK VINA RESULT:     -11.4      1.906      4.287
REMARK  Name = 
REMARK  6 active torsions:
REMARK  status: ('A' for Active; 'I' for Inactive)
REMARK    1  A    between atoms: C_4  and  C_5
REMARK    2  A    between atoms: C_5  and  N_6
REMARK    3  A    between atoms: N_6  and  C_7
REMARK    4  A    between atoms: C_12  and  C_13
REMARK    5  A    between atoms: C_13  and  C_14
REMARK    6  A    between atoms: C_14  and  C_15
REMARK                            x       y       z     vdW  Elec       q    Type
REMARK                         _______ _______ _______ _____ _____    ______ ____
ROOT
ATOM      7  C   UNL     1      -3.902  -0.423  24.725  0.00  0.00    +0.091 C 
ATOM      8  C   UNL     1      -3.889  -1.192  25.023  0.00  0.00    +0.044 C 
ATOM      9  C   UNL     1      -3.136  -1.503  24.891  0.00  0.00    +0.138 C 
ATOM     10  N   UNL     1      -2.684  -0.926  24.512  0.00  0.00    -0.265 NA
ATOM     11  C   UNL     1      -3.158  -0.259  24.409  0.00  0.00    +0.090 C 
ATOM     12  C   UNL     1      -1.900  -1.084  24.309  0.00  0.00    +0.080 C 
ATOM     26  C   UNL     1      -1.568  -1.819  24.486  0.00  0.00    +0.131 C 
ATOM     27  N   UNL     1      -2.020  -2.395  24.865  0.00  0.00    -0.203 NA
ATOM     28  C   UNL     1      -2.805  -2.237  25.068  0.00  0.00    +0.256 C 
ATOM     29  O   UNL     1      -3.257  -2.814  25.447  0.00  0.00    -0.272 OA
ENDROOT
BRANCH   7   6
ATOM      6  N   UNL     1      -4.546   0.092  24.740  0.00  0.00    -0.213 NA
BRANCH   6   5
ATOM      5  C   UNL     1      -4.449   0.881  24.519  0.00  0.00    +0.116 C 
BRANCH   5   4
ATOM      1  C   UNL     1      -6.429   2.251  26.143  0.00  0.00    +0.130 C 
ATOM      2  N   UNL     1      -5.778   2.104  25.660  0.00  0.00    -0.324 N 
ATOM      3  C   UNL     1      -5.545   1.366  25.371  0.00  0.00    +0.073 A 
ATOM      4  C   UNL     1      -4.867   1.474  24.914  0.00  0.00    +0.014 A 
ATOM     30  C   UNL     1      -4.681   2.278  24.919  0.00  0.00    +0.015 A 
ATOM     31  C   UNL     1      -5.243   2.667  25.380  0.00  0.00    +0.060 A 
ATOM     32  C   UNL     1      -5.196   3.483  25.486  0.00  0.00    +0.017 A 
ATOM     33  C   UNL     1      -4.587   3.912  25.131  0.00  0.00    +0.001 A 
ATOM     34  C   UNL     1      -4.024   3.522  24.670  0.00  0.00    +0.000 A 
ATOM     35  C   UNL     1      -4.071   2.705  24.564  0.00  0.00    +0.001 A 
ENDBRANCH   5   4
ENDBRANCH   6   5
ENDBRANCH   7   6
BRANCH  12  13
ATOM     13  C   UNL     1      -1.448  -0.508  23.930  0.00  0.00    +0.027 C 
BRANCH  13  14
ATOM     14  C   UNL     1      -0.888  -0.077  24.356  0.00  0.00    +0.087 C 
BRANCH  14  15
ATOM     15  C   UNL     1      -0.271   0.301  23.960  0.00  0.00    +0.229 C 
ATOM     16  O   UNL     1       0.053  -0.037  23.281  0.00  0.00    -0.275 OA
ATOM     17  N   UNL     1       0.023   1.019  24.243  0.00  0.00    -0.259 N 
ATOM     18  C   UNL     1       0.634   1.458  23.908  0.00  0.00    +0.103 C 
ATOM     19  C   UNL     1       0.746   2.134  24.369  0.00  0.00    +0.049 C 
ATOM     20  C   UNL     1       0.202   2.111  24.990  0.00  0.00    -0.007 A 
ATOM     21  C   UNL     1       0.057   2.628  25.615  0.00  0.00    -0.003 A 
ATOM     22  C   UNL     1      -0.536   2.457  26.163  0.00  0.00    -0.000 A 
ATOM     23  C   UNL     1      -0.983   1.768  26.086  0.00  0.00    +0.001 A 
ATOM     24  C   UNL     1      -0.837   1.250  25.459  0.00  0.00    +0.015 A 
ATOM     25  C   UNL     1      -0.245   1.422  24.912  0.00  0.00    +0.050 A 
ENDBRANCH  14  15
ENDBRANCH  13  14
ENDBRANCH  12  13
TORSDOF 6
ENDMDL
MODEL 8
REMARK VINA RESULT:     -10.4      1.781      4.612
REMARK  Name = 
REMARK  6 active torsions:
REMARK  status: ('A' for Active; 'I' for Inactive)
REMARK    1  A    between atoms: C_4  and  C_5
REMARK    2  A    between atoms: C_5  and  N_6
REMARK    3  A    between atoms: N_6  and  C_7
REMARK    4  A    between atoms: C_12  and  C_13
REMARK    5  A    between atoms: C_13  and  C_14
REMARK    6  A    between atoms: C_14  and  C_15
REMARK                            x       y       z     vdW  Elec       q    Type
REMARK                         _______ _______ _______ _____ _____    ______ ____
ROOT
ATOM      7  C   UNL     1      -1.669  -0.766  25.017  0.00  0.00    +0.091 C 
ATOM      8  C   UNL     1      -1.825  -1.477  24.628  0.00  0.00    +0.044 C 
ATOM      9  C   UNL     1      -2.644  -1.573  24.594  0.00  0.00    +0.138 C 
ATOM     10  N   UNL     1      -2.993  -0.923  24.962  0.00  0.00    -0.265 NA
ATOM     11  C   UNL     1      -2.390  -0.425  25.224  0.00  0.00    +0.090 C 
ATOM     12  C   UNL     1      -3.815  -0.869  25.012  0.00  0.00    +0.080 C 
ATOM     26  C   UNL     1      -4.287  -1.465  24.693  0.00  0.00    +0.131 C 
ATOM     27  N   UNL     1      -3.938  -2.116  24.325  0.00  0.00    -0.203 NA
ATOM     28  C   UNL     1      -3.116  -2.170  24.275  0.00  0.00    +0.256 C 
ATOM     29  O   UNL     1      -2.767  -2.820  23.907  0.00  0.00    -0.272 OA
ENDROOT
BRANCH   7   6
ATOM      6  N   UNL     1      -0.921  -0.453  25.172  0.00  0.00    -0.213 NA
BRANCH   6   5
ATOM      5  C   UNL     1      -0.850   0.276  25.550  0.00  0.00    +0.116 C 
BRANCH   5   4
ATOM      1  C   UNL     1       0.958   1.728  23.802  0.00  0.00    +0.130 C 
ATOM      2  N   UNL     1       0.403   1.555  24.386  0.00  0.00    -0.324 N 
ATOM      3  C   UNL     1       0.115   0.805  24.575  0.00  0.00    +0.073 A 
ATOM      4  C   UNL     1      -0.428   0.888  25.190  0.00  0.00    +0.014 A 
ATOM     30  C   UNL     1      -0.477   1.689  25.382  0.00  0.00    +0.015 A 
ATOM     31  C   UNL     1       0.037   2.101  24.885  0.00  0.00    +0.060 A 
ATOM     32  C   UNL     1       0.105   2.920  24.951  0.00  0.00    +0.017 A 
ATOM     33  C   UNL     1      -0.340   3.328  25.514  0.00  0.00    +0.001 A 
ATOM     34  C   UNL     1      -0.853   2.916  26.010  0.00  0.00    +0.000 A 
ATOM     35  C   UNL     1      -0.922   2.095  25.945  0.00  0.00    +0.001 A 
ENDBRANCH   5   4
ENDBRANCH   6   5
ENDBRANCH   7   6
BRANCH  12  13
ATOM     13  C   UNL     1      -4.164  -0.218  25.381  0.00  0.00    +0.027 C 
BRANCH  13  14
ATOM     14  C   UNL     1      -4.420   0.422  24.929  0.00  0.00    +0.087 C 
BRANCH  14  15
ATOM     15  C   UNL     1      -4.909   0.995  25.267  0.00  0.00    +0.229 C 
ATOM     16  O   UNL     1      -5.427   0.789  25.875  0.00  0.00    -0.275 OA
ATOM     17  N   UNL     1      -4.880   1.774  24.996  0.00  0.00    -0.259 N 
ATOM     18  C   UNL     1      -5.333   2.402  25.278  0.00  0.00    +0.103 C 
ATOM     19  C   UNL     1      -5.126   3.078  24.852  0.00  0.00    +0.049 C 
ATOM     20  C   UNL     1      -4.545   2.866  24.305  0.00  0.00    -0.007 A 
ATOM     21  C   UNL     1      -4.135   3.303  23.739  0.00  0.00    -0.003 A 
ATOM     22  C   UNL     1      -3.572   2.935  23.261  0.00  0.00    -0.000 A 
ATOM     23  C   UNL     1      -3.420   2.129  23.350  0.00  0.00    +0.001 A 
ATOM     24  C   UNL     1      -3.831   1.691  23.917  0.00  0.00    +0.015 A 
ATOM     25  C   UNL     1      -4.393   2.060  24.394  0.00  0.00    +0.050 A 
ENDBRANCH  14  15
ENDBRANCH  13  14
ENDBRANCH  12  13
TORSDOF 6
ENDMDL
