MODEL 1
REMARK VINA RESULT:     -11.4      0.000      0.000
REMARK  Name = 
REMARK  4 active torsions:
REMARK  status: ('A' for Active; 'I' for Inactive)
REMARK    1  A    between atoms: C_5  and  C_8
REMARK    2  A    between atoms: C_25  and  C_27
REMARK    3  A    between atoms: C_27  and  O_28
REMARK    4  A    between atoms: O_28  and  C_29
REMARK                            x       y       z     vdW  Elec       q    Type
REMARK                         _______ _______ _______ _____ _____    ______ ____
ROOT
ATOM      8  C   UNL     1      -3.797   1.482  24.969  0.00  0.00    +0.000 A 
ATOM      9  C   UNL     1      -4.062   0.712  25.099  0.00  0.00    +0.001 A 
ATOM     10  C   UNL     1      -3.560   0.073  24.955  0.00  0.00    +0.017 A 
ATOM     11  C   UNL     1      -2.793   0.204  24.682  0.00  0.00    +0.078 A 
ATOM     12  N   UNL     1      -2.387  -0.506  24.576  0.00  0.00    -0.178 NA
ATOM     13  C   UNL     1      -1.613  -0.620  24.312  0.00  0.00    +0.265 C 
ATOM     14  O   UNL     1      -1.364  -1.405  24.264  0.00  0.00    -0.271 OA
ATOM     15  C   UNL     1      -1.055  -0.054  24.091  0.00  0.00    +0.174 C 
ATOM     16  C   UNL     1      -0.345  -0.404  23.861  0.00  0.00    +0.123 C 
ATOM     17  N   UNL     1       0.288   0.067  23.618  0.00  0.00    -0.273 N 
ATOM     18  C   UNL     1       0.209   0.888  23.606  0.00  0.00    +0.115 C 
ATOM     19  C   UNL     1      -0.502   1.238  23.836  0.00  0.00    +0.116 C 
ATOM     20  N   UNL     1      -1.134   0.767  24.078  0.00  0.00    -0.266 N 
ATOM     21  C   UNL     1      -1.789   1.225  24.284  0.00  0.00    +0.251 C 
ATOM     22  O   UNL     1      -1.693   2.041  24.211  0.00  0.00    -0.270 OA
ATOM     23  C   UNL     1      -2.528   0.974  24.553  0.00  0.00    +0.069 A 
ATOM     24  C   UNL     1      -3.029   1.613  24.696  0.00  0.00    +0.006 A 
ATOM     25  C   UNL     1       0.998  -0.282  23.388  0.00  0.00    +0.270 C 
ATOM     26  O   UNL     1       1.077  -1.104  23.401  0.00  0.00    -0.271 OA
ENDROOT
BRANCH   8   5
ATOM      1 CL   UNL     1      -5.804   4.039  25.541  0.00  0.00    -0.082 Cl
ATOM      2  C   UNL     1      -5.302   3.400  25.398  0.00  0.00    +0.058 A 
ATOM      3  C   UNL     1      -5.588   2.730  25.010  0.00  0.00    +0.011 A 
ATOM      4  C   UNL     1      -5.086   2.090  24.867  0.00  0.00    +0.001 A 
ATOM      5  C   UNL     1      -4.298   2.121  25.112  0.00  0.00    +0.000 A 
ATOM      6  C   UNL     1      -4.013   2.791  25.500  0.00  0.00    +0.001 A 
ATOM      7  C   UNL     1      -4.515   3.430  25.643  0.00  0.00    +0.011 A 
ENDBRANCH   8   5
BRANCH  25  27
ATOM     27  C   UNL     1       1.631   0.188  23.146  0.00  0.00    +0.290 C 
BRANCH  27  28
ATOM     28  O   UNL     1       2.254  -0.145  22.721  0.00  0.00    -0.466 OA
BRANCH  28  29
ATOM     29  C   UNL     1       3.018   0.157  22.803  0.00  0.00    +0.139 A 
ATOM     30  C   UNL     1       3.187   0.924  22.554  0.00  0.00    +0.037 A 
ATOM     31  C   UNL     1       3.951   1.226  22.636  0.00  0.00    +0.003 A 
ATOM     32  C   UNL     1       4.545   0.760  22.968  0.00  0.00    +0.000 A 
ATOM     33  C   UNL     1       4.375  -0.009  23.217  0.00  0.00    +0.003 A 
ATOM     34  C   UNL     1       3.611  -0.310  23.135  0.00  0.00    +0.037 A 
ENDBRANCH  28  29
ENDBRANCH  27  28
ENDBRANCH  25  27
TORSDOF 4
ENDMDL
MODEL 2
REMARK VINA RESULT:      -8.7      2.110      3.120
REMARK  Name = 
REMARK  4 active torsions:
REMARK  status: ('A' for Active; 'I' for Inactive)
REMARK    1  A    between atoms: C_5  and  C_8
REMARK    2  A    between atoms: C_25  and  C_27
REMARK    3  A    between atoms: C_27  and  O_28
REMARK    4  A    between atoms: O_28  and  C_29
REMARK                            x       y       z     vdW  Elec       q    Type
REMARK                         _______ _______ _______ _____ _____    ______ ____
ROOT
ATOM      8  C   UNL     1      -2.549  -0.620  24.317  0.00  0.00    +0.000 A 
ATOM      9  C   UNL     1      -2.807   0.123  24.565  0.00  0.00    +0.001 A 
ATOM     10  C   UNL     1      -2.285   0.762  24.565  0.00  0.00    +0.017 A 
ATOM     11  C   UNL     1      -1.505   0.658  24.317  0.00  0.00    +0.078 A 
ATOM     12  N   UNL     1      -1.079   1.363  24.360  0.00  0.00    -0.178 NA
ATOM     13  C   UNL     1      -0.289   1.499  24.166  0.00  0.00    +0.265 C 
ATOM     14  O   UNL     1      -0.023   2.273  24.270  0.00  0.00    -0.271 OA
ATOM     15  C   UNL     1       0.270   0.964  23.880  0.00  0.00    +0.174 C 
ATOM     16  C   UNL     1       1.000   1.328  23.756  0.00  0.00    +0.123 C 
ATOM     17  N   UNL     1       1.637   0.888  23.471  0.00  0.00    -0.273 N 
ATOM     18  C   UNL     1       1.544   0.084  23.310  0.00  0.00    +0.115 C 
ATOM     19  C   UNL     1       0.814  -0.279  23.434  0.00  0.00    +0.116 C 
ATOM     20  N   UNL     1       0.177   0.161  23.719  0.00  0.00    -0.266 N 
ATOM     21  C   UNL     1      -0.498  -0.306  23.803  0.00  0.00    +0.251 C 
ATOM     22  O   UNL     1      -0.413  -1.100  23.594  0.00  0.00    -0.270 OA
ATOM     23  C   UNL     1      -1.247  -0.085  24.070  0.00  0.00    +0.069 A 
ATOM     24  C   UNL     1      -1.768  -0.724  24.069  0.00  0.00    +0.006 A 
ATOM     25  C   UNL     1       2.367   1.252  23.347  0.00  0.00    +0.270 C 
ATOM     26  O   UNL     1       2.460   2.056  23.508  0.00  0.00    -0.271 OA
ENDROOT
BRANCH   8   5
ATOM      1 CL   UNL     1      -4.634  -3.178  24.315  0.00  0.00    -0.082 Cl
ATOM      2  C   UNL     1      -4.112  -2.539  24.316  0.00  0.00    +0.058 A 
ATOM      3  C   UNL     1      -4.254  -1.890  23.825  0.00  0.00    +0.011 A 
ATOM      4  C   UNL     1      -3.733  -1.251  23.826  0.00  0.00    +0.001 A 
ATOM      5  C   UNL     1      -3.069  -1.259  24.317  0.00  0.00    +0.000 A 
ATOM      6  C   UNL     1      -2.928  -1.908  24.807  0.00  0.00    +0.001 A 
ATOM      7  C   UNL     1      -3.450  -2.547  24.807  0.00  0.00    +0.011 A 
ENDBRANCH   8   5
BRANCH  25  27
ATOM     27  C   UNL     1       3.004   0.812  23.062  0.00  0.00    +0.290 C 
BRANCH  27  28
ATOM     28  O   UNL     1       3.752   1.155  23.011  0.00  0.00    -0.466 OA
BRANCH  28  29
ATOM     29  C   UNL     1       4.427   0.694  23.128  0.00  0.00    +0.139 A 
ATOM     30  C   UNL     1       4.712   0.218  22.518  0.00  0.00    +0.037 A 
ATOM     31  C   UNL     1       5.386  -0.243  22.635  0.00  0.00    +0.003 A 
ATOM     32  C   UNL     1       5.775  -0.228  23.362  0.00  0.00    +0.000 A 
ATOM     33  C   UNL     1       5.489   0.249  23.972  0.00  0.00    +0.003 A 
ATOM     34  C   UNL     1       4.815   0.710  23.855  0.00  0.00    +0.037 A 
ENDBRANCH  28  29
ENDBRANCH  27  28
ENDBRANCH  25  27
TORSDOF 4
ENDMDL
MODEL 3
REMARK VINA RESULT:      -8.2     15.015     16.541
REMARK  Name = 
REMARK  4 active torsions:
REMARK  status: ('A' for Active; 'I' for Inactive)
REMARK    1  A    between atoms: C_5  and  C_8
REMARK    2  A    between atoms: C_25  and  C_27
REMARK    3  A    between atoms: C_27  and  O_28
REMARK    4  A    between atoms: O_28  and  C_29
REMARK                            x       y       z     vdW  Elec       q    Type
REMARK                         _______ _______ _______ _____ _____    ______ ____
ROOT
ATOM      8  C   UNL     1      -6.117  -9.311  11.299  0.00  0.00    +0.000 A 
ATOM      9  C   UNL     1      -6.908  -9.318  11.070  0.00  0.00    +0.001 A 
ATOM     10  C   UNL     1      -7.500  -9.446  11.631  0.00  0.00    +0.017 A 
ATOM     11  C   UNL     1      -7.299  -9.565  12.421  0.00  0.00    +0.078 A 
ATOM     12  N   UNL     1      -7.970  -9.681  12.888  0.00  0.00    -0.178 NA
ATOM     13  C   UNL     1      -8.013  -9.819  13.700  0.00  0.00    +0.265 C 
ATOM     14  O   UNL     1      -8.773  -9.914  14.007  0.00  0.00    -0.271 OA
ATOM     15  C   UNL     1      -7.397  -9.874  14.247  0.00  0.00    +0.174 C 
ATOM     16  C   UNL     1      -7.681 -10.017  15.008  0.00  0.00    +0.123 C 
ATOM     17  N   UNL     1      -7.154 -10.091  15.638  0.00  0.00    -0.273 N 
ATOM     18  C   UNL     1      -6.343 -10.023  15.506  0.00  0.00    +0.115 C 
ATOM     19  C   UNL     1      -6.059  -9.880  14.746  0.00  0.00    +0.116 C 
ATOM     20  N   UNL     1      -6.586  -9.806  14.115  0.00  0.00    -0.266 N 
ATOM     21  C   UNL     1      -6.190  -9.665  13.406  0.00  0.00    +0.251 C 
ATOM     22  O   UNL     1      -5.367  -9.626  13.457  0.00  0.00    -0.270 OA
ATOM     23  C   UNL     1      -6.507  -9.558  12.651  0.00  0.00    +0.069 A 
ATOM     24  C   UNL     1      -5.916  -9.431  12.091  0.00  0.00    +0.006 A 
ATOM     25  C   UNL     1      -7.438 -10.234  16.399  0.00  0.00    +0.270 C 
ATOM     26  O   UNL     1      -8.251 -10.303  16.531  0.00  0.00    -0.271 OA
ENDROOT
BRANCH   8   5
ATOM      1 CL   UNL     1      -3.750  -8.803   9.056  0.00  0.00    -0.082 Cl
ATOM      2  C   UNL     1      -4.341  -8.930   9.617  0.00  0.00    +0.058 A 
ATOM      3  C   UNL     1      -4.705  -9.669   9.674  0.00  0.00    +0.011 A 
ATOM      4  C   UNL     1      -5.297  -9.796  10.234  0.00  0.00    +0.001 A 
ATOM      5  C   UNL     1      -5.525  -9.184  10.739  0.00  0.00    +0.000 A 
ATOM      6  C   UNL     1      -5.161  -8.445  10.682  0.00  0.00    +0.001 A 
ATOM      7  C   UNL     1      -4.570  -8.318  10.121  0.00  0.00    +0.011 A 
ENDBRANCH   8   5
BRANCH  25  27
ATOM     27  C   UNL     1      -6.911 -10.308  17.029  0.00  0.00    +0.290 C 
BRANCH  27  28
ATOM     28  O   UNL     1      -7.196 -10.417  17.795  0.00  0.00    -0.466 OA
BRANCH  28  29
ATOM     29  C   UNL     1      -6.669 -10.526  18.421  0.00  0.00    +0.139 A 
ATOM     30  C   UNL     1      -6.939 -10.488  19.199  0.00  0.00    +0.037 A 
ATOM     31  C   UNL     1      -6.412 -10.597  19.824  0.00  0.00    +0.003 A 
ATOM     32  C   UNL     1      -5.615 -10.744  19.671  0.00  0.00    +0.000 A 
ATOM     33  C   UNL     1      -5.345 -10.781  18.892  0.00  0.00    +0.003 A 
ATOM     34  C   UNL     1      -5.872 -10.672  18.266  0.00  0.00    +0.037 A 
ENDBRANCH  28  29
ENDBRANCH  27  28
ENDBRANCH  25  27
TORSDOF 4
ENDMDL
MODEL 4
REMARK VINA RESULT:      -8.0      2.167      6.505
REMARK  Name = 
REMARK  4 active torsions:
REMARK  status: ('A' for Active; 'I' for Inactive)
REMARK    1  A    between atoms: C_5  and  C_8
REMARK    2  A    between atoms: C_25  and  C_27
REMARK    3  A    between atoms: C_27  and  O_28
REMARK    4  A    between atoms: O_28  and  C_29
REMARK                            x       y       z     vdW  Elec       q    Type
REMARK                         _______ _______ _______ _____ _____    ______ ____
ROOT
ATOM      8  C   UNL     1       1.041  -0.193  23.392  0.00  0.00    +0.000 A 
ATOM      9  C   UNL     1       0.973  -0.978  23.634  0.00  0.00    +0.001 A 
ATOM     10  C   UNL     1       0.273  -1.244  23.980  0.00  0.00    +0.017 A 
ATOM     11  C   UNL     1      -0.359  -0.725  24.084  0.00  0.00    +0.078 A 
ATOM     12  N   UNL     1      -1.002  -1.100  24.438  0.00  0.00    -0.178 NA
ATOM     13  C   UNL     1      -1.737  -0.783  24.638  0.00  0.00    +0.265 C 
ATOM     14  O   UNL     1      -2.269  -1.306  24.989  0.00  0.00    -0.271 OA
ATOM     15  C   UNL     1      -2.010  -0.011  24.533  0.00  0.00    +0.174 C 
ATOM     16  C   UNL     1      -2.782   0.076  24.811  0.00  0.00    +0.123 C 
ATOM     17  N   UNL     1      -3.159   0.808  24.758  0.00  0.00    -0.273 N 
ATOM     18  C   UNL     1      -2.764   1.452  24.427  0.00  0.00    +0.115 C 
ATOM     19  C   UNL     1      -1.992   1.365  24.150  0.00  0.00    +0.116 C 
ATOM     20  N   UNL     1      -1.615   0.633  24.203  0.00  0.00    -0.266 N 
ATOM     21  C   UNL     1      -0.850   0.665  23.895  0.00  0.00    +0.251 C 
ATOM     22  O   UNL     1      -0.613   1.399  23.602  0.00  0.00    -0.270 OA
ATOM     23  C   UNL     1      -0.291   0.061  23.842  0.00  0.00    +0.069 A 
ATOM     24  C   UNL     1       0.409   0.327  23.496  0.00  0.00    +0.006 A 
ATOM     25  C   UNL     1      -3.931   0.895  25.035  0.00  0.00    +0.270 C 
ATOM     26  O   UNL     1      -4.326   0.250  25.366  0.00  0.00    -0.271 OA
ENDROOT
BRANCH   8   5
ATOM      1 CL   UNL     1       3.840   0.873  22.006  0.00  0.00    -0.082 Cl
ATOM      2  C   UNL     1       3.141   0.607  22.352  0.00  0.00    +0.058 A 
ATOM      3  C   UNL     1       2.659   0.070  21.950  0.00  0.00    +0.011 A 
ATOM      4  C   UNL     1       1.959  -0.196  22.297  0.00  0.00    +0.001 A 
ATOM      5  C   UNL     1       1.741   0.074  23.046  0.00  0.00    +0.000 A 
ATOM      6  C   UNL     1       2.223   0.610  23.447  0.00  0.00    +0.001 A 
ATOM      7  C   UNL     1       2.922   0.876  23.100  0.00  0.00    +0.011 A 
ENDBRANCH   8   5
BRANCH  25  27
ATOM     27  C   UNL     1      -4.308   1.627  24.982  0.00  0.00    +0.290 C 
BRANCH  27  28
ATOM     28  O   UNL     1      -4.852   1.854  25.559  0.00  0.00    -0.466 OA
BRANCH  28  29
ATOM     29  C   UNL     1      -5.155   2.621  25.562  0.00  0.00    +0.139 A 
ATOM     30  C   UNL     1      -4.662   3.259  25.734  0.00  0.00    +0.037 A 
ATOM     31  C   UNL     1      -4.966   4.026  25.737  0.00  0.00    +0.003 A 
ATOM     32  C   UNL     1      -5.762   4.155  25.567  0.00  0.00    +0.000 A 
ATOM     33  C   UNL     1      -6.256   3.516  25.394  0.00  0.00    +0.003 A 
ATOM     34  C   UNL     1      -5.952   2.749  25.392  0.00  0.00    +0.037 A 
ENDBRANCH  28  29
ENDBRANCH  27  28
ENDBRANCH  25  27
TORSDOF 4
ENDMDL
MODEL 5
REMARK VINA RESULT:      -7.6     16.120     17.908
REMARK  Name = 
REMARK  4 active torsions:
REMARK  status: ('A' for Active; 'I' for Inactive)
REMARK    1  A    between atoms: C_5  and  C_8
REMARK    2  A    between atoms: C_25  and  C_27
REMARK    3  A    between atoms: C_27  and  O_28
REMARK    4  A    between atoms: O_28  and  C_29
REMARK                            x       y       z     vdW  Elec       q    Type
REMARK                         _______ _______ _______ _____ _____    ______ ____
ROOT
ATOM      8  C   UNL     1      -3.798  -9.880  10.864  0.00  0.00    +0.000 A 
ATOM      9  C   UNL     1      -4.082 -10.187  10.154  0.00  0.00    +0.001 A 
ATOM     10  C   UNL     1      -4.886 -10.351  10.069  0.00  0.00    +0.017 A 
ATOM     11  C   UNL     1      -5.406 -10.208  10.693  0.00  0.00    +0.078 A 
ATOM     12  N   UNL     1      -6.180 -10.409  10.493  0.00  0.00    -0.178 NA
ATOM     13  C   UNL     1      -6.862 -10.353  10.954  0.00  0.00    +0.265 C 
ATOM     14  O   UNL     1      -7.560 -10.600  10.593  0.00  0.00    -0.271 OA
ATOM     15  C   UNL     1      -6.937 -10.081  11.730  0.00  0.00    +0.174 C 
ATOM     16  C   UNL     1      -7.720 -10.116  11.987  0.00  0.00    +0.123 C 
ATOM     17  N   UNL     1      -7.915  -9.869  12.750  0.00  0.00    -0.273 N 
ATOM     18  C   UNL     1      -7.327  -9.587  13.255  0.00  0.00    +0.115 C 
ATOM     19  C   UNL     1      -6.545  -9.552  12.997  0.00  0.00    +0.116 C 
ATOM     20  N   UNL     1      -6.349  -9.799  12.235  0.00  0.00    -0.266 N 
ATOM     21  C   UNL     1      -5.541  -9.719  12.090  0.00  0.00    +0.251 C 
ATOM     22  O   UNL     1      -5.094  -9.416  12.714  0.00  0.00    -0.270 OA
ATOM     23  C   UNL     1      -5.121  -9.901  11.403  0.00  0.00    +0.069 A 
ATOM     24  C   UNL     1      -4.318  -9.737  11.490  0.00  0.00    +0.006 A 
ATOM     25  C   UNL     1      -8.698  -9.904  13.007  0.00  0.00    +0.270 C 
ATOM     26  O   UNL     1      -9.287 -10.186  12.501  0.00  0.00    -0.271 OA
ENDROOT
BRANCH   8   5
ATOM      1 CL   UNL     1      -0.582  -9.222  11.209  0.00  0.00    -0.082 Cl
ATOM      2  C   UNL     1      -1.386  -9.387  11.123  0.00  0.00    +0.058 A 
ATOM      3  C   UNL     1      -1.856  -8.906  10.644  0.00  0.00    +0.011 A 
ATOM      4  C   UNL     1      -2.660  -9.071  10.558  0.00  0.00    +0.001 A 
ATOM      5  C   UNL     1      -2.994  -9.716  10.951  0.00  0.00    +0.000 A 
ATOM      6  C   UNL     1      -2.523 -10.196  11.429  0.00  0.00    +0.001 A 
ATOM      7  C   UNL     1      -1.719 -10.031  11.515  0.00  0.00    +0.011 A 
ENDBRANCH   8   5
BRANCH  25  27
ATOM     27  C   UNL     1      -8.894  -9.657  13.769  0.00  0.00    +0.290 C 
BRANCH  27  28
ATOM     28  O   UNL     1      -9.685  -9.613  13.999  0.00  0.00    -0.466 OA
BRANCH  28  29
ATOM     29  C   UNL     1      -9.881  -9.339  14.752  0.00  0.00    +0.139 A 
ATOM     30  C   UNL     1      -9.932  -9.867  15.383  0.00  0.00    +0.037 A 
ATOM     31  C   UNL     1     -10.129  -9.593  16.136  0.00  0.00    +0.003 A 
ATOM     32  C   UNL     1     -10.275  -8.790  16.257  0.00  0.00    +0.000 A 
ATOM     33  C   UNL     1     -10.224  -8.262  15.625  0.00  0.00    +0.003 A 
ATOM     34  C   UNL     1     -10.027  -8.536  14.872  0.00  0.00    +0.037 A 
ENDBRANCH  28  29
ENDBRANCH  27  28
ENDBRANCH  25  27
TORSDOF 4
ENDMDL
MODEL 6
REMARK VINA RESULT:      -7.4      3.439      4.588
REMARK  Name = 
REMARK  4 active torsions:
REMARK  status: ('A' for Active; 'I' for Inactive)
REMARK    1  A    between atoms: C_5  and  C_8
REMARK    2  A    between atoms: C_25  and  C_27
REMARK    3  A    between atoms: C_27  and  O_28
REMARK    4  A    between atoms: O_28  and  C_29
REMARK                            x       y       z     vdW  Elec       q    Type
REMARK                         _______ _______ _______ _____ _____    ______ ____
ROOT
ATOM      8  C   UNL     1      -3.268  -0.548  24.137  0.00  0.00    +0.000 A 
ATOM      9  C   UNL     1      -3.559   0.069  23.673  0.00  0.00    +0.001 A 
ATOM     10  C   UNL     1      -3.242   0.827  23.749  0.00  0.00    +0.017 A 
ATOM     11  C   UNL     1      -2.635   0.968  24.288  0.00  0.00    +0.078 A 
ATOM     12  N   UNL     1      -2.400   1.759  24.276  0.00  0.00    -0.178 NA
ATOM     13  C   UNL     1      -1.815   2.128  24.726  0.00  0.00    +0.265 C 
ATOM     14  O   UNL     1      -1.710   2.934  24.585  0.00  0.00    -0.271 OA
ATOM     15  C   UNL     1      -1.320   1.798  25.299  0.00  0.00    +0.174 C 
ATOM     16  C   UNL     1      -0.810   2.362  25.618  0.00  0.00    +0.123 C 
ATOM     17  N   UNL     1      -0.269   2.145  26.202  0.00  0.00    -0.273 N 
ATOM     18  C   UNL     1      -0.238   1.364  26.465  0.00  0.00    +0.115 C 
ATOM     19  C   UNL     1      -0.748   0.800  26.146  0.00  0.00    +0.116 C 
ATOM     20  N   UNL     1      -1.290   1.017  25.562  0.00  0.00    -0.266 N 
ATOM     21  C   UNL     1      -1.745   0.374  25.319  0.00  0.00    +0.251 C 
ATOM     22  O   UNL     1      -1.579  -0.343  25.693  0.00  0.00    -0.270 OA
ATOM     23  C   UNL     1      -2.344   0.352  24.752  0.00  0.00    +0.069 A 
ATOM     24  C   UNL     1      -2.660  -0.406  24.677  0.00  0.00    +0.006 A 
ATOM     25  C   UNL     1       0.241   2.709  26.521  0.00  0.00    +0.270 C 
ATOM     26  O   UNL     1       0.210   3.491  26.257  0.00  0.00    -0.271 OA
ENDROOT
BRANCH   8   5
ATOM      1 CL   UNL     1      -4.531  -3.582  23.836  0.00  0.00    -0.082 Cl
ATOM      2  C   UNL     1      -4.215  -2.824  23.911  0.00  0.00    +0.058 A 
ATOM      3  C   UNL     1      -3.431  -2.725  24.148  0.00  0.00    +0.011 A 
ATOM      4  C   UNL     1      -3.115  -1.966  24.223  0.00  0.00    +0.001 A 
ATOM      5  C   UNL     1      -3.584  -1.306  24.062  0.00  0.00    +0.000 A 
ATOM      6  C   UNL     1      -4.368  -1.406  23.825  0.00  0.00    +0.001 A 
ATOM      7  C   UNL     1      -4.684  -2.164  23.749  0.00  0.00    +0.011 A 
ENDBRANCH   8   5
BRANCH  25  27
ATOM     27  C   UNL     1       0.783   2.492  27.105  0.00  0.00    +0.290 C 
BRANCH  27  28
ATOM     28  O   UNL     1       1.130   3.070  27.580  0.00  0.00    -0.466 OA
BRANCH  28  29
ATOM     29  C   UNL     1       1.513   2.854  28.278  0.00  0.00    +0.139 A 
ATOM     30  C   UNL     1       1.078   2.567  28.917  0.00  0.00    +0.037 A 
ATOM     31  C   UNL     1       1.462   2.351  29.615  0.00  0.00    +0.003 A 
ATOM     32  C   UNL     1       2.281   2.422  29.673  0.00  0.00    +0.000 A 
ATOM     33  C   UNL     1       2.717   2.709  29.034  0.00  0.00    +0.003 A 
ATOM     34  C   UNL     1       2.333   2.925  28.336  0.00  0.00    +0.037 A 
ENDBRANCH  28  29
ENDBRANCH  27  28
ENDBRANCH  25  27
TORSDOF 4
ENDMDL
