MODEL 1
REMARK VINA RESULT:      -9.3      0.000      0.000
REMARK  Name = 
REMARK  9 active torsions:
REMARK  status: ('A' for Active; 'I' for Inactive)
REMARK    1  A    between atoms: O_2  and  C_3
REMARK    2  A    between atoms: C_3  and  C_4
REMARK    3  A    between atoms: C_4  and  O_5
REMARK    4  A    between atoms: O_5  and  C_6
REMARK    5  A    between atoms: C_9  and  C_12
REMARK    6  A    between atoms: C_15  and  C_17
REMARK    7  A    between atoms: N_21  and  C_22
REMARK    8  A    between atoms: C_22  and  C_23
REMARK    9  A    between atoms: C_27  and  O_28
REMARK                            x       y       z     vdW  Elec       q    Type
REMARK                         _______ _______ _______ _____ _____    ______ ____
ROOT
ATOM     12  C   UNL     1      -0.845  -0.220  24.382  0.00  0.00    +0.205 A 
ATOM     13  N   UNL     1      -0.917  -0.235  25.205  0.00  0.00    -0.056 NA
ATOM     14  O   UNL     1      -1.705  -0.395  25.388  0.00  0.00    -0.336 OA
ATOM     15  C   UNL     1      -2.120  -0.479  24.680  0.00  0.00    +0.251 A 
ATOM     16  N   UNL     1      -1.588  -0.370  24.058  0.00  0.00    -0.190 NA
ENDROOT
BRANCH  12   9
ATOM      6  C   UNL     1       1.238   0.203  23.113  0.00  0.00    +0.225 A 
ATOM      7  C   UNL     1       0.826   0.832  23.453  0.00  0.00    +0.058 A 
ATOM      8  C   UNL     1       0.132   0.691  23.876  0.00  0.00    +0.010 A 
ATOM      9  C   UNL     1      -0.150  -0.079  23.959  0.00  0.00    +0.058 A 
ATOM     10  C   UNL     1       0.261  -0.709  23.620  0.00  0.00    +0.105 A 
ATOM     11  N   UNL     1       0.955  -0.568  23.197  0.00  0.00    -0.210 NA
BRANCH   6   5
ATOM      5  O   UNL     1       1.932   0.344  22.690  0.00  0.00    -0.457 OA
BRANCH   5   4
ATOM      4  C   UNL     1       2.622   0.559  23.090  0.00  0.00    +0.239 C 
BRANCH   4   3
ATOM      3  C   UNL     1       3.341   0.580  22.687  0.00  0.00    +0.189 C 
BRANCH   3   2
ATOM      1  C   UNL     1       4.722   0.568  23.055  0.00  0.00    +0.174 C 
ATOM      2  O   UNL     1       3.993   0.954  23.026  0.00  0.00    -0.347 OA
ENDBRANCH   3   2
ENDBRANCH   4   3
ENDBRANCH   5   4
ENDBRANCH   6   5
ENDBRANCH  12   9
BRANCH  15  17
ATOM     17  C   UNL     1      -2.925  -0.642  24.605  0.00  0.00    +0.138 C 
ATOM     18  C   UNL     1      -3.273  -1.389  24.637  0.00  0.00    +0.027 C 
ATOM     19  C   UNL     1      -4.087  -1.296  24.538  0.00  0.00    +0.019 C 
ATOM     20  C   UNL     1      -4.242  -0.491  24.444  0.00  0.00    +0.073 C 
ATOM     21  N   UNL     1      -3.524  -0.086  24.486  0.00  0.00    -0.263 NA
BRANCH  21  22
ATOM     22  C   UNL     1      -3.422   0.729  24.421  0.00  0.00    +0.103 C 
BRANCH  22  23
ATOM     23  C   UNL     1      -4.042   1.239  24.612  0.00  0.00    +0.033 A 
ATOM     24  C   UNL     1      -4.130   1.952  24.207  0.00  0.00    +0.196 A 
ATOM     25  O   UNL     1      -3.599   2.156  23.609  0.00  0.00    -0.287 OA
ATOM     26  C   UNL     1      -4.750   2.462  24.399  0.00  0.00    +0.079 A 
ATOM     27  C   UNL     1      -5.281   2.258  24.996  0.00  0.00    +0.142 A 
ATOM     30  C   UNL     1      -5.193   1.545  25.402  0.00  0.00    +0.037 A 
ATOM     31  C   UNL     1      -4.573   1.036  25.210  0.00  0.00    +0.003 A 
BRANCH  27  28
ATOM     28  O   UNL     1      -5.901   2.768  25.188  0.00  0.00    -0.471 OA
ATOM     29  C   UNL     1      -5.771   3.399  25.704  0.00  0.00    +0.252 C 
ENDBRANCH  27  28
ENDBRANCH  22  23
ENDBRANCH  21  22
ENDBRANCH  15  17
TORSDOF 9
ENDMDL
MODEL 2
REMARK VINA RESULT:      -8.4      2.496      4.204
REMARK  Name = 
REMARK  9 active torsions:
REMARK  status: ('A' for Active; 'I' for Inactive)
REMARK    1  A    between atoms: O_2  and  C_3
REMARK    2  A    between atoms: C_3  and  C_4
REMARK    3  A    between atoms: C_4  and  O_5
REMARK    4  A    between atoms: O_5  and  C_6
REMARK    5  A    between atoms: C_9  and  C_12
REMARK    6  A    between atoms: C_15  and  C_17
REMARK    7  A    between atoms: N_21  and  C_22
REMARK    8  A    between atoms: C_22  and  C_23
REMARK    9  A    between atoms: C_27  and  O_28
REMARK                            x       y       z     vdW  Elec       q    Type
REMARK                         _______ _______ _______ _____ _____    ______ ____
ROOT
ATOM     12  C   UNL     1      -0.466   1.682  25.281  0.00  0.00    +0.205 A 
ATOM     13  N   UNL     1       0.155   1.992  25.727  0.00  0.00    -0.056 NA
ATOM     14  O   UNL     1       0.080   2.814  25.731  0.00  0.00    -0.336 OA
ATOM     15  C   UNL     1      -0.587   3.011  25.289  0.00  0.00    +0.251 A 
ATOM     16  N   UNL     1      -0.925   2.311  25.010  0.00  0.00    -0.190 NA
ENDROOT
BRANCH  12   9
ATOM      6  C   UNL     1      -0.880  -0.717  24.835  0.00  0.00    +0.225 A 
ATOM      7  C   UNL     1      -1.087  -0.391  25.563  0.00  0.00    +0.058 A 
ATOM      8  C   UNL     1      -0.949   0.409  25.712  0.00  0.00    +0.010 A 
ATOM      9  C   UNL     1      -0.604   0.882  25.132  0.00  0.00    +0.058 A 
ATOM     10  C   UNL     1      -0.397   0.557  24.402  0.00  0.00    +0.105 A 
ATOM     11  N   UNL     1      -0.535  -0.243  24.254  0.00  0.00    -0.210 NA
BRANCH   6   5
ATOM      5  O   UNL     1      -1.018  -1.517  24.686  0.00  0.00    -0.457 OA
BRANCH   5   4
ATOM      4  C   UNL     1      -1.775  -1.773  24.481  0.00  0.00    +0.239 C 
BRANCH   4   3
ATOM      3  C   UNL     1      -1.953  -2.579  24.485  0.00  0.00    +0.189 C 
BRANCH   3   2
ATOM      1  C   UNL     1      -3.330  -2.959  24.526  0.00  0.00    +0.174 C 
ATOM      2  O   UNL     1      -2.629  -2.855  24.103  0.00  0.00    -0.347 OA
ENDBRANCH   3   2
ENDBRANCH   4   3
ENDBRANCH   5   4
ENDBRANCH   6   5
ENDBRANCH  12   9
BRANCH  15  17
ATOM     17  C   UNL     1      -0.868   3.774  25.149  0.00  0.00    +0.138 C 
ATOM     18  C   UNL     1      -0.490   4.356  24.701  0.00  0.00    +0.027 C 
ATOM     19  C   UNL     1      -0.964   5.030  24.707  0.00  0.00    +0.019 C 
ATOM     20  C   UNL     1      -1.636   4.866  25.158  0.00  0.00    +0.073 C 
ATOM     21  N   UNL     1      -1.576   4.090  25.431  0.00  0.00    -0.263 NA
BRANCH  21  22
ATOM     22  C   UNL     1      -2.128   3.698  25.903  0.00  0.00    +0.103 C 
BRANCH  22  23
ATOM     23  C   UNL     1      -2.933   3.768  25.741  0.00  0.00    +0.033 A 
ATOM     24  C   UNL     1      -3.466   3.915  26.353  0.00  0.00    +0.196 A 
ATOM     25  O   UNL     1      -3.194   3.993  27.128  0.00  0.00    -0.287 OA
ATOM     26  C   UNL     1      -4.272   3.986  26.191  0.00  0.00    +0.079 A 
ATOM     27  C   UNL     1      -4.545   3.908  25.416  0.00  0.00    +0.142 A 
ATOM     30  C   UNL     1      -4.012   3.761  24.804  0.00  0.00    +0.037 A 
ATOM     31  C   UNL     1      -3.206   3.691  24.966  0.00  0.00    +0.003 A 
BRANCH  27  28
ATOM     28  O   UNL     1      -5.351   3.978  25.254  0.00  0.00    -0.471 OA
ATOM     29  C   UNL     1      -5.869   3.375  25.474  0.00  0.00    +0.252 C 
ENDBRANCH  27  28
ENDBRANCH  22  23
ENDBRANCH  21  22
ENDBRANCH  15  17
TORSDOF 9
ENDMDL
MODEL 3
REMARK VINA RESULT:      -8.3      1.486      2.710
REMARK  Name = 
REMARK  9 active torsions:
REMARK  status: ('A' for Active; 'I' for Inactive)
REMARK    1  A    between atoms: O_2  and  C_3
REMARK    2  A    between atoms: C_3  and  C_4
REMARK    3  A    between atoms: C_4  and  O_5
REMARK    4  A    between atoms: O_5  and  C_6
REMARK    5  A    between atoms: C_9  and  C_12
REMARK    6  A    between atoms: C_15  and  C_17
REMARK    7  A    between atoms: N_21  and  C_22
REMARK    8  A    between atoms: C_22  and  C_23
REMARK    9  A    between atoms: C_27  and  O_28
REMARK                            x       y       z     vdW  Elec       q    Type
REMARK                         _______ _______ _______ _____ _____    ______ ____
ROOT
ATOM     12  C   UNL     1      -0.502   1.289  24.373  0.00  0.00    +0.205 A 
ATOM     13  N   UNL     1      -0.553   1.573  25.147  0.00  0.00    -0.056 NA
ATOM     14  O   UNL     1      -1.348   1.716  25.315  0.00  0.00    -0.336 OA
ATOM     15  C   UNL     1      -1.789   1.521  24.645  0.00  0.00    +0.251 A 
ATOM     16  N   UNL     1      -1.266   1.257  24.063  0.00  0.00    -0.190 NA
ENDROOT
BRANCH  12   9
ATOM      6  C   UNL     1       1.576   0.647  23.192  0.00  0.00    +0.225 A 
ATOM      7  C   UNL     1       0.918   0.150  23.170  0.00  0.00    +0.058 A 
ATOM      8  C   UNL     1       0.225   0.364  23.564  0.00  0.00    +0.010 A 
ATOM      9  C   UNL     1       0.190   1.075  23.979  0.00  0.00    +0.058 A 
ATOM     10  C   UNL     1       0.848   1.573  24.002  0.00  0.00    +0.105 A 
ATOM     11  N   UNL     1       1.541   1.359  23.609  0.00  0.00    -0.210 NA
BRANCH   6   5
ATOM      5  O   UNL     1       2.268   0.433  22.798  0.00  0.00    -0.457 OA
BRANCH   5   4
ATOM      4  C   UNL     1       2.993   0.745  23.040  0.00  0.00    +0.239 C 
BRANCH   4   3
ATOM      3  C   UNL     1       3.695   0.444  22.729  0.00  0.00    +0.189 C 
BRANCH   3   2
ATOM      1  C   UNL     1       5.045   0.275  23.168  0.00  0.00    +0.174 C 
ATOM      2  O   UNL     1       4.419   0.769  22.954  0.00  0.00    -0.347 OA
ENDBRANCH   3   2
ENDBRANCH   4   3
ENDBRANCH   5   4
ENDBRANCH   6   5
ENDBRANCH  12   9
BRANCH  15  17
ATOM     17  C   UNL     1      -2.608   1.579  24.570  0.00  0.00    +0.138 C 
ATOM     18  C   UNL     1      -3.022   2.226  24.268  0.00  0.00    +0.027 C 
ATOM     19  C   UNL     1      -3.827   2.048  24.294  0.00  0.00    +0.019 C 
ATOM     20  C   UNL     1      -3.911   1.292  24.613  0.00  0.00    +0.073 C 
ATOM     21  N   UNL     1      -3.157   1.002  24.783  0.00  0.00    -0.263 NA
BRANCH  21  22
ATOM     22  C   UNL     1      -2.984   0.265  25.110  0.00  0.00    +0.103 C 
BRANCH  22  23
ATOM     23  C   UNL     1      -3.368  -0.410  24.833  0.00  0.00    +0.033 A 
ATOM     24  C   UNL     1      -3.430  -1.077  25.315  0.00  0.00    +0.196 A 
ATOM     25  O   UNL     1      -3.108  -1.069  26.074  0.00  0.00    -0.287 OA
ATOM     26  C   UNL     1      -3.816  -1.752  25.037  0.00  0.00    +0.079 A 
ATOM     27  C   UNL     1      -4.138  -1.760  24.278  0.00  0.00    +0.142 A 
ATOM     30  C   UNL     1      -4.076  -1.093  23.797  0.00  0.00    +0.037 A 
ATOM     31  C   UNL     1      -3.692  -0.419  24.073  0.00  0.00    +0.003 A 
BRANCH  27  28
ATOM     28  O   UNL     1      -4.524  -2.435  24.001  0.00  0.00    -0.471 OA
ATOM     29  C   UNL     1      -4.083  -3.078  23.730  0.00  0.00    +0.252 C 
ENDBRANCH  27  28
ENDBRANCH  22  23
ENDBRANCH  21  22
ENDBRANCH  15  17
TORSDOF 9
ENDMDL
MODEL 4
REMARK VINA RESULT:      -8.0      1.697      2.400
REMARK  Name = 
REMARK  9 active torsions:
REMARK  status: ('A' for Active; 'I' for Inactive)
REMARK    1  A    between atoms: O_2  and  C_3
REMARK    2  A    between atoms: C_3  and  C_4
REMARK    3  A    between atoms: C_4  and  O_5
REMARK    4  A    between atoms: O_5  and  C_6
REMARK    5  A    between atoms: C_9  and  C_12
REMARK    6  A    between atoms: C_15  and  C_17
REMARK    7  A    between atoms: N_21  and  C_22
REMARK    8  A    between atoms: C_22  and  C_23
REMARK    9  A    between atoms: C_27  and  O_28
REMARK                            x       y       z     vdW  Elec       q    Type
REMARK                         _______ _______ _______ _____ _____    ______ ____
ROOT
ATOM     12  C   UNL     1      -0.423   1.750  24.738  0.00  0.00    +0.205 A 
ATOM     13  N   UNL     1      -0.671   1.483  25.479  0.00  0.00    -0.056 NA
ATOM     14  O   UNL     1      -1.263   1.992  25.747  0.00  0.00    -0.336 OA
ATOM     15  C   UNL     1      -1.380   2.572  25.173  0.00  0.00    +0.251 A 
ATOM     16  N   UNL     1      -0.861   2.422  24.549  0.00  0.00    -0.190 NA
ENDROOT
BRANCH  12   9
ATOM      6  C   UNL     1       1.329   0.711  23.331  0.00  0.00    +0.225 A 
ATOM      7  C   UNL     1       0.587   0.357  23.395  0.00  0.00    +0.058 A 
ATOM      8  C   UNL     1       0.003   0.703  23.864  0.00  0.00    +0.010 A 
ATOM      9  C   UNL     1       0.161   1.403  24.269  0.00  0.00    +0.058 A 
ATOM     10  C   UNL     1       0.903   1.759  24.205  0.00  0.00    +0.105 A 
ATOM     11  N   UNL     1       1.487   1.413  23.736  0.00  0.00    -0.210 NA
BRANCH   6   5
ATOM      5  O   UNL     1       1.912   0.365  22.862  0.00  0.00    -0.457 OA
BRANCH   5   4
ATOM      4  C   UNL     1       2.675   0.680  22.854  0.00  0.00    +0.239 C 
BRANCH   4   3
ATOM      3  C   UNL     1       3.299   0.240  22.543  0.00  0.00    +0.189 C 
BRANCH   3   2
ATOM      1  C   UNL     1       4.679   0.301  22.912  0.00  0.00    +0.174 C 
ATOM      2  O   UNL     1       4.046   0.582  22.463  0.00  0.00    -0.347 OA
ENDBRANCH   3   2
ENDBRANCH   4   3
ENDBRANCH   5   4
ENDBRANCH   6   5
ENDBRANCH  12   9
BRANCH  15  17
ATOM     17  C   UNL     1      -1.921   3.193  25.214  0.00  0.00    +0.138 C 
ATOM     18  C   UNL     1      -1.763   3.957  25.486  0.00  0.00    +0.027 C 
ATOM     19  C   UNL     1      -2.459   4.396  25.431  0.00  0.00    +0.019 C 
ATOM     20  C   UNL     1      -3.048   3.905  25.126  0.00  0.00    +0.073 C 
ATOM     21  N   UNL     1      -2.715   3.161  24.992  0.00  0.00    -0.263 NA
BRANCH  21  22
ATOM     22  C   UNL     1      -3.107   2.502  24.689  0.00  0.00    +0.103 C 
BRANCH  22  23
ATOM     23  C   UNL     1      -3.906   2.383  24.858  0.00  0.00    +0.033 A 
ATOM     24  C   UNL     1      -4.324   1.785  24.475  0.00  0.00    +0.196 A 
ATOM     25  O   UNL     1      -3.944   1.304  23.922  0.00  0.00    -0.287 OA
ATOM     26  C   UNL     1      -5.123   1.666  24.644  0.00  0.00    +0.079 A 
ATOM     27  C   UNL     1      -5.503   2.146  25.196  0.00  0.00    +0.142 A 
ATOM     30  C   UNL     1      -5.085   2.745  25.579  0.00  0.00    +0.037 A 
ATOM     31  C   UNL     1      -4.286   2.864  25.411  0.00  0.00    +0.003 A 
BRANCH  27  28
ATOM     28  O   UNL     1      -6.302   2.027  25.365  0.00  0.00    -0.471 OA
ATOM     29  C   UNL     1      -6.553   1.970  26.149  0.00  0.00    +0.252 C 
ENDBRANCH  27  28
ENDBRANCH  22  23
ENDBRANCH  21  22
ENDBRANCH  15  17
TORSDOF 9
ENDMDL
MODEL 5
REMARK VINA RESULT:      -7.6      2.869      4.513
REMARK  Name = 
REMARK  9 active torsions:
REMARK  status: ('A' for Active; 'I' for Inactive)
REMARK    1  A    between atoms: O_2  and  C_3
REMARK    2  A    between atoms: C_3  and  C_4
REMARK    3  A    between atoms: C_4  and  O_5
REMARK    4  A    between atoms: O_5  and  C_6
REMARK    5  A    between atoms: C_9  and  C_12
REMARK    6  A    between atoms: C_15  and  C_17
REMARK    7  A    between atoms: N_21  and  C_22
REMARK    8  A    between atoms: C_22  and  C_23
REMARK    9  A    between atoms: C_27  and  O_28
REMARK                            x       y       z     vdW  Elec       q    Type
REMARK                         _______ _______ _______ _____ _____    ______ ____
ROOT
ATOM     12  C   UNL     1      -4.785   0.491  24.873  0.00  0.00    +0.205 A 
ATOM     13  N   UNL     1      -5.529   0.571  24.524  0.00  0.00    -0.056 NA
ATOM     14  O   UNL     1      -5.794   1.341  24.662  0.00  0.00    -0.336 OA
ATOM     15  C   UNL     1      -5.214   1.736  25.096  0.00  0.00    +0.251 A 
ATOM     16  N   UNL     1      -4.590   1.210  25.226  0.00  0.00    -0.190 NA
ENDROOT
BRANCH  12   9
ATOM      6  C   UNL     1      -3.386  -1.550  24.860  0.00  0.00    +0.225 A 
ATOM      7  C   UNL     1      -3.727  -1.279  24.159  0.00  0.00    +0.058 A 
ATOM      8  C   UNL     1      -4.193  -0.598  24.164  0.00  0.00    +0.010 A 
ATOM      9  C   UNL     1      -4.319  -0.189  24.868  0.00  0.00    +0.058 A 
ATOM     10  C   UNL     1      -3.978  -0.460  25.570  0.00  0.00    +0.105 A 
ATOM     11  N   UNL     1      -3.512  -1.141  25.565  0.00  0.00    -0.210 NA
BRANCH   6   5
ATOM      5  O   UNL     1      -2.919  -2.231  24.855  0.00  0.00    -0.457 OA
BRANCH   5   4
ATOM      4  C   UNL     1      -2.148  -2.200  24.563  0.00  0.00    +0.239 C 
BRANCH   4   3
ATOM      3  C   UNL     1      -1.543  -2.600  24.956  0.00  0.00    +0.189 C 
BRANCH   3   2
ATOM      1  C   UNL     1      -0.219  -2.157  25.260  0.00  0.00    +0.174 C 
ATOM      2  O   UNL     1      -0.758  -2.486  24.729  0.00  0.00    -0.347 OA
ENDBRANCH   3   2
ENDBRANCH   4   3
ENDBRANCH   5   4
ENDBRANCH   6   5
ENDBRANCH  12   9
BRANCH  15  17
ATOM     17  C   UNL     1      -5.250   2.518  25.355  0.00  0.00    +0.138 C 
ATOM     18  C   UNL     1      -5.874   2.863  25.769  0.00  0.00    +0.027 C 
ATOM     19  C   UNL     1      -5.679   3.651  25.916  0.00  0.00    +0.019 C 
ATOM     20  C   UNL     1      -4.933   3.793  25.592  0.00  0.00    +0.073 C 
ATOM     21  N   UNL     1      -4.668   3.092  25.245  0.00  0.00    -0.263 NA
BRANCH  21  22
ATOM     22  C   UNL     1      -3.948   2.986  24.858  0.00  0.00    +0.103 C 
BRANCH  22  23
ATOM     23  C   UNL     1      -3.327   3.513  24.987  0.00  0.00    +0.033 A 
ATOM     24  C   UNL     1      -2.902   3.815  24.349  0.00  0.00    +0.196 A 
ATOM     25  O   UNL     1      -3.096   3.589  23.579  0.00  0.00    -0.287 OA
ATOM     26  C   UNL     1      -2.280   4.343  24.478  0.00  0.00    +0.079 A 
ATOM     27  C   UNL     1      -2.086   4.568  25.248  0.00  0.00    +0.142 A 
ATOM     30  C   UNL     1      -2.511   4.266  25.887  0.00  0.00    +0.037 A 
ATOM     31  C   UNL     1      -3.132   3.739  25.757  0.00  0.00    +0.003 A 
BRANCH  27  28
ATOM     28  O   UNL     1      -1.464   5.096  25.378  0.00  0.00    -0.471 OA
ATOM     29  C   UNL     1      -0.761   5.016  24.954  0.00  0.00    +0.252 C 
ENDBRANCH  27  28
ENDBRANCH  22  23
ENDBRANCH  21  22
ENDBRANCH  15  17
TORSDOF 9
ENDMDL
MODEL 6
REMARK VINA RESULT:      -7.6      2.013      2.410
REMARK  Name = 
REMARK  9 active torsions:
REMARK  status: ('A' for Active; 'I' for Inactive)
REMARK    1  A    between atoms: O_2  and  C_3
REMARK    2  A    between atoms: C_3  and  C_4
REMARK    3  A    between atoms: C_4  and  O_5
REMARK    4  A    between atoms: O_5  and  C_6
REMARK    5  A    between atoms: C_9  and  C_12
REMARK    6  A    between atoms: C_15  and  C_17
REMARK    7  A    between atoms: N_21  and  C_22
REMARK    8  A    between atoms: C_22  and  C_23
REMARK    9  A    between atoms: C_27  and  O_28
REMARK                            x       y       z     vdW  Elec       q    Type
REMARK                         _______ _______ _______ _____ _____    ______ ____
ROOT
ATOM     12  C   UNL     1      -0.324   0.221  23.872  0.00  0.00    +0.205 A 
ATOM     13  N   UNL     1      -0.583  -0.335  24.425  0.00  0.00    -0.056 NA
ATOM     14  O   UNL     1      -1.361  -0.148  24.629  0.00  0.00    -0.336 OA
ATOM     15  C   UNL     1      -1.582   0.523  24.203  0.00  0.00    +0.251 A 
ATOM     16  N   UNL     1      -0.941   0.751  23.735  0.00  0.00    -0.190 NA
ENDROOT
BRANCH  12   9
ATOM      6  C   UNL     1       1.912   0.285  22.813  0.00  0.00    +0.225 A 
ATOM      7  C   UNL     1       1.394  -0.335  22.646  0.00  0.00    +0.058 A 
ATOM      8  C   UNL     1       0.648  -0.356  22.999  0.00  0.00    +0.010 A 
ATOM      9  C   UNL     1       0.421   0.242  23.519  0.00  0.00    +0.058 A 
ATOM     10  C   UNL     1       0.939   0.862  23.686  0.00  0.00    +0.105 A 
ATOM     11  N   UNL     1       1.684   0.884  23.333  0.00  0.00    -0.210 NA
BRANCH   6   5
ATOM      5  O   UNL     1       2.657   0.306  22.460  0.00  0.00    -0.457 OA
BRANCH   5   4
ATOM      4  C   UNL     1       3.310   0.566  22.892  0.00  0.00    +0.239 C 
BRANCH   4   3
ATOM      3  C   UNL     1       4.073   0.399  22.625  0.00  0.00    +0.189 C 
BRANCH   3   2
ATOM      1  C   UNL     1       5.299   0.145  23.314  0.00  0.00    +0.174 C 
ATOM      2  O   UNL     1       4.727   0.675  23.046  0.00  0.00    -0.347 OA
ENDBRANCH   3   2
ENDBRANCH   4   3
ENDBRANCH   5   4
ENDBRANCH   6   5
ENDBRANCH  12   9
BRANCH  15  17
ATOM     17  C   UNL     1      -2.314   0.900  24.238  0.00  0.00    +0.138 C 
ATOM     18  C   UNL     1      -2.987   0.695  23.806  0.00  0.00    +0.027 C 
ATOM     19  C   UNL     1      -3.592   1.216  24.012  0.00  0.00    +0.019 C 
ATOM     20  C   UNL     1      -3.293   1.744  24.572  0.00  0.00    +0.073 C 
ATOM     21  N   UNL     1      -2.504   1.549  24.712  0.00  0.00    -0.263 NA
BRANCH  21  22
ATOM     22  C   UNL     1      -1.994   1.934  25.233  0.00  0.00    +0.103 C 
BRANCH  22  23
ATOM     23  C   UNL     1      -1.991   2.757  25.274  0.00  0.00    +0.033 A 
ATOM     24  C   UNL     1      -1.478   3.143  25.792  0.00  0.00    +0.196 A 
ATOM     25  O   UNL     1      -0.967   2.705  26.270  0.00  0.00    -0.287 OA
ATOM     26  C   UNL     1      -1.475   3.967  25.834  0.00  0.00    +0.079 A 
ATOM     27  C   UNL     1      -1.986   4.405  25.357  0.00  0.00    +0.142 A 
ATOM     30  C   UNL     1      -2.499   4.020  24.839  0.00  0.00    +0.037 A 
ATOM     31  C   UNL     1      -2.502   3.196  24.797  0.00  0.00    +0.003 A 
BRANCH  27  28
ATOM     28  O   UNL     1      -1.984   5.230  25.398  0.00  0.00    -0.471 OA
ATOM     29  C   UNL     1      -1.407   5.660  24.994  0.00  0.00    +0.252 C 
ENDBRANCH  27  28
ENDBRANCH  22  23
ENDBRANCH  21  22
ENDBRANCH  15  17
TORSDOF 9
ENDMDL
MODEL 7
REMARK VINA RESULT:      -7.5      2.760      4.066
REMARK  Name = 
REMARK  9 active torsions:
REMARK  status: ('A' for Active; 'I' for Inactive)
REMARK    1  A    between atoms: O_2  and  C_3
REMARK    2  A    between atoms: C_3  and  C_4
REMARK    3  A    between atoms: C_4  and  O_5
REMARK    4  A    between atoms: O_5  and  C_6
REMARK    5  A    between atoms: C_9  and  C_12
REMARK    6  A    between atoms: C_15  and  C_17
REMARK    7  A    between atoms: N_21  and  C_22
REMARK    8  A    between atoms: C_22  and  C_23
REMARK    9  A    between atoms: C_27  and  O_28
REMARK                            x       y       z     vdW  Elec       q    Type
REMARK                         _______ _______ _______ _____ _____    ______ ____
ROOT
ATOM     12  C   UNL     1      -1.901   2.270  25.027  0.00  0.00    +0.205 A 
ATOM     13  N   UNL     1      -2.027   2.485  24.240  0.00  0.00    -0.056 NA
ATOM     14  O   UNL     1      -2.791   2.253  24.031  0.00  0.00    -0.336 OA
ATOM     15  C   UNL     1      -3.137   1.894  24.688  0.00  0.00    +0.251 A 
ATOM     16  N   UNL     1      -2.586   1.904  25.304  0.00  0.00    -0.190 NA
ENDROOT
BRANCH  12   9
ATOM      6  C   UNL     1       0.171   2.652  26.326  0.00  0.00    +0.225 A 
ATOM      7  C   UNL     1      -0.364   3.270  26.209  0.00  0.00    +0.058 A 
ATOM      8  C   UNL     1      -1.054   3.142  25.776  0.00  0.00    +0.010 A 
ATOM      9  C   UNL     1      -1.210   2.397  25.460  0.00  0.00    +0.058 A 
ATOM     10  C   UNL     1      -0.677   1.779  25.576  0.00  0.00    +0.105 A 
ATOM     11  N   UNL     1       0.014   1.906  26.009  0.00  0.00    -0.210 NA
BRANCH   6   5
ATOM      5  O   UNL     1       0.861   2.780  26.759  0.00  0.00    -0.457 OA
BRANCH   5   4
ATOM      4  C   UNL     1       0.868   2.644  27.573  0.00  0.00    +0.239 C 
BRANCH   4   3
ATOM      3  C   UNL     1       1.572   2.718  27.997  0.00  0.00    +0.189 C 
BRANCH   3   2
ATOM      1  C   UNL     1       2.273   2.701  29.243  0.00  0.00    +0.174 C 
ATOM      2  O   UNL     1       1.581   2.579  28.810  0.00  0.00    -0.347 OA
ENDBRANCH   3   2
ENDBRANCH   4   3
ENDBRANCH   5   4
ENDBRANCH   6   5
ENDBRANCH  12   9
BRANCH  15  17
ATOM     17  C   UNL     1      -3.898   1.580  24.725  0.00  0.00    +0.138 C 
ATOM     18  C   UNL     1      -4.601   1.996  24.604  0.00  0.00    +0.027 C 
ATOM     19  C   UNL     1      -5.228   1.468  24.693  0.00  0.00    +0.019 C 
ATOM     20  C   UNL     1      -4.914   0.725  24.868  0.00  0.00    +0.073 C 
ATOM     21  N   UNL     1      -4.092   0.795  24.887  0.00  0.00    -0.263 NA
BRANCH  21  22
ATOM     22  C   UNL     1      -3.558   0.186  25.042  0.00  0.00    +0.103 C 
BRANCH  22  23
ATOM     23  C   UNL     1      -3.724  -0.583  24.793  0.00  0.00    +0.033 A 
ATOM     24  C   UNL     1      -3.598  -1.218  25.303  0.00  0.00    +0.196 A 
ATOM     25  O   UNL     1      -3.305  -1.086  26.063  0.00  0.00    -0.287 OA
ATOM     26  C   UNL     1      -3.765  -1.988  25.053  0.00  0.00    +0.079 A 
ATOM     27  C   UNL     1      -4.058  -2.120  24.294  0.00  0.00    +0.142 A 
ATOM     30  C   UNL     1      -4.184  -1.484  23.784  0.00  0.00    +0.037 A 
ATOM     31  C   UNL     1      -4.018  -0.716  24.033  0.00  0.00    +0.003 A 
BRANCH  27  28
ATOM     28  O   UNL     1      -4.224  -2.889  24.044  0.00  0.00    -0.471 OA
ATOM     29  C   UNL     1      -3.607  -3.413  23.885  0.00  0.00    +0.252 C 
ENDBRANCH  27  28
ENDBRANCH  22  23
ENDBRANCH  21  22
ENDBRANCH  15  17
TORSDOF 9
ENDMDL
MODEL 8
REMARK VINA RESULT:      -7.3      2.861      5.427
REMARK  Name = 
REMARK  9 active torsions:
REMARK  status: ('A' for Active; 'I' for Inactive)
REMARK    1  A    between atoms: O_2  and  C_3
REMARK    2  A    between atoms: C_3  and  C_4
REMARK    3  A    between atoms: C_4  and  O_5
REMARK    4  A    between atoms: O_5  and  C_6
REMARK    5  A    between atoms: C_9  and  C_12
REMARK    6  A    between atoms: C_15  and  C_17
REMARK    7  A    between atoms: N_21  and  C_22
REMARK    8  A    between atoms: C_22  and  C_23
REMARK    9  A    between atoms: C_27  and  O_28
REMARK                            x       y       z     vdW  Elec       q    Type
REMARK                         _______ _______ _______ _____ _____    ______ ____
ROOT
ATOM     12  C   UNL     1      -4.026   1.861  24.372  0.00  0.00    +0.205 A 
ATOM     13  N   UNL     1      -4.316   2.436  23.855  0.00  0.00    -0.056 NA
ATOM     14  O   UNL     1      -4.087   3.175  24.141  0.00  0.00    -0.336 OA
ATOM     15  C   UNL     1      -3.657   3.058  24.835  0.00  0.00    +0.251 A 
ATOM     16  N   UNL     1      -3.619   2.245  24.977  0.00  0.00    -0.190 NA
ENDROOT
BRANCH  12   9
ATOM      6  C   UNL     1      -4.328  -0.585  24.144  0.00  0.00    +0.225 A 
ATOM      7  C   UNL     1      -4.762  -0.166  24.706  0.00  0.00    +0.058 A 
ATOM      8  C   UNL     1      -4.661   0.650  24.782  0.00  0.00    +0.010 A 
ATOM      9  C   UNL     1      -4.127   1.046  24.296  0.00  0.00    +0.058 A 
ATOM     10  C   UNL     1      -3.692   0.628  23.733  0.00  0.00    +0.105 A 
ATOM     11  N   UNL     1      -3.792  -0.187  23.657  0.00  0.00    -0.210 NA
BRANCH   6   5
ATOM      5  O   UNL     1      -4.428  -1.400  24.068  0.00  0.00    -0.457 OA
BRANCH   5   4
ATOM      4  C   UNL     1      -3.817  -1.912  24.281  0.00  0.00    +0.239 C 
BRANCH   4   3
ATOM      3  C   UNL     1      -3.919  -2.728  24.209  0.00  0.00    +0.189 C 
BRANCH   3   2
ATOM      1  C   UNL     1      -2.627  -3.249  24.525  0.00  0.00    +0.174 C 
ATOM      2  O   UNL     1      -3.443  -3.243  24.642  0.00  0.00    -0.347 OA
ENDBRANCH   3   2
ENDBRANCH   4   3
ENDBRANCH   5   4
ENDBRANCH   6   5
ENDBRANCH  12   9
BRANCH  15  17
ATOM     17  C   UNL     1      -3.322   3.648  25.305  0.00  0.00    +0.138 C 
ATOM     18  C   UNL     1      -3.730   4.147  25.820  0.00  0.00    +0.027 C 
ATOM     19  C   UNL     1      -3.182   4.650  26.175  0.00  0.00    +0.019 C 
ATOM     20  C   UNL     1      -2.435   4.462  25.880  0.00  0.00    +0.073 C 
ATOM     21  N   UNL     1      -2.522   3.843  25.341  0.00  0.00    -0.263 NA
BRANCH  21  22
ATOM     22  C   UNL     1      -1.914   3.482  24.915  0.00  0.00    +0.103 C 
BRANCH  22  23
ATOM     23  C   UNL     1      -1.229   3.236  25.302  0.00  0.00    +0.033 A 
ATOM     24  C   UNL     1      -0.503   3.265  24.913  0.00  0.00    +0.196 A 
ATOM     25  O   UNL     1      -0.461   3.541  24.136  0.00  0.00    -0.287 OA
ATOM     26  C   UNL     1       0.184   3.019  25.299  0.00  0.00    +0.079 A 
ATOM     27  C   UNL     1       0.142   2.743  26.076  0.00  0.00    +0.142 A 
ATOM     30  C   UNL     1      -0.584   2.713  26.465  0.00  0.00    +0.037 A 
ATOM     31  C   UNL     1      -1.270   2.959  26.079  0.00  0.00    +0.003 A 
BRANCH  27  28
ATOM     28  O   UNL     1       0.829   2.496  26.463  0.00  0.00    -0.471 OA
ATOM     29  C   UNL     1       0.905   2.607  27.277  0.00  0.00    +0.252 C 
ENDBRANCH  27  28
ENDBRANCH  22  23
ENDBRANCH  21  22
ENDBRANCH  15  17
TORSDOF 9
ENDMDL
MODEL 9
REMARK VINA RESULT:      -7.3      2.045      5.619
REMARK  Name = 
REMARK  9 active torsions:
REMARK  status: ('A' for Active; 'I' for Inactive)
REMARK    1  A    between atoms: O_2  and  C_3
REMARK    2  A    between atoms: C_3  and  C_4
REMARK    3  A    between atoms: C_4  and  O_5
REMARK    4  A    between atoms: O_5  and  C_6
REMARK    5  A    between atoms: C_9  and  C_12
REMARK    6  A    between atoms: C_15  and  C_17
REMARK    7  A    between atoms: N_21  and  C_22
REMARK    8  A    between atoms: C_22  and  C_23
REMARK    9  A    between atoms: C_27  and  O_28
REMARK                            x       y       z     vdW  Elec       q    Type
REMARK                         _______ _______ _______ _____ _____    ______ ____
ROOT
ATOM     12  C   UNL     1      -0.929   2.301  24.719  0.00  0.00    +0.205 A 
ATOM     13  N   UNL     1      -0.161   2.462  24.978  0.00  0.00    -0.056 NA
ATOM     14  O   UNL     1       0.334   1.866  24.695  0.00  0.00    -0.336 OA
ATOM     15  C   UNL     1      -0.127   1.337  24.261  0.00  0.00    +0.251 A 
ATOM     16  N   UNL     1      -0.907   1.606  24.276  0.00  0.00    -0.190 NA
ENDROOT
BRANCH  12   9
ATOM      6  C   UNL     1      -2.939   3.666  25.190  0.00  0.00    +0.225 A 
ATOM      7  C   UNL     1      -2.352   3.585  25.763  0.00  0.00    +0.058 A 
ATOM      8  C   UNL     1      -1.682   3.130  25.606  0.00  0.00    +0.010 A 
ATOM      9  C   UNL     1      -1.599   2.756  24.876  0.00  0.00    +0.058 A 
ATOM     10  C   UNL     1      -2.185   2.837  24.301  0.00  0.00    +0.105 A 
ATOM     11  N   UNL     1      -2.856   3.292  24.458  0.00  0.00    -0.210 NA
BRANCH   6   5
ATOM      5  O   UNL     1      -3.609   4.121  25.346  0.00  0.00    -0.457 OA
BRANCH   5   4
ATOM      4  C   UNL     1      -4.271   3.773  25.695  0.00  0.00    +0.239 C 
BRANCH   4   3
ATOM      3  C   UNL     1      -5.028   4.012  25.470  0.00  0.00    +0.189 C 
BRANCH   3   2
ATOM      1  C   UNL     1      -6.073   3.064  25.698  0.00  0.00    +0.174 C 
ATOM      2  O   UNL     1      -5.685   3.763  25.902  0.00  0.00    -0.347 OA
ENDBRANCH   3   2
ENDBRANCH   4   3
ENDBRANCH   5   4
ENDBRANCH   6   5
ENDBRANCH  12   9
BRANCH  15  17
ATOM     17  C   UNL     1       0.144   0.658  23.880  0.00  0.00    +0.138 C 
ATOM     18  C   UNL     1       0.622   0.637  23.207  0.00  0.00    +0.027 C 
ATOM     19  C   UNL     1       0.758  -0.153  23.015  0.00  0.00    +0.019 C 
ATOM     20  C   UNL     1       0.364  -0.622  23.568  0.00  0.00    +0.073 C 
ATOM     21  N   UNL     1      -0.016  -0.121  24.103  0.00  0.00    -0.263 NA
BRANCH  21  22
ATOM     22  C   UNL     1      -0.474  -0.356  24.746  0.00  0.00    +0.103 C 
BRANCH  22  23
ATOM     23  C   UNL     1      -0.978  -1.005  24.678  0.00  0.00    +0.033 A 
ATOM     24  C   UNL     1      -0.910  -1.638  25.202  0.00  0.00    +0.196 A 
ATOM     25  O   UNL     1      -0.336  -1.624  25.795  0.00  0.00    -0.287 OA
ATOM     26  C   UNL     1      -1.415  -2.288  25.134  0.00  0.00    +0.079 A 
ATOM     27  C   UNL     1      -1.989  -2.302  24.541  0.00  0.00    +0.142 A 
ATOM     30  C   UNL     1      -2.057  -1.669  24.018  0.00  0.00    +0.037 A 
ATOM     31  C   UNL     1      -1.553  -1.021  24.086  0.00  0.00    +0.003 A 
BRANCH  27  28
ATOM     28  O   UNL     1      -2.494  -2.952  24.473  0.00  0.00    -0.471 OA
ATOM     29  C   UNL     1      -3.305  -2.857  24.591  0.00  0.00    +0.252 C 
ENDBRANCH  27  28
ENDBRANCH  22  23
ENDBRANCH  21  22
ENDBRANCH  15  17
TORSDOF 9
ENDMDL
