MODEL 1
REMARK VINA RESULT:      -8.7      0.000      0.000
REMARK  Name = 
REMARK  8 active torsions:
REMARK  status: ('A' for Active; 'I' for Inactive)
REMARK    1  A    between atoms: N_2  and  C_4
REMARK    2  A    between atoms: C_7  and  C_10
REMARK    3  A    between atoms: N_15  and  C_16
REMARK    4  A    between atoms: C_20  and  N_24
REMARK    5  A    between atoms: C_25  and  C_27
REMARK    6  A    between atoms: C_27  and  S_28
REMARK    7  A    between atoms: S_28  and  C_29
REMARK    8  A    between atoms: C_29  and  C_30
REMARK                            x       y       z     vdW  Elec       q    Type
REMARK                         _______ _______ _______ _____ _____    ______ ____
ROOT
ATOM     16  C   UNL     1      -0.282   1.438  24.391  0.00  0.00    +0.154 C 
ATOM     17  C   UNL     1       0.198   2.042  24.682  0.00  0.00    +0.166 C 
ATOM     18  O   UNL     1       0.946   1.959  24.343  0.00  0.00    -0.350 OA
ATOM     19  C   UNL     1       0.926   1.304  23.842  0.00  0.00    +0.166 C 
ATOM     20  C   UNL     1       1.377   0.848  23.322  0.00  0.00    +0.154 C 
ATOM     21  C   UNL     1       0.896   0.244  23.030  0.00  0.00    +0.166 C 
ATOM     22  O   UNL     1       0.149   0.327  23.370  0.00  0.00    -0.350 OA
ATOM     23  C   UNL     1       0.167   0.982  23.871  0.00  0.00    +0.166 C 
ENDROOT
BRANCH  16  15
ATOM     10  C   UNL     1      -2.943   2.436  24.700  0.00  0.00    +0.086 A 
ATOM     11  C   UNL     1      -2.689   3.186  24.467  0.00  0.00    +0.040 A 
ATOM     12  C   UNL     1      -1.897   3.311  24.273  0.00  0.00    +0.103 A 
ATOM     13  N   UNL     1      -1.358   2.687  24.312  0.00  0.00    -0.211 NA
ATOM     14  C   UNL     1      -1.612   1.937  24.546  0.00  0.00    +0.237 A 
ATOM     15  N   UNL     1      -1.075   1.313  24.585  0.00  0.00    -0.200 NA
ATOM     33  N   UNL     1      -2.405   1.812  24.740  0.00  0.00    -0.212 NA
BRANCH  10   7
ATOM      4  C   UNL     1      -5.319   2.059  25.282  0.00  0.00    +0.048 A 
ATOM      5  C   UNL     1      -4.897   1.479  24.875  0.00  0.00    +0.015 A 
ATOM      6  C   UNL     1      -4.104   1.604  24.681  0.00  0.00    +0.003 A 
ATOM      7  C   UNL     1      -3.735   2.310  24.894  0.00  0.00    +0.018 A 
ATOM      8  C   UNL     1      -4.157   2.891  25.301  0.00  0.00    +0.003 A 
ATOM      9  C   UNL     1      -4.949   2.765  25.495  0.00  0.00    +0.015 A 
BRANCH   4   2
ATOM      1  C   UNL     1      -6.662   1.783  24.881  0.00  0.00    +0.112 C 
ATOM      2  N   UNL     1      -6.111   1.933  25.476  0.00  0.00    -0.304 N 
ATOM      3  C   UNL     1      -6.352   1.957  26.265  0.00  0.00    +0.112 C 
ENDBRANCH   4   2
ENDBRANCH  10   7
ENDBRANCH  16  15
BRANCH  20  24
ATOM     24  N   UNL     1       2.168   0.973  23.128  0.00  0.00    -0.201 NA
ATOM     25  C   UNL     1       2.615   0.362  22.800  0.00  0.00    +0.252 C 
ATOM     26  O   UNL     1       2.269  -0.375  22.666  0.00  0.00    -0.272 OA
BRANCH  25  27
ATOM     27  C   UNL     1       3.406   0.487  22.606  0.00  0.00    +0.145 C 
BRANCH  27  28
ATOM     28  S   UNL     1       4.002   0.222  23.111  0.00  0.00    -0.119 S 
BRANCH  28  29
ATOM     29  C   UNL     1       4.777   0.486  23.009  0.00  0.00    +0.172 C 
BRANCH  29  30
ATOM     30  C   UNL     1       5.365   0.254  23.540  0.00  0.00    +0.376 C 
ATOM     31  O   UNL     1       5.936  -0.294  23.310  0.00  0.00    -0.245 OA
ATOM     32  O   UNL     1       5.382   0.573  24.301  0.00  0.00    -0.245 OA
ENDBRANCH  29  30
ENDBRANCH  28  29
ENDBRANCH  27  28
ENDBRANCH  25  27
ENDBRANCH  20  24
TORSDOF 8
ENDMDL
MODEL 2
REMARK VINA RESULT:      -6.9      2.678      7.706
REMARK  Name = 
REMARK  8 active torsions:
REMARK  status: ('A' for Active; 'I' for Inactive)
REMARK    1  A    between atoms: N_2  and  C_4
REMARK    2  A    between atoms: C_7  and  C_10
REMARK    3  A    between atoms: N_15  and  C_16
REMARK    4  A    between atoms: C_20  and  N_24
REMARK    5  A    between atoms: C_25  and  C_27
REMARK    6  A    between atoms: C_27  and  S_28
REMARK    7  A    between atoms: S_28  and  C_29
REMARK    8  A    between atoms: C_29  and  C_30
REMARK                            x       y       z     vdW  Elec       q    Type
REMARK                         _______ _______ _______ _____ _____    ______ ____
ROOT
ATOM     16  C   UNL     1      -0.260   1.009  24.002  0.00  0.00    +0.154 C 
ATOM     17  C   UNL     1      -0.756   0.358  23.896  0.00  0.00    +0.166 C 
ATOM     18  O   UNL     1      -1.533   0.633  23.857  0.00  0.00    -0.350 OA
ATOM     19  C   UNL     1      -1.516   1.454  23.941  0.00  0.00    +0.166 C 
ATOM     20  C   UNL     1      -1.987   2.130  23.968  0.00  0.00    +0.154 C 
ATOM     21  C   UNL     1      -1.492   2.782  24.075  0.00  0.00    +0.166 C 
ATOM     22  O   UNL     1      -0.715   2.506  24.113  0.00  0.00    -0.350 OA
ATOM     23  C   UNL     1      -0.730   1.686  24.030  0.00  0.00    +0.166 C 
ENDROOT
BRANCH  16  15
ATOM     10  C   UNL     1       2.285   0.192  22.990  0.00  0.00    +0.086 A 
ATOM     11  C   UNL     1       1.913  -0.172  22.349  0.00  0.00    +0.040 A 
ATOM     12  C   UNL     1       1.092  -0.149  22.282  0.00  0.00    +0.103 A 
ATOM     13  N   UNL     1       0.641   0.237  22.856  0.00  0.00    -0.211 NA
ATOM     14  C   UNL     1       1.012   0.600  23.496  0.00  0.00    +0.237 A 
ATOM     15  N   UNL     1       0.562   0.986  24.070  0.00  0.00    -0.200 NA
ATOM     33  N   UNL     1       1.835   0.578  23.563  0.00  0.00    -0.212 NA
BRANCH  10   7
ATOM      4  C   UNL     1       4.751   0.126  23.192  0.00  0.00    +0.048 A 
ATOM      5  C   UNL     1       4.381   0.790  22.873  0.00  0.00    +0.015 A 
ATOM      6  C   UNL     1       3.558   0.813  22.805  0.00  0.00    +0.003 A 
ATOM      7  C   UNL     1       3.107   0.170  23.057  0.00  0.00    +0.018 A 
ATOM      8  C   UNL     1       3.477  -0.495  23.376  0.00  0.00    +0.003 A 
ATOM      9  C   UNL     1       4.299  -0.517  23.443  0.00  0.00    +0.015 A 
BRANCH   4   2
ATOM      1  C   UNL     1       6.024  -0.261  22.673  0.00  0.00    +0.112 C 
ATOM      2  N   UNL     1       5.572   0.104  23.259  0.00  0.00    -0.304 N 
ATOM      3  C   UNL     1       5.943   0.446  23.911  0.00  0.00    +0.112 C 
ENDBRANCH   4   2
ENDBRANCH  10   7
ENDBRANCH  16  15
BRANCH  20  24
ATOM     24  N   UNL     1      -2.809   2.153  23.901  0.00  0.00    -0.201 NA
ATOM     25  C   UNL     1      -3.251   2.645  24.394  0.00  0.00    +0.252 C 
ATOM     26  O   UNL     1      -2.870   3.115  24.955  0.00  0.00    -0.272 OA
BRANCH  25  27
ATOM     27  C   UNL     1      -4.072   2.668  24.327  0.00  0.00    +0.145 C 
BRANCH  27  28
ATOM     28  S   UNL     1      -4.542   2.690  25.005  0.00  0.00    -0.119 S 
BRANCH  28  29
ATOM     29  C   UNL     1      -5.349   2.533  24.953  0.00  0.00    +0.172 C 
BRANCH  29  30
ATOM     30  C   UNL     1      -5.794   2.423  25.640  0.00  0.00    +0.376 C 
ATOM     31  O   UNL     1      -5.907   3.049  26.163  0.00  0.00    -0.245 OA
ATOM     32  O   UNL     1      -6.125   1.685  25.801  0.00  0.00    -0.245 OA
ENDBRANCH  29  30
ENDBRANCH  28  29
ENDBRANCH  27  28
ENDBRANCH  25  27
ENDBRANCH  20  24
TORSDOF 8
ENDMDL
MODEL 3
REMARK VINA RESULT:      -5.6     15.318     15.946
REMARK  Name = 
REMARK  8 active torsions:
REMARK  status: ('A' for Active; 'I' for Inactive)
REMARK    1  A    between atoms: N_2  and  C_4
REMARK    2  A    between atoms: C_7  and  C_10
REMARK    3  A    between atoms: N_15  and  C_16
REMARK    4  A    between atoms: C_20  and  N_24
REMARK    5  A    between atoms: C_25  and  C_27
REMARK    6  A    between atoms: C_27  and  S_28
REMARK    7  A    between atoms: S_28  and  C_29
REMARK    8  A    between atoms: C_29  and  C_30
REMARK                            x       y       z     vdW  Elec       q    Type
REMARK                         _______ _______ _______ _____ _____    ______ ____
ROOT
ATOM     16  C   UNL     1      -5.686 -10.714  14.479  0.00  0.00    +0.154 C 
ATOM     17  C   UNL     1      -5.925 -10.777  13.693  0.00  0.00    +0.166 C 
ATOM     18  O   UNL     1      -5.248 -10.781  13.220  0.00  0.00    -0.350 OA
ATOM     19  C   UNL     1      -4.592 -10.720  13.716  0.00  0.00    +0.166 C 
ATOM     20  C   UNL     1      -3.767 -10.686  13.730  0.00  0.00    +0.154 C 
ATOM     21  C   UNL     1      -3.528 -10.623  14.518  0.00  0.00    +0.166 C 
ATOM     22  O   UNL     1      -4.205 -10.619  14.989  0.00  0.00    -0.350 OA
ATOM     23  C   UNL     1      -4.862 -10.679  14.494  0.00  0.00    +0.166 C 
ENDROOT
BRANCH  16  15
ATOM     10  C   UNL     1      -8.160  -9.942  15.683  0.00  0.00    +0.086 A 
ATOM     11  C   UNL     1      -8.402  -9.604  14.971  0.00  0.00    +0.040 A 
ATOM     12  C   UNL     1      -7.904  -9.628  14.314  0.00  0.00    +0.103 A 
ATOM     13  N   UNL     1      -7.164  -9.990  14.369  0.00  0.00    -0.211 NA
ATOM     14  C   UNL     1      -6.923 -10.328  15.081  0.00  0.00    +0.237 A 
ATOM     15  N   UNL     1      -6.184 -10.691  15.137  0.00  0.00    -0.200 NA
ATOM     33  N   UNL     1      -7.421 -10.305  15.739  0.00  0.00    -0.212 NA
BRANCH  10   7
ATOM      4  C   UNL     1      -9.655  -9.872  17.656  0.00  0.00    +0.048 A 
ATOM      5  C   UNL     1      -9.620 -10.551  17.189  0.00  0.00    +0.015 A 
ATOM      6  C   UNL     1      -9.122 -10.575  16.531  0.00  0.00    +0.003 A 
ATOM      7  C   UNL     1      -8.659  -9.919  16.341  0.00  0.00    +0.018 A 
ATOM      8  C   UNL     1      -8.693  -9.240  16.809  0.00  0.00    +0.003 A 
ATOM      9  C   UNL     1      -9.191  -9.216  17.465  0.00  0.00    +0.015 A 
BRANCH   4   2
ATOM      1  C   UNL     1     -10.084 -10.422  18.902  0.00  0.00    +0.112 C 
ATOM      2  N   UNL     1     -10.152  -9.849  18.313  0.00  0.00    -0.304 N 
ATOM      3  C   UNL     1     -10.718  -9.252  18.382  0.00  0.00    +0.112 C 
ENDBRANCH   4   2
ENDBRANCH  10   7
ENDBRANCH  16  15
BRANCH  20  24
ATOM     24  N   UNL     1      -3.270 -10.709  13.074  0.00  0.00    -0.201 NA
ATOM     25  C   UNL     1      -2.474 -10.504  13.150  0.00  0.00    +0.252 C 
ATOM     26  O   UNL     1      -2.177 -10.275  13.885  0.00  0.00    -0.272 OA
BRANCH  25  27
ATOM     27  C   UNL     1      -1.976 -10.527  12.494  0.00  0.00    +0.145 C 
BRANCH  27  28
ATOM     28  S   UNL     1      -1.779  -9.830  12.099  0.00  0.00    -0.119 S 
BRANCH  28  29
ATOM     29  C   UNL     1      -1.127  -9.811  11.595  0.00  0.00    +0.172 C 
BRANCH  29  30
ATOM     30  C   UNL     1      -0.965  -9.132  11.154  0.00  0.00    +0.376 C 
ATOM     31  O   UNL     1      -0.251  -8.733  11.259  0.00  0.00    -0.245 OA
ATOM     32  O   UNL     1      -1.518  -8.853  10.610  0.00  0.00    -0.245 OA
ENDBRANCH  29  30
ENDBRANCH  28  29
ENDBRANCH  27  28
ENDBRANCH  25  27
ENDBRANCH  20  24
TORSDOF 8
ENDMDL
MODEL 4
REMARK VINA RESULT:      -5.3     16.195     17.301
REMARK  Name = 
REMARK  8 active torsions:
REMARK  status: ('A' for Active; 'I' for Inactive)
REMARK    1  A    between atoms: N_2  and  C_4
REMARK    2  A    between atoms: C_7  and  C_10
REMARK    3  A    between atoms: N_15  and  C_16
REMARK    4  A    between atoms: C_20  and  N_24
REMARK    5  A    between atoms: C_25  and  C_27
REMARK    6  A    between atoms: C_27  and  S_28
REMARK    7  A    between atoms: S_28  and  C_29
REMARK    8  A    between atoms: C_29  and  C_30
REMARK                            x       y       z     vdW  Elec       q    Type
REMARK                         _______ _______ _______ _____ _____    ______ ____
ROOT
ATOM     16  C   UNL     1      -6.887  -9.946  13.116  0.00  0.00    +0.154 C 
ATOM     17  C   UNL     1      -7.659 -10.104  12.874  0.00  0.00    +0.166 C 
ATOM     18  O   UNL     1      -7.728  -9.887  12.081  0.00  0.00    -0.350 OA
ATOM     19  C   UNL     1      -6.997  -9.595  11.834  0.00  0.00    +0.166 C 
ATOM     20  C   UNL     1      -6.588  -9.280  11.190  0.00  0.00    +0.154 C 
ATOM     21  C   UNL     1      -5.815  -9.123  11.431  0.00  0.00    +0.166 C 
ATOM     22  O   UNL     1      -5.747  -9.340  12.224  0.00  0.00    -0.350 OA
ATOM     23  C   UNL     1      -6.477  -9.632  12.473  0.00  0.00    +0.166 C 
ENDROOT
BRANCH  16  15
ATOM     10  C   UNL     1      -7.220 -10.004  15.954  0.00  0.00    +0.086 A 
ATOM     11  C   UNL     1      -8.005  -9.765  15.867  0.00  0.00    +0.040 A 
ATOM     12  C   UNL     1      -8.313  -9.632  15.114  0.00  0.00    +0.103 A 
ATOM     13  N   UNL     1      -7.838  -9.737  14.448  0.00  0.00    -0.211 NA
ATOM     14  C   UNL     1      -7.053  -9.975  14.535  0.00  0.00    +0.237 A 
ATOM     15  N   UNL     1      -6.577 -10.080  13.870  0.00  0.00    -0.200 NA
ATOM     33  N   UNL     1      -6.743 -10.109  15.289  0.00  0.00    -0.212 NA
BRANCH  10   7
ATOM      4  C   UNL     1      -6.291 -10.405  18.214  0.00  0.00    +0.048 A 
ATOM      5  C   UNL     1      -7.107 -10.342  18.108  0.00  0.00    +0.015 A 
ATOM      6  C   UNL     1      -7.417 -10.208  17.354  0.00  0.00    +0.003 A 
ATOM      7  C   UNL     1      -6.910 -10.137  16.707  0.00  0.00    +0.018 A 
ATOM      8  C   UNL     1      -6.094 -10.201  16.813  0.00  0.00    +0.003 A 
ATOM      9  C   UNL     1      -5.785 -10.334  17.566  0.00  0.00    +0.015 A 
BRANCH   4   2
ATOM      1  C   UNL     1      -5.199 -10.781  19.053  0.00  0.00    +0.112 C 
ATOM      2  N   UNL     1      -5.983 -10.538  18.966  0.00  0.00    -0.304 N 
ATOM      3  C   UNL     1      -6.457 -10.429  19.633  0.00  0.00    +0.112 C 
ENDBRANCH   4   2
ENDBRANCH  10   7
ENDBRANCH  16  15
BRANCH  20  24
ATOM     24  N   UNL     1      -6.897  -9.147  10.437  0.00  0.00    -0.201 NA
ATOM     25  C   UNL     1      -6.597  -8.536   9.970  0.00  0.00    +0.252 C 
ATOM     26  O   UNL     1      -5.987  -8.060  10.256  0.00  0.00    -0.272 OA
BRANCH  25  27
ATOM     27  C   UNL     1      -6.906  -8.403   9.217  0.00  0.00    +0.145 C 
BRANCH  27  28
ATOM     28  S   UNL     1      -7.448  -7.793   9.095  0.00  0.00    -0.119 S 
BRANCH  28  29
ATOM     29  C   UNL     1      -7.678  -7.592   8.330  0.00  0.00    +0.172 C 
BRANCH  29  30
ATOM     30  C   UNL     1      -8.250  -7.009   8.209  0.00  0.00    +0.376 C 
ATOM     31  O   UNL     1      -9.047  -7.215   8.167  0.00  0.00    -0.245 OA
ATOM     32  O   UNL     1      -8.024  -6.219   8.132  0.00  0.00    -0.245 OA
ENDBRANCH  29  30
ENDBRANCH  28  29
ENDBRANCH  27  28
ENDBRANCH  25  27
ENDBRANCH  20  24
TORSDOF 8
ENDMDL
MODEL 5
REMARK VINA RESULT:      -5.1     16.787     17.709
REMARK  Name = 
REMARK  8 active torsions:
REMARK  status: ('A' for Active; 'I' for Inactive)
REMARK    1  A    between atoms: N_2  and  C_4
REMARK    2  A    between atoms: C_7  and  C_10
REMARK    3  A    between atoms: N_15  and  C_16
REMARK    4  A    between atoms: C_20  and  N_24
REMARK    5  A    between atoms: C_25  and  C_27
REMARK    6  A    between atoms: C_27  and  S_28
REMARK    7  A    between atoms: S_28  and  C_29
REMARK    8  A    between atoms: C_29  and  C_30
REMARK                            x       y       z     vdW  Elec       q    Type
REMARK                         _______ _______ _______ _____ _____    ______ ____
ROOT
ATOM     16  C   UNL     1      -4.714 -10.276  11.088  0.00  0.00    +0.154 C 
ATOM     17  C   UNL     1      -4.024 -10.336  10.641  0.00  0.00    +0.166 C 
ATOM     18  O   UNL     1      -3.392 -10.441  11.160  0.00  0.00    -0.350 OA
ATOM     19  C   UNL     1      -3.692 -10.446  11.929  0.00  0.00    +0.166 C 
ATOM     20  C   UNL     1      -3.487 -10.514  12.725  0.00  0.00    +0.154 C 
ATOM     21  C   UNL     1      -4.178 -10.454  13.172  0.00  0.00    +0.166 C 
ATOM     22  O   UNL     1      -4.809 -10.349  12.652  0.00  0.00    -0.350 OA
ATOM     23  C   UNL     1      -4.510 -10.344  11.884  0.00  0.00    +0.166 C 
ENDROOT
BRANCH  16  15
ATOM     10  C   UNL     1      -6.608  -8.689   9.653  0.00  0.00    +0.086 A 
ATOM     11  C   UNL     1      -6.031  -8.112   9.528  0.00  0.00    +0.040 A 
ATOM     12  C   UNL     1      -5.270  -8.221   9.825  0.00  0.00    +0.103 A 
ATOM     13  N   UNL     1      -5.084  -8.906  10.246  0.00  0.00    -0.211 NA
ATOM     14  C   UNL     1      -5.661  -9.482  10.370  0.00  0.00    +0.237 A 
ATOM     15  N   UNL     1      -5.477 -10.168  10.791  0.00  0.00    -0.200 NA
ATOM     33  N   UNL     1      -6.424  -9.374  10.073  0.00  0.00    -0.212 NA
BRANCH  10   7
ATOM      4  C   UNL     1      -8.895  -8.363   8.763  0.00  0.00    +0.048 A 
ATOM      5  C   UNL     1      -8.786  -8.711   9.502  0.00  0.00    +0.015 A 
ATOM      6  C   UNL     1      -8.024  -8.820   9.799  0.00  0.00    +0.003 A 
ATOM      7  C   UNL     1      -7.371  -8.580   9.356  0.00  0.00    +0.018 A 
ATOM      8  C   UNL     1      -7.480  -8.232   8.616  0.00  0.00    +0.003 A 
ATOM      9  C   UNL     1      -8.242  -8.123   8.320  0.00  0.00    +0.015 A 
BRANCH   4   2
ATOM      1  C   UNL     1      -9.868  -7.534   8.124  0.00  0.00    +0.112 C 
ATOM      2  N   UNL     1      -9.657  -8.254   8.466  0.00  0.00    -0.304 N 
ATOM      3  C   UNL     1     -10.209  -8.866   8.512  0.00  0.00    +0.112 C 
ENDBRANCH   4   2
ENDBRANCH  10   7
ENDBRANCH  16  15
BRANCH  20  24
ATOM     24  N   UNL     1      -2.725 -10.622  13.021  0.00  0.00    -0.201 NA
ATOM     25  C   UNL     1      -2.601 -10.663  13.836  0.00  0.00    +0.252 C 
ATOM     26  O   UNL     1      -3.240 -10.595  14.354  0.00  0.00    -0.272 OA
BRANCH  25  27
ATOM     27  C   UNL     1      -1.840 -10.772  14.133  0.00  0.00    +0.145 C 
BRANCH  27  28
ATOM     28  S   UNL     1      -1.566 -10.300  14.753  0.00  0.00    -0.119 S 
BRANCH  28  29
ATOM     29  C   UNL     1      -0.834 -10.455  15.098  0.00  0.00    +0.172 C 
BRANCH  29  30
ATOM     30  C   UNL     1      -0.599 -10.042  15.772  0.00  0.00    +0.376 C 
ATOM     31  O   UNL     1      -0.497  -9.225  15.742  0.00  0.00    -0.245 OA
ATOM     32  O   UNL     1      -0.467 -10.448  16.479  0.00  0.00    -0.245 OA
ENDBRANCH  29  30
ENDBRANCH  28  29
ENDBRANCH  27  28
ENDBRANCH  25  27
ENDBRANCH  20  24
TORSDOF 8
ENDMDL
