MODEL 1
REMARK VINA RESULT:     -13.9      0.000      0.000
REMARK  Name = 
REMARK  6 active torsions:
REMARK  status: ('A' for Active; 'I' for Inactive)
REMARK    1  A    between atoms: O_2  and  C_3
REMARK    2  A    between atoms: C_6  and  C_9
REMARK    3  A    between atoms: C_20  and  N_21
REMARK    4  A    between atoms: N_21  and  S_22
REMARK    5  A    between atoms: S_22  and  C_25
REMARK    6  A    between atoms: C_28  and  O_29
REMARK                            x       y       z     vdW  Elec       q    Type
REMARK                         _______ _______ _______ _____ _____    ______ ____
ROOT
ATOM      9  C   UNL     1      -3.932   3.337  25.448  0.00  0.00    +0.249 C 
ATOM     10  O   UNL     1      -4.665   3.488  25.874  0.00  0.00    -0.270 OA
ATOM     11  N   UNL     1      -3.284   3.893  25.637  0.00  0.00    -0.276 N 
ATOM     12  C   UNL     1      -2.977   4.550  26.051  0.00  0.00    +0.096 C 
ATOM     13  C   UNL     1      -2.060   4.564  25.684  0.00  0.00    +0.043 C 
ATOM     14  C   UNL     1      -1.284   4.709  25.483  0.00  0.00    +0.011 C 
ATOM     15  C   UNL     1      -1.787   4.250  25.312  0.00  0.00    +0.058 C 
ATOM     16  C   UNL     1      -2.669   4.250  25.677  0.00  0.00    +0.099 C 
ATOM     17  C   UNL     1      -1.945   3.520  24.777  0.00  0.00    +0.041 A 
ATOM     18  C   UNL     1      -1.568   3.037  24.224  0.00  0.00    +0.014 A 
ATOM     19  C   UNL     1      -1.977   2.410  23.878  0.00  0.00    +0.024 A 
ATOM     20  C   UNL     1      -2.763   2.266  24.083  0.00  0.00    +0.147 A 
ATOM     33  C   UNL     1      -3.140   2.749  24.636  0.00  0.00    +0.277 A 
ATOM     34  O   UNL     1      -3.695   2.145  24.369  0.00  0.00    -0.266 OA
ATOM     35  N   UNL     1      -2.731   3.375  24.983  0.00  0.00    -0.298 N 
ATOM     36  C   UNL     1      -2.235   3.800  25.128  0.00  0.00    +0.110 C 
ENDROOT
BRANCH   9   6
ATOM      3  C   UNL     1      -2.957   1.515  23.431  0.00  0.00    +0.139 A 
ATOM      4  C   UNL     1      -2.757   1.583  24.308  0.00  0.00    +0.037 A 
ATOM      5  C   UNL     1      -3.057   2.161  24.980  0.00  0.00    +0.008 A 
ATOM      6  C   UNL     1      -3.611   2.755  24.836  0.00  0.00    +0.054 A 
ATOM      7  C   UNL     1      -3.921   2.856  24.079  0.00  0.00    +0.008 A 
ATOM      8  C   UNL     1      -3.677   2.361  23.464  0.00  0.00    +0.037 A 
BRANCH   3   2
ATOM      1  C   UNL     1      -2.519   1.704  21.814  0.00  0.00    +0.252 C 
ATOM      2  O   UNL     1      -2.958   1.198  22.503  0.00  0.00    -0.471 OA
ENDBRANCH   3   2
ENDBRANCH   9   6
BRANCH  20  21
ATOM     21  N   UNL     1      -3.310   1.625  23.782  0.00  0.00    -0.092 NA
BRANCH  21  22
ATOM     22  S   UNL     1      -3.135   0.767  24.122  0.00  0.00    +0.093 S 
ATOM     23  O   UNL     1      -3.923   0.321  24.140  0.00  0.00    -0.148 OA
ATOM     24  O   UNL     1      -2.154   0.563  24.372  0.00  0.00    -0.148 OA
BRANCH  22  25
ATOM     25  C   UNL     1      -3.200  -0.002  24.387  0.00  0.00    +0.127 A 
ATOM     26  C   UNL     1      -3.874  -0.332  24.043  0.00  0.00    +0.023 A 
ATOM     27  C   UNL     1      -4.082  -1.112  24.211  0.00  0.00    +0.038 A 
ATOM     28  C   UNL     1      -3.617  -1.563  24.721  0.00  0.00    +0.139 A 
ATOM     31  C   UNL     1      -2.943  -1.234  25.065  0.00  0.00    +0.038 A 
ATOM     32  C   UNL     1      -2.734  -0.453  24.897  0.00  0.00    +0.023 A 
BRANCH  28  29
ATOM     29  O   UNL     1      -3.836  -2.392  24.901  0.00  0.00    -0.471 OA
ATOM     30  C   UNL     1      -3.500  -3.053  24.483  0.00  0.00    +0.252 C 
ENDBRANCH  28  29
ENDBRANCH  22  25
ENDBRANCH  21  22
ENDBRANCH  20  21
TORSDOF 6
ENDMDL
MODEL 2
REMARK VINA RESULT:     -13.6      0.940      1.728
REMARK  Name = 
REMARK  6 active torsions:
REMARK  status: ('A' for Active; 'I' for Inactive)
REMARK    1  A    between atoms: O_2  and  C_3
REMARK    2  A    between atoms: C_6  and  C_9
REMARK    3  A    between atoms: C_20  and  N_21
REMARK    4  A    between atoms: N_21  and  S_22
REMARK    5  A    between atoms: S_22  and  C_25
REMARK    6  A    between atoms: C_28  and  O_29
REMARK                            x       y       z     vdW  Elec       q    Type
REMARK                         _______ _______ _______ _____ _____    ______ ____
ROOT
ATOM      9  C   UNL     1      -2.016   2.676  23.854  0.00  0.00    +0.249 C 
ATOM     10  O   UNL     1      -1.417   2.569  23.245  0.00  0.00    -0.270 OA
ATOM     11  N   UNL     1      -1.836   3.311  24.428  0.00  0.00    -0.276 N 
ATOM     12  C   UNL     1      -1.346   3.921  24.720  0.00  0.00    +0.096 C 
ATOM     13  C   UNL     1      -1.889   4.212  25.493  0.00  0.00    +0.043 C 
ATOM     14  C   UNL     1      -2.210   4.565  26.154  0.00  0.00    +0.011 C 
ATOM     15  C   UNL     1      -2.378   4.050  25.707  0.00  0.00    +0.058 C 
ATOM     16  C   UNL     1      -1.842   3.780  24.964  0.00  0.00    +0.099 C 
ATOM     17  C   UNL     1      -3.033   3.429  25.536  0.00  0.00    +0.041 A 
ATOM     18  C   UNL     1      -3.758   3.167  25.828  0.00  0.00    +0.014 A 
ATOM     19  C   UNL     1      -4.155   2.550  25.451  0.00  0.00    +0.024 A 
ATOM     20  C   UNL     1      -3.827   2.195  24.782  0.00  0.00    +0.147 A 
ATOM     33  C   UNL     1      -3.102   2.458  24.490  0.00  0.00    +0.277 A 
ATOM     34  O   UNL     1      -3.387   1.814  23.991  0.00  0.00    -0.266 OA
ATOM     35  N   UNL     1      -2.705   3.075  24.867  0.00  0.00    -0.298 N 
ATOM     36  C   UNL     1      -2.568   3.561  25.306  0.00  0.00    +0.110 C 
ENDROOT
BRANCH   9   6
ATOM      3  C   UNL     1      -4.590   1.570  24.550  0.00  0.00    +0.139 A 
ATOM      4  C   UNL     1      -3.791   1.499  24.959  0.00  0.00    +0.037 A 
ATOM      5  C   UNL     1      -2.944   1.845  24.755  0.00  0.00    +0.008 A 
ATOM      6  C   UNL     1      -2.810   2.318  24.094  0.00  0.00    +0.054 A 
ATOM      7  C   UNL     1      -3.431   2.502  23.583  0.00  0.00    +0.008 A 
ATOM      8  C   UNL     1      -4.189   2.211  23.735  0.00  0.00    +0.037 A 
BRANCH   3   2
ATOM      1  C   UNL     1      -6.204   1.960  24.846  0.00  0.00    +0.252 C 
ATOM      2  O   UNL     1      -5.546   1.459  24.357  0.00  0.00    -0.471 OA
ENDBRANCH   3   2
ENDBRANCH   9   6
BRANCH  20  21
ATOM     21  N   UNL     1      -4.155   1.525  24.288  0.00  0.00    -0.092 NA
BRANCH  21  22
ATOM     22  S   UNL     1      -4.043   0.670  24.661  0.00  0.00    +0.093 S 
ATOM     23  O   UNL     1      -3.978   0.085  23.973  0.00  0.00    -0.148 OA
ATOM     24  O   UNL     1      -4.022   0.617  25.693  0.00  0.00    -0.148 OA
BRANCH  22  25
ATOM     25  C   UNL     1      -3.940  -0.132  24.774  0.00  0.00    +0.127 A 
ATOM     26  C   UNL     1      -4.155  -0.514  24.075  0.00  0.00    +0.023 A 
ATOM     27  C   UNL     1      -4.109  -1.336  24.023  0.00  0.00    +0.038 A 
ATOM     28  C   UNL     1      -3.847  -1.776  24.671  0.00  0.00    +0.139 A 
ATOM     31  C   UNL     1      -3.632  -1.394  25.369  0.00  0.00    +0.038 A 
ATOM     32  C   UNL     1      -3.678  -0.572  25.421  0.00  0.00    +0.023 A 
BRANCH  28  29
ATOM     29  O   UNL     1      -3.796  -2.649  24.619  0.00  0.00    -0.471 OA
ATOM     30  C   UNL     1      -3.054  -3.065  24.641  0.00  0.00    +0.252 C 
ENDBRANCH  28  29
ENDBRANCH  22  25
ENDBRANCH  21  22
ENDBRANCH  20  21
TORSDOF 6
ENDMDL
MODEL 3
REMARK VINA RESULT:     -13.6      1.628      4.571
REMARK  Name = 
REMARK  6 active torsions:
REMARK  status: ('A' for Active; 'I' for Inactive)
REMARK    1  A    between atoms: O_2  and  C_3
REMARK    2  A    between atoms: C_6  and  C_9
REMARK    3  A    between atoms: C_20  and  N_21
REMARK    4  A    between atoms: N_21  and  S_22
REMARK    5  A    between atoms: S_22  and  C_25
REMARK    6  A    between atoms: C_28  and  O_29
REMARK                            x       y       z     vdW  Elec       q    Type
REMARK                         _______ _______ _______ _____ _____    ______ ____
ROOT
ATOM      9  C   UNL     1      -2.842  -0.950  25.861  0.00  0.00    +0.249 C 
ATOM     10  O   UNL     1      -2.468  -1.028  26.633  0.00  0.00    -0.270 OA
ATOM     11  N   UNL     1      -3.097  -1.708  25.507  0.00  0.00    -0.276 N 
ATOM     12  C   UNL     1      -3.174  -2.540  25.526  0.00  0.00    +0.096 C 
ATOM     13  C   UNL     1      -3.620  -2.685  24.656  0.00  0.00    +0.043 C 
ATOM     14  C   UNL     1      -3.982  -2.968  23.984  0.00  0.00    +0.011 C 
ATOM     15  C   UNL     1      -3.787  -2.347  24.246  0.00  0.00    +0.058 C 
ATOM     16  C   UNL     1      -3.357  -2.223  25.089  0.00  0.00    +0.099 C 
ATOM     17  C   UNL     1      -3.791  -1.449  24.049  0.00  0.00    +0.041 A 
ATOM     18  C   UNL     1      -4.027  -0.924  23.459  0.00  0.00    +0.014 A 
ATOM     19  C   UNL     1      -3.897  -0.114  23.551  0.00  0.00    +0.024 A 
ATOM     20  C   UNL     1      -3.530   0.169  24.234  0.00  0.00    +0.147 A 
ATOM     33  C   UNL     1      -3.293  -0.356  24.824  0.00  0.00    +0.277 A 
ATOM     34  O   UNL     1      -3.089   0.446  25.067  0.00  0.00    -0.266 OA
ATOM     35  N   UNL     1      -3.423  -1.165  24.731  0.00  0.00    -0.298 N 
ATOM     36  C   UNL     1      -3.618  -1.745  24.459  0.00  0.00    +0.110 C 
ENDROOT
BRANCH   9   6
ATOM      3  C   UNL     1      -3.461   1.148  23.976  0.00  0.00    +0.139 A 
ATOM      4  C   UNL     1      -4.002   0.641  24.489  0.00  0.00    +0.037 A 
ATOM      5  C   UNL     1      -3.828  -0.043  25.106  0.00  0.00    +0.008 A 
ATOM      6  C   UNL     1      -3.063  -0.297  25.277  0.00  0.00    +0.054 A 
ATOM      7  C   UNL     1      -2.417   0.052  24.901  0.00  0.00    +0.008 A 
ATOM      8  C   UNL     1      -2.537   0.657  24.352  0.00  0.00    +0.037 A 
BRANCH   3   2
ATOM      1  C   UNL     1      -2.534   1.592  22.640  0.00  0.00    +0.252 C 
ATOM      2  O   UNL     1      -3.162   1.822  23.329  0.00  0.00    -0.471 OA
ENDBRANCH   3   2
ENDBRANCH   9   6
BRANCH  20  21
ATOM     21  N   UNL     1      -3.334   1.015  24.451  0.00  0.00    -0.092 NA
BRANCH  21  22
ATOM     22  S   UNL     1      -4.075   1.542  24.687  0.00  0.00    +0.093 S 
ATOM     23  O   UNL     1      -3.769   2.209  25.219  0.00  0.00    -0.148 OA
ATOM     24  O   UNL     1      -4.989   1.247  24.308  0.00  0.00    -0.148 OA
BRANCH  22  25
ATOM     25  C   UNL     1      -4.565   2.114  25.003  0.00  0.00    +0.127 A 
ATOM     26  C   UNL     1      -4.104   2.777  25.169  0.00  0.00    +0.023 A 
ATOM     27  C   UNL     1      -4.453   3.449  25.496  0.00  0.00    +0.038 A 
ATOM     28  C   UNL     1      -5.262   3.458  25.656  0.00  0.00    +0.139 A 
ATOM     31  C   UNL     1      -5.723   2.795  25.489  0.00  0.00    +0.038 A 
ATOM     32  C   UNL     1      -5.375   2.122  25.162  0.00  0.00    +0.023 A 
BRANCH  28  29
ATOM     29  O   UNL     1      -5.636   4.171  26.003  0.00  0.00    -0.471 OA
ATOM     30  C   UNL     1      -6.036   4.754  25.527  0.00  0.00    +0.252 C 
ENDBRANCH  28  29
ENDBRANCH  22  25
ENDBRANCH  21  22
ENDBRANCH  20  21
TORSDOF 6
ENDMDL
MODEL 4
REMARK VINA RESULT:     -13.5      1.414      4.631
REMARK  Name = 
REMARK  6 active torsions:
REMARK  status: ('A' for Active; 'I' for Inactive)
REMARK    1  A    between atoms: O_2  and  C_3
REMARK    2  A    between atoms: C_6  and  C_9
REMARK    3  A    between atoms: C_20  and  N_21
REMARK    4  A    between atoms: N_21  and  S_22
REMARK    5  A    between atoms: S_22  and  C_25
REMARK    6  A    between atoms: C_28  and  O_29
REMARK                            x       y       z     vdW  Elec       q    Type
REMARK                         _______ _______ _______ _____ _____    ______ ____
ROOT
ATOM      9  C   UNL     1      -3.251  -1.170  25.949  0.00  0.00    +0.249 C 
ATOM     10  O   UNL     1      -2.950  -1.387  26.726  0.00  0.00    -0.270 OA
ATOM     11  N   UNL     1      -3.407  -1.849  25.420  0.00  0.00    -0.276 N 
ATOM     12  C   UNL     1      -3.417  -2.668  25.260  0.00  0.00    +0.096 C 
ATOM     13  C   UNL     1      -3.762  -2.651  24.334  0.00  0.00    +0.043 C 
ATOM     14  C   UNL     1      -4.031  -2.806  23.581  0.00  0.00    +0.011 C 
ATOM     15  C   UNL     1      -3.915  -2.244  23.985  0.00  0.00    +0.058 C 
ATOM     16  C   UNL     1      -3.582  -2.277  24.879  0.00  0.00    +0.099 C 
ATOM     17  C   UNL     1      -3.973  -1.327  23.978  0.00  0.00    +0.041 A 
ATOM     18  C   UNL     1      -4.192  -0.703  23.485  0.00  0.00    +0.014 A 
ATOM     19  C   UNL     1      -4.138   0.075  23.756  0.00  0.00    +0.024 A 
ATOM     20  C   UNL     1      -3.864   0.228  24.519  0.00  0.00    +0.147 A 
ATOM     33  C   UNL     1      -3.645  -0.396  25.012  0.00  0.00    +0.277 A 
ATOM     34  O   UNL     1      -3.532   0.346  25.436  0.00  0.00    -0.266 OA
ATOM     35  N   UNL     1      -3.699  -1.173  24.741  0.00  0.00    -0.298 N 
ATOM     36  C   UNL     1      -3.818  -1.693  24.336  0.00  0.00    +0.110 C 
ENDROOT
BRANCH   9   6
ATOM      3  C   UNL     1      -4.010   1.229  24.533  0.00  0.00    +0.139 A 
ATOM      4  C   UNL     1      -3.299   0.686  24.429  0.00  0.00    +0.037 A 
ATOM      5  C   UNL     1      -3.030  -0.095  24.872  0.00  0.00    +0.008 A 
ATOM      6  C   UNL     1      -3.466  -0.422  25.490  0.00  0.00    +0.054 A 
ATOM      7  C   UNL     1      -4.164  -0.062  25.740  0.00  0.00    +0.008 A 
ATOM      8  C   UNL     1      -4.428   0.627  25.369  0.00  0.00    +0.037 A 
BRANCH   3   2
ATOM      1  C   UNL     1      -5.552   1.896  24.675  0.00  0.00    +0.252 C 
ATOM      2  O   UNL     1      -4.634   1.974  24.401  0.00  0.00    -0.471 OA
ENDBRANCH   3   2
ENDBRANCH   9   6
BRANCH  20  21
ATOM     21  N   UNL     1      -3.761   1.018  24.926  0.00  0.00    -0.092 NA
BRANCH  21  22
ATOM     22  S   UNL     1      -3.048   1.537  24.602  0.00  0.00    +0.093 S 
ATOM     23  O   UNL     1      -2.737   2.027  25.297  0.00  0.00    -0.148 OA
ATOM     24  O   UNL     1      -2.815   1.424  23.602  0.00  0.00    -0.148 OA
BRANCH  22  25
ATOM     25  C   UNL     1      -2.424   2.058  24.529  0.00  0.00    +0.127 A 
ATOM     26  C   UNL     1      -2.444   2.569  25.176  0.00  0.00    +0.023 A 
ATOM     27  C   UNL     1      -1.875   3.161  25.252  0.00  0.00    +0.038 A 
ATOM     28  C   UNL     1      -1.285   3.242  24.681  0.00  0.00    +0.139 A 
ATOM     31  C   UNL     1      -1.265   2.731  24.034  0.00  0.00    +0.038 A 
ATOM     32  C   UNL     1      -1.834   2.139  23.958  0.00  0.00    +0.023 A 
BRANCH  28  29
ATOM     29  O   UNL     1      -0.679   3.870  24.759  0.00  0.00    -0.471 OA
ATOM     30  C   UNL     1      -0.882   4.685  24.898  0.00  0.00    +0.252 C 
ENDBRANCH  28  29
ENDBRANCH  22  25
ENDBRANCH  21  22
ENDBRANCH  20  21
TORSDOF 6
ENDMDL
MODEL 5
REMARK VINA RESULT:     -12.3      1.516      2.577
REMARK  Name = 
REMARK  6 active torsions:
REMARK  status: ('A' for Active; 'I' for Inactive)
REMARK    1  A    between atoms: O_2  and  C_3
REMARK    2  A    between atoms: C_6  and  C_9
REMARK    3  A    between atoms: C_20  and  N_21
REMARK    4  A    between atoms: N_21  and  S_22
REMARK    5  A    between atoms: S_22  and  C_25
REMARK    6  A    between atoms: C_28  and  O_29
REMARK                            x       y       z     vdW  Elec       q    Type
REMARK                         _______ _______ _______ _____ _____    ______ ____
ROOT
ATOM      9  C   UNL     1      -3.184   2.746  24.318  0.00  0.00    +0.249 C 
ATOM     10  O   UNL     1      -2.609   3.330  24.054  0.00  0.00    -0.270 OA
ATOM     11  N   UNL     1      -3.873   3.084  24.737  0.00  0.00    -0.276 N 
ATOM     12  C   UNL     1      -4.304   3.732  25.041  0.00  0.00    +0.096 C 
ATOM     13  C   UNL     1      -5.076   3.251  25.426  0.00  0.00    +0.043 C 
ATOM     14  C   UNL     1      -5.765   3.010  25.787  0.00  0.00    +0.011 C 
ATOM     15  C   UNL     1      -5.223   2.714  25.455  0.00  0.00    +0.058 C 
ATOM     16  C   UNL     1      -4.483   3.193  25.088  0.00  0.00    +0.099 C 
ATOM     17  C   UNL     1      -4.898   1.895  25.193  0.00  0.00    +0.041 A 
ATOM     18  C   UNL     1      -5.088   1.092  25.219  0.00  0.00    +0.014 A 
ATOM     19  C   UNL     1      -4.580   0.538  24.881  0.00  0.00    +0.024 A 
ATOM     20  C   UNL     1      -3.883   0.785  24.515  0.00  0.00    +0.147 A 
ATOM     33  C   UNL     1      -3.693   1.587  24.489  0.00  0.00    +0.277 A 
ATOM     34  O   UNL     1      -3.069   1.141  24.096  0.00  0.00    -0.266 OA
ATOM     35  N   UNL     1      -4.201   2.142  24.827  0.00  0.00    -0.298 N 
ATOM     36  C   UNL     1      -4.729   2.400  25.148  0.00  0.00    +0.110 C 
ENDROOT
BRANCH   9   6
ATOM      3  C   UNL     1      -3.568  -0.111  24.156  0.00  0.00    +0.139 A 
ATOM      4  C   UNL     1      -3.392   0.419  24.864  0.00  0.00    +0.037 A 
ATOM      5  C   UNL     1      -3.263   1.344  24.944  0.00  0.00    +0.008 A 
ATOM      6  C   UNL     1      -3.300   1.851  24.295  0.00  0.00    +0.054 A 
ATOM      7  C   UNL     1      -3.454   1.550  23.543  0.00  0.00    +0.008 A 
ATOM      8  C   UNL     1      -3.572   0.739  23.440  0.00  0.00    +0.037 A 
BRANCH   3   2
ATOM      1  C   UNL     1      -4.535  -1.442  23.790  0.00  0.00    +0.252 C 
ATOM      2  O   UNL     1      -3.752  -0.912  23.622  0.00  0.00    -0.471 OA
ENDBRANCH   3   2
ENDBRANCH   9   6
BRANCH  20  21
ATOM     21  N   UNL     1      -3.256   0.288  24.116  0.00  0.00    -0.092 NA
BRANCH  21  22
ATOM     22  S   UNL     1      -2.680  -0.166  24.704  0.00  0.00    +0.093 S 
ATOM     23  O   UNL     1      -1.887  -0.266  24.276  0.00  0.00    -0.148 OA
ATOM     24  O   UNL     1      -3.070  -0.419  25.626  0.00  0.00    -0.148 OA
BRANCH  22  25
ATOM     25  C   UNL     1      -2.039  -0.538  25.046  0.00  0.00    +0.127 A 
ATOM     26  C   UNL     1      -1.554  -0.815  24.439  0.00  0.00    +0.023 A 
ATOM     27  C   UNL     1      -0.857  -1.218  24.619  0.00  0.00    +0.038 A 
ATOM     28  C   UNL     1      -0.646  -1.345  25.407  0.00  0.00    +0.139 A 
ATOM     31  C   UNL     1      -1.132  -1.069  26.014  0.00  0.00    +0.038 A 
ATOM     32  C   UNL     1      -1.828  -0.665  25.834  0.00  0.00    +0.023 A 
BRANCH  28  29
ATOM     29  O   UNL     1       0.093  -1.774  25.602  0.00  0.00    -0.471 OA
ATOM     30  C   UNL     1       0.195  -2.604  25.441  0.00  0.00    +0.252 C 
ENDBRANCH  28  29
ENDBRANCH  22  25
ENDBRANCH  21  22
ENDBRANCH  20  21
TORSDOF 6
ENDMDL
MODEL 6
REMARK VINA RESULT:     -12.3      1.860      3.430
REMARK  Name = 
REMARK  6 active torsions:
REMARK  status: ('A' for Active; 'I' for Inactive)
REMARK    1  A    between atoms: O_2  and  C_3
REMARK    2  A    between atoms: C_6  and  C_9
REMARK    3  A    between atoms: C_20  and  N_21
REMARK    4  A    between atoms: N_21  and  S_22
REMARK    5  A    between atoms: S_22  and  C_25
REMARK    6  A    between atoms: C_28  and  O_29
REMARK                            x       y       z     vdW  Elec       q    Type
REMARK                         _______ _______ _______ _____ _____    ______ ____
ROOT
ATOM      9  C   UNL     1      -4.645   3.626  25.375  0.00  0.00    +0.249 C 
ATOM     10  O   UNL     1      -4.762   4.402  25.730  0.00  0.00    -0.270 OA
ATOM     11  N   UNL     1      -5.336   3.095  25.436  0.00  0.00    -0.276 N 
ATOM     12  C   UNL     1      -6.118   2.930  25.679  0.00  0.00    +0.096 C 
ATOM     13  C   UNL     1      -6.205   2.004  25.344  0.00  0.00    +0.043 C 
ATOM     14  C   UNL     1      -6.432   1.251  25.134  0.00  0.00    +0.011 C 
ATOM     15  C   UNL     1      -5.863   1.658  25.072  0.00  0.00    +0.058 C 
ATOM     16  C   UNL     1      -5.796   2.552  25.401  0.00  0.00    +0.099 C 
ATOM     17  C   UNL     1      -5.009   1.654  24.734  0.00  0.00    +0.041 A 
ATOM     18  C   UNL     1      -4.481   1.165  24.331  0.00  0.00    +0.014 A 
ATOM     19  C   UNL     1      -3.726   1.439  24.143  0.00  0.00    +0.024 A 
ATOM     20  C   UNL     1      -3.499   2.203  24.357  0.00  0.00    +0.147 A 
ATOM     33  C   UNL     1      -4.027   2.692  24.760  0.00  0.00    +0.277 A 
ATOM     34  O   UNL     1      -3.288   3.120  24.638  0.00  0.00    -0.266 OA
ATOM     35  N   UNL     1      -4.782   2.418  24.948  0.00  0.00    -0.298 N 
ATOM     36  C   UNL     1      -5.311   2.011  24.994  0.00  0.00    +0.110 C 
ENDROOT
BRANCH   9   6
ATOM      3  C   UNL     1      -2.588   2.224  23.911  0.00  0.00    +0.139 A 
ATOM      4  C   UNL     1      -2.912   2.092  24.742  0.00  0.00    +0.037 A 
ATOM      5  C   UNL     1      -3.575   2.529  25.238  0.00  0.00    +0.008 A 
ATOM      6  C   UNL     1      -3.998   3.171  24.939  0.00  0.00    +0.054 A 
ATOM      7  C   UNL     1      -3.843   3.449  24.178  0.00  0.00    +0.008 A 
ATOM      8  C   UNL     1      -3.265   3.084  23.715  0.00  0.00    +0.037 A 
BRANCH   3   2
ATOM      1  C   UNL     1      -2.477   1.938  22.253  0.00  0.00    +0.252 C 
ATOM      2  O   UNL     1      -2.052   2.114  23.097  0.00  0.00    -0.471 OA
ENDBRANCH   3   2
ENDBRANCH   9   6
BRANCH  20  21
ATOM     21  N   UNL     1      -2.718   2.613  24.212  0.00  0.00    -0.092 NA
BRANCH  21  22
ATOM     22  S   UNL     1      -2.012   2.319  24.758  0.00  0.00    +0.093 S 
ATOM     23  O   UNL     1      -1.469   3.031  24.899  0.00  0.00    -0.148 OA
ATOM     24  O   UNL     1      -2.032   1.326  25.041  0.00  0.00    -0.148 OA
BRANCH  22  25
ATOM     25  C   UNL     1      -1.335   2.273  25.212  0.00  0.00    +0.127 A 
ATOM     26  C   UNL     1      -0.972   3.014  25.200  0.00  0.00    +0.023 A 
ATOM     27  C   UNL     1      -0.270   3.136  25.614  0.00  0.00    +0.038 A 
ATOM     28  C   UNL     1       0.071   2.517  26.040  0.00  0.00    +0.139 A 
ATOM     31  C   UNL     1      -0.292   1.776  26.053  0.00  0.00    +0.038 A 
ATOM     32  C   UNL     1      -0.994   1.654  25.638  0.00  0.00    +0.023 A 
BRANCH  28  29
ATOM     29  O   UNL     1       0.817   2.643  26.482  0.00  0.00    -0.471 OA
ATOM     30  C   UNL     1       0.855   2.614  27.332  0.00  0.00    +0.252 C 
ENDBRANCH  28  29
ENDBRANCH  22  25
ENDBRANCH  21  22
ENDBRANCH  20  21
TORSDOF 6
ENDMDL
MODEL 7
REMARK VINA RESULT:     -11.8      1.872      4.488
REMARK  Name = 
REMARK  6 active torsions:
REMARK  status: ('A' for Active; 'I' for Inactive)
REMARK    1  A    between atoms: O_2  and  C_3
REMARK    2  A    between atoms: C_6  and  C_9
REMARK    3  A    between atoms: C_20  and  N_21
REMARK    4  A    between atoms: N_21  and  S_22
REMARK    5  A    between atoms: S_22  and  C_25
REMARK    6  A    between atoms: C_28  and  O_29
REMARK                            x       y       z     vdW  Elec       q    Type
REMARK                         _______ _______ _______ _____ _____    ______ ____
ROOT
ATOM      9  C   UNL     1      -3.444   0.220  24.066  0.00  0.00    +0.249 C 
ATOM     10  O   UNL     1      -4.094   0.433  23.544  0.00  0.00    -0.270 OA
ATOM     11  N   UNL     1      -3.621  -0.440  24.612  0.00  0.00    -0.276 N 
ATOM     12  C   UNL     1      -4.134  -1.023  24.919  0.00  0.00    +0.096 C 
ATOM     13  C   UNL     1      -3.540  -1.427  25.597  0.00  0.00    +0.043 C 
ATOM     14  C   UNL     1      -3.184  -1.861  26.187  0.00  0.00    +0.011 C 
ATOM     15  C   UNL     1      -3.016  -1.330  25.760  0.00  0.00    +0.058 C 
ATOM     16  C   UNL     1      -3.602  -0.950  25.109  0.00  0.00    +0.099 C 
ATOM     17  C   UNL     1      -2.324  -0.761  25.554  0.00  0.00    +0.041 A 
ATOM     18  C   UNL     1      -1.546  -0.593  25.774  0.00  0.00    +0.014 A 
ATOM     19  C   UNL     1      -1.134   0.013  25.395  0.00  0.00    +0.024 A 
ATOM     20  C   UNL     1      -1.498   0.450  24.798  0.00  0.00    +0.147 A 
ATOM     33  C   UNL     1      -2.275   0.282  24.579  0.00  0.00    +0.277 A 
ATOM     34  O   UNL     1      -1.985   0.935  24.096  0.00  0.00    -0.266 OA
ATOM     35  N   UNL     1      -2.688  -0.324  24.957  0.00  0.00    -0.298 N 
ATOM     36  C   UNL     1      -2.823  -0.829  25.375  0.00  0.00    +0.110 C 
ENDROOT
BRANCH   9   6
ATOM      3  C   UNL     1      -0.706   1.019  24.519  0.00  0.00    +0.139 A 
ATOM      4  C   UNL     1      -1.440   1.121  25.032  0.00  0.00    +0.037 A 
ATOM      5  C   UNL     1      -2.335   0.873  24.910  0.00  0.00    +0.008 A 
ATOM      6  C   UNL     1      -2.595   0.481  24.232  0.00  0.00    +0.054 A 
ATOM      7  C   UNL     1      -2.061   0.294  23.633  0.00  0.00    +0.008 A 
ATOM      8  C   UNL     1      -1.265   0.499  23.710  0.00  0.00    +0.037 A 
BRANCH   3   2
ATOM      1  C   UNL     1       0.613   0.335  23.721  0.00  0.00    +0.252 C 
ATOM      2  O   UNL     1       0.226   1.063  24.215  0.00  0.00    -0.471 OA
ENDBRANCH   3   2
ENDBRANCH   9   6
BRANCH  20  21
ATOM     21  N   UNL     1      -1.161   1.125  24.317  0.00  0.00    -0.092 NA
BRANCH  21  22
ATOM     22  S   UNL     1      -1.105   1.944  24.774  0.00  0.00    +0.093 S 
ATOM     23  O   UNL     1      -1.254   2.599  24.166  0.00  0.00    -0.148 OA
ATOM     24  O   UNL     1      -0.900   1.894  25.785  0.00  0.00    -0.148 OA
BRANCH  22  25
ATOM     25  C   UNL     1      -1.099   2.737  24.970  0.00  0.00    +0.127 A 
ATOM     26  C   UNL     1      -0.816   3.156  24.319  0.00  0.00    +0.023 A 
ATOM     27  C   UNL     1      -0.748   3.977  24.356  0.00  0.00    +0.038 A 
ATOM     28  C   UNL     1      -0.963   4.379  25.044  0.00  0.00    +0.139 A 
ATOM     31  C   UNL     1      -1.247   3.959  25.695  0.00  0.00    +0.038 A 
ATOM     32  C   UNL     1      -1.315   3.138  25.658  0.00  0.00    +0.023 A 
BRANCH  28  29
ATOM     29  O   UNL     1      -0.892   5.251  25.086  0.00  0.00    -0.471 OA
ATOM     30  C   UNL     1      -1.568   5.767  25.030  0.00  0.00    +0.252 C 
ENDBRANCH  28  29
ENDBRANCH  22  25
ENDBRANCH  21  22
ENDBRANCH  20  21
TORSDOF 6
ENDMDL
