MODEL 1
REMARK VINA RESULT:     -17.0      0.000      0.000
REMARK  Name = 
REMARK  4 active torsions:
REMARK  status: ('A' for Active; 'I' for Inactive)
REMARK    1  A    between atoms: C_2  and  C_27
REMARK    2  A    between atoms: C_12  and  N_13
REMARK    3  A    between atoms: N_13  and  S_14
REMARK    4  A    between atoms: S_14  and  C_17
REMARK                            x       y       z     vdW  Elec       q    Type
REMARK                         _______ _______ _______ _____ _____    ______ ____
ROOT
ATOM      1  O   UNL     1      -4.877   3.844  25.369  0.00  0.00    -0.268 OA
ATOM      2  C   UNL     1      -4.228   3.281  25.208  0.00  0.00    +0.267 C 
ATOM      3  N   UNL     1      -3.484   3.628  25.434  0.00  0.00    -0.274 N 
ATOM      4  C   UNL     1      -3.045   4.267  25.746  0.00  0.00    +0.096 C 
ATOM      5  C   UNL     1      -2.135   3.885  25.690  0.00  0.00    +0.043 C 
ATOM      6  C   UNL     1      -1.338   3.720  25.710  0.00  0.00    +0.011 C 
ATOM      7  C   UNL     1      -1.930   3.399  25.512  0.00  0.00    +0.058 C 
ATOM      8  C   UNL     1      -2.803   3.781  25.573  0.00  0.00    +0.100 C 
ATOM      9  C   UNL     1      -2.236   2.610  25.152  0.00  0.00    +0.041 A 
ATOM     10  C   UNL     1      -1.962   1.881  24.881  0.00  0.00    +0.014 A 
ATOM     11  C   UNL     1      -2.496   1.322  24.592  0.00  0.00    +0.024 A 
ATOM     12  C   UNL     1      -3.352   1.593  24.608  0.00  0.00    +0.147 A 
ATOM     23  C   UNL     1      -3.576   2.223  24.844  0.00  0.00    +0.277 A 
ATOM     24  O   UNL     1      -4.563   2.515  24.855  0.00  0.00    -0.266 OA
ATOM     25  N   UNL     1      -3.043   2.781  25.133  0.00  0.00    -0.298 N 
ATOM     26  C   UNL     1      -2.465   3.065  25.315  0.00  0.00    +0.110 C 
ENDROOT
BRANCH   2  27
ATOM     27  C   UNL     1      -4.041   2.434  24.879  0.00  0.00    +0.135 A 
ATOM     28  N   UNL     1      -3.881   1.774  25.346  0.00  0.00    -0.239 NA
ATOM     29  C   UNL     1      -3.721   1.046  24.991  0.00  0.00    +0.099 A 
ATOM     30  C   UNL     1      -3.722   0.980  24.168  0.00  0.00    +0.021 A 
ATOM     31  C   UNL     1      -3.882   1.641  23.702  0.00  0.00    +0.003 A 
ATOM     32  C   UNL     1      -4.042   2.368  24.057  0.00  0.00    +0.024 A 
ENDBRANCH   2  27
BRANCH  12  13
ATOM     13  N   UNL     1      -4.146   1.205  24.361  0.00  0.00    -0.092 NA
BRANCH  13  14
ATOM     14  S   UNL     1      -3.844   0.166  24.359  0.00  0.00    +0.093 S 
ATOM     15  O   UNL     1      -3.160   0.016  23.838  0.00  0.00    -0.148 OA
ATOM     16  O   UNL     1      -4.268  -0.404  24.837  0.00  0.00    -0.148 OA
BRANCH  14  17
ATOM     17  C   UNL     1      -3.713  -0.773  24.473  0.00  0.00    +0.127 A 
ATOM     18  C   UNL     1      -4.222  -1.173  23.961  0.00  0.00    +0.020 A 
ATOM     19  C   UNL     1      -4.225  -1.998  23.944  0.00  0.00    +0.001 A 
ATOM     20  C   UNL     1      -3.719  -2.423  24.439  0.00  0.00    +0.000 A 
ATOM     21  C   UNL     1      -3.210  -2.023  24.950  0.00  0.00    +0.001 A 
ATOM     22  C   UNL     1      -3.207  -1.198  24.967  0.00  0.00    +0.020 A 
ENDBRANCH  14  17
ENDBRANCH  13  14
ENDBRANCH  12  13
TORSDOF 4
ENDMDL
MODEL 2
REMARK VINA RESULT:     -16.8      1.074      1.831
REMARK  Name = 
REMARK  4 active torsions:
REMARK  status: ('A' for Active; 'I' for Inactive)
REMARK    1  A    between atoms: C_2  and  C_27
REMARK    2  A    between atoms: C_12  and  N_13
REMARK    3  A    between atoms: N_13  and  S_14
REMARK    4  A    between atoms: S_14  and  C_17
REMARK                            x       y       z     vdW  Elec       q    Type
REMARK                         _______ _______ _______ _____ _____    ______ ____
ROOT
ATOM      1  O   UNL     1      -2.401   3.522  24.834  0.00  0.00    -0.268 OA
ATOM      2  C   UNL     1      -3.014   2.900  24.812  0.00  0.00    +0.267 C 
ATOM      3  N   UNL     1      -3.748   3.210  25.112  0.00  0.00    -0.274 N 
ATOM      4  C   UNL     1      -4.195   3.839  25.432  0.00  0.00    +0.096 C 
ATOM      5  C   UNL     1      -5.067   3.387  25.535  0.00  0.00    +0.043 C 
ATOM      6  C   UNL     1      -5.838   3.165  25.681  0.00  0.00    +0.011 C 
ATOM      7  C   UNL     1      -5.252   2.872  25.427  0.00  0.00    +0.058 C 
ATOM      8  C   UNL     1      -4.416   3.323  25.334  0.00  0.00    +0.100 C 
ATOM      9  C   UNL     1      -4.930   2.080  25.092  0.00  0.00    +0.041 A 
ATOM     10  C   UNL     1      -5.173   1.310  24.921  0.00  0.00    +0.014 A 
ATOM     11  C   UNL     1      -4.637   0.770  24.603  0.00  0.00    +0.024 A 
ATOM     12  C   UNL     1      -3.813   1.104  24.477  0.00  0.00    +0.147 A 
ATOM     23  C   UNL     1      -3.615   1.767  24.628  0.00  0.00    +0.277 A 
ATOM     24  O   UNL     1      -2.665   2.133  24.476  0.00  0.00    -0.266 OA
ATOM     25  N   UNL     1      -4.151   2.308  24.945  0.00  0.00    -0.298 N 
ATOM     26  C   UNL     1      -4.722   2.563  25.184  0.00  0.00    +0.110 C 
ENDROOT
BRANCH   2  27
ATOM     27  C   UNL     1      -3.170   2.015  24.581  0.00  0.00    +0.135 A 
ATOM     28  N   UNL     1      -3.230   1.393  25.118  0.00  0.00    -0.239 NA
ATOM     29  C   UNL     1      -3.370   0.626  24.847  0.00  0.00    +0.099 A 
ATOM     30  C   UNL     1      -3.450   0.482  24.038  0.00  0.00    +0.021 A 
ATOM     31  C   UNL     1      -3.390   1.105  23.501  0.00  0.00    +0.003 A 
ATOM     32  C   UNL     1      -3.250   1.872  23.773  0.00  0.00    +0.024 A 
ENDBRANCH   2  27
BRANCH  12  13
ATOM     13  N   UNL     1      -3.030   0.756  24.151  0.00  0.00    -0.092 NA
BRANCH  13  14
ATOM     14  S   UNL     1      -3.283  -0.296  24.162  0.00  0.00    +0.093 S 
ATOM     15  O   UNL     1      -3.930  -0.491  23.610  0.00  0.00    -0.148 OA
ATOM     16  O   UNL     1      -2.860  -0.833  24.678  0.00  0.00    -0.148 OA
BRANCH  14  17
ATOM     17  C   UNL     1      -3.377  -1.237  24.295  0.00  0.00    +0.127 A 
ATOM     18  C   UNL     1      -2.649  -1.542  24.536  0.00  0.00    +0.020 A 
ATOM     19  C   UNL     1      -2.571  -2.349  24.691  0.00  0.00    +0.001 A 
ATOM     20  C   UNL     1      -3.221  -2.850  24.605  0.00  0.00    +0.000 A 
ATOM     21  C   UNL     1      -3.949  -2.545  24.365  0.00  0.00    +0.001 A 
ATOM     22  C   UNL     1      -4.026  -1.739  24.209  0.00  0.00    +0.020 A 
ENDBRANCH  14  17
ENDBRANCH  13  14
ENDBRANCH  12  13
TORSDOF 4
ENDMDL
MODEL 3
REMARK VINA RESULT:     -16.7      1.501      4.285
REMARK  Name = 
REMARK  4 active torsions:
REMARK  status: ('A' for Active; 'I' for Inactive)
REMARK    1  A    between atoms: C_2  and  C_27
REMARK    2  A    between atoms: C_12  and  N_13
REMARK    3  A    between atoms: N_13  and  S_14
REMARK    4  A    between atoms: S_14  and  C_17
REMARK                            x       y       z     vdW  Elec       q    Type
REMARK                         _______ _______ _______ _____ _____    ______ ____
ROOT
ATOM      1  O   UNL     1      -0.828  -0.956  24.885  0.00  0.00    -0.268 OA
ATOM      2  C   UNL     1      -1.678  -0.818  24.736  0.00  0.00    +0.267 C 
ATOM      3  N   UNL     1      -2.080  -1.564  24.656  0.00  0.00    -0.274 N 
ATOM      4  C   UNL     1      -2.068  -2.400  24.649  0.00  0.00    +0.096 C 
ATOM      5  C   UNL     1      -3.024  -2.578  24.477  0.00  0.00    +0.043 C 
ATOM      6  C   UNL     1      -3.765  -2.888  24.342  0.00  0.00    +0.011 C 
ATOM      7  C   UNL     1      -3.471  -2.254  24.401  0.00  0.00    +0.058 C 
ATOM      8  C   UNL     1      -2.544  -2.097  24.568  0.00  0.00    +0.100 C 
ATOM      9  C   UNL     1      -3.678  -1.358  24.374  0.00  0.00    +0.041 A 
ATOM     10  C   UNL     1      -4.320  -0.852  24.266  0.00  0.00    +0.014 A 
ATOM     11  C   UNL     1      -4.210  -0.035  24.294  0.00  0.00    +0.024 A 
ATOM     12  C   UNL     1      -3.360   0.213  24.448  0.00  0.00    +0.147 A 
ATOM     23  C   UNL     1      -2.816  -0.231  24.540  0.00  0.00    +0.277 A 
ATOM     24  O   UNL     1      -1.848   0.073  24.715  0.00  0.00    -0.266 OA
ATOM     25  N   UNL     1      -2.926  -1.048  24.511  0.00  0.00    -0.298 N 
ATOM     26  C   UNL     1      -3.230  -1.641  24.451  0.00  0.00    +0.110 C 
ENDROOT
BRANCH   2  27
ATOM     27  C   UNL     1      -2.318  -0.155  24.629  0.00  0.00    +0.135 A 
ATOM     28  N   UNL     1      -2.870   0.061  25.202  0.00  0.00    -0.239 NA
ATOM     29  C   UNL     1      -3.415   0.661  25.044  0.00  0.00    +0.099 A 
ATOM     30  C   UNL     1      -3.405   1.045  24.313  0.00  0.00    +0.021 A 
ATOM     31  C   UNL     1      -2.852   0.829  23.741  0.00  0.00    +0.003 A 
ATOM     32  C   UNL     1      -2.308   0.229  23.899  0.00  0.00    +0.024 A 
ENDBRANCH   2  27
BRANCH  12  13
ATOM     13  N   UNL     1      -2.941   1.025  24.531  0.00  0.00    -0.092 NA
BRANCH  13  14
ATOM     14  S   UNL     1      -3.803   1.654  24.711  0.00  0.00    +0.093 S 
ATOM     15  O   UNL     1      -4.360   1.659  24.039  0.00  0.00    -0.148 OA
ATOM     16  O   UNL     1      -3.878   2.077  25.452  0.00  0.00    -0.148 OA
BRANCH  14  17
ATOM     17  C   UNL     1      -4.487   2.241  25.028  0.00  0.00    +0.127 A 
ATOM     18  C   UNL     1      -4.159   2.990  25.139  0.00  0.00    +0.020 A 
ATOM     19  C   UNL     1      -4.630   3.609  25.412  0.00  0.00    +0.001 A 
ATOM     20  C   UNL     1      -5.429   3.480  25.575  0.00  0.00    +0.000 A 
ATOM     21  C   UNL     1      -5.756   2.731  25.464  0.00  0.00    +0.001 A 
ATOM     22  C   UNL     1      -5.285   2.111  25.191  0.00  0.00    +0.020 A 
ENDBRANCH  14  17
ENDBRANCH  13  14
ENDBRANCH  12  13
TORSDOF 4
ENDMDL
MODEL 4
REMARK VINA RESULT:     -15.9      1.751      4.518
REMARK  Name = 
REMARK  4 active torsions:
REMARK  status: ('A' for Active; 'I' for Inactive)
REMARK    1  A    between atoms: C_2  and  C_27
REMARK    2  A    between atoms: C_12  and  N_13
REMARK    3  A    between atoms: N_13  and  S_14
REMARK    4  A    between atoms: S_14  and  C_17
REMARK                            x       y       z     vdW  Elec       q    Type
REMARK                         _______ _______ _______ _____ _____    ______ ____
ROOT
ATOM      1  O   UNL     1      -0.950  -1.708  25.295  0.00  0.00    -0.268 OA
ATOM      2  C   UNL     1      -1.476  -1.067  25.020  0.00  0.00    +0.267 C 
ATOM      3  N   UNL     1      -2.241  -1.388  24.824  0.00  0.00    -0.274 N 
ATOM      4  C   UNL     1      -2.761  -2.039  24.761  0.00  0.00    +0.096 C 
ATOM      5  C   UNL     1      -3.566  -1.574  24.424  0.00  0.00    +0.043 C 
ATOM      6  C   UNL     1      -4.298  -1.347  24.149  0.00  0.00    +0.011 C 
ATOM      7  C   UNL     1      -3.684  -1.044  24.299  0.00  0.00    +0.058 C 
ATOM      8  C   UNL     1      -2.914  -1.507  24.624  0.00  0.00    +0.100 C 
ATOM      9  C   UNL     1      -3.265  -0.225  24.302  0.00  0.00    +0.041 A 
ATOM     10  C   UNL     1      -3.408   0.568  24.126  0.00  0.00    +0.014 A 
ATOM     11  C   UNL     1      -2.810   1.127  24.229  0.00  0.00    +0.024 A 
ATOM     12  C   UNL     1      -2.039   0.784  24.536  0.00  0.00    +0.147 A 
ATOM     23  C   UNL     1      -1.927   0.100  24.683  0.00  0.00    +0.277 A 
ATOM     24  O   UNL     1      -1.035  -0.275  25.034  0.00  0.00    -0.266 OA
ATOM     25  N   UNL     1      -2.524  -0.459  24.580  0.00  0.00    -0.298 N 
ATOM     26  C   UNL     1      -3.120  -0.724  24.430  0.00  0.00    +0.110 C 
ENDROOT
BRANCH   2  27
ATOM     27  C   UNL     1      -1.519  -0.155  24.857  0.00  0.00    +0.135 A 
ATOM     28  N   UNL     1      -1.888   0.393  25.350  0.00  0.00    -0.239 NA
ATOM     29  C   UNL     1      -1.890   1.194  25.148  0.00  0.00    +0.099 A 
ATOM     30  C   UNL     1      -1.523   1.445  24.453  0.00  0.00    +0.021 A 
ATOM     31  C   UNL     1      -1.154   0.896  23.961  0.00  0.00    +0.003 A 
ATOM     32  C   UNL     1      -1.151   0.095  24.163  0.00  0.00    +0.024 A 
ENDBRANCH   2  27
BRANCH  12  13
ATOM     13  N   UNL     1      -1.221   1.144  24.742  0.00  0.00    -0.092 NA
BRANCH  13  14
ATOM     14  S   UNL     1      -1.496   2.189  24.801  0.00  0.00    +0.093 S 
ATOM     15  O   UNL     1      -1.841   2.488  24.057  0.00  0.00    -0.148 OA
ATOM     16  O   UNL     1      -1.367   2.626  25.526  0.00  0.00    -0.148 OA
BRANCH  14  17
ATOM     17  C   UNL     1      -1.678   3.101  25.021  0.00  0.00    +0.127 A 
ATOM     18  C   UNL     1      -0.981   3.535  24.937  0.00  0.00    +0.020 A 
ATOM     19  C   UNL     1      -0.979   4.345  25.093  0.00  0.00    +0.001 A 
ATOM     20  C   UNL     1      -1.673   4.721  25.333  0.00  0.00    +0.000 A 
ATOM     21  C   UNL     1      -2.370   4.287  25.417  0.00  0.00    +0.001 A 
ATOM     22  C   UNL     1      -2.372   3.477  25.261  0.00  0.00    +0.020 A 
ENDBRANCH  14  17
ENDBRANCH  13  14
ENDBRANCH  12  13
TORSDOF 4
ENDMDL
