MODEL 1
REMARK VINA RESULT:     -12.1      0.000      0.000
REMARK  Name = 
REMARK  5 active torsions:
REMARK  status: ('A' for Active; 'I' for Inactive)
REMARK    1  A    between atoms: O_2  and  C_3
REMARK    2  A    between atoms: C_6  and  N_7
REMARK    3  A    between atoms: N_10  and  C_11
REMARK    4  A    between atoms: C_17  and  N_20
REMARK    5  A    between atoms: C_23  and  C_26
REMARK                            x       y       z     vdW  Elec       q    Type
REMARK                         _______ _______ _______ _____ _____    ______ ____
ROOT
ATOM     11  C   UNL     1      -3.925   2.105  24.939  0.00  0.00    +0.158 C 
ATOM     12  C   UNL     1      -4.064   2.787  24.324  0.00  0.00    +0.170 C 
ATOM     13  C   UNL     1      -3.537   3.359  24.339  0.00  0.00    +0.176 C 
ATOM     14  O   UNL     1      -3.330   3.990  24.047  0.00  0.00    -0.327 OA
ATOM     15  C   UNL     1      -3.828   3.271  24.164  0.00  0.00    +0.253 C 
ATOM     16  O   UNL     1      -4.514   2.983  23.808  0.00  0.00    -0.327 OA
ATOM     17  C   UNL     1      -3.670   2.565  24.812  0.00  0.00    +0.147 C 
ATOM     18  C   UNL     1      -3.236   2.396  25.295  0.00  0.00    +0.194 C 
ATOM     19  O   UNL     1      -2.585   2.440  25.801  0.00  0.00    -0.220 OA
ENDROOT
BRANCH  17  20
ATOM     20  N   UNL     1      -3.082   3.141  24.876  0.00  0.00    -0.268 NA
ATOM     21  C   UNL     1      -2.403   3.090  24.410  0.00  0.00    +0.073 C 
ATOM     22  C   UNL     1      -1.815   3.666  24.473  0.00  0.00    +0.027 C 
ATOM     23  C   UNL     1      -1.906   4.291  25.003  0.00  0.00    +0.083 C 
ATOM     24  C   UNL     1      -2.585   4.342  25.469  0.00  0.00    +0.027 C 
ATOM     25  C   UNL     1      -3.173   3.767  25.405  0.00  0.00    +0.073 C 
BRANCH  23  26
ATOM     26  C   UNL     1      -1.319   4.868  25.067  0.00  0.00    +0.260 C 
ATOM     27  N   UNL     1      -0.536   4.680  24.885  0.00  0.00    -0.088 NA
ATOM     28  O   UNL     1      -1.513   5.631  25.313  0.00  0.00    -0.272 OA
ENDBRANCH  23  26
ENDBRANCH  17  20
BRANCH  11  10
ATOM      7  N   UNL     1      -4.462  -0.008  25.061  0.00  0.00    -0.161 NA
ATOM      8  C   UNL     1      -4.030   0.679  24.914  0.00  0.00    +0.344 C 
ATOM      9  O   UNL     1      -3.271   0.630  24.593  0.00  0.00    -0.249 OA
ATOM     10  N   UNL     1      -4.357   1.417  25.087  0.00  0.00    -0.183 NA
BRANCH   7   6
ATOM      3  C   UNL     1      -3.481  -2.220  24.540  0.00  0.00    +0.139 A 
ATOM      4  C   UNL     1      -3.355  -1.876  25.279  0.00  0.00    +0.038 A 
ATOM      5  C   UNL     1      -3.681  -1.139  25.453  0.00  0.00    +0.020 A 
ATOM      6  C   UNL     1      -4.135  -0.745  24.887  0.00  0.00    +0.075 A 
ATOM     29  C   UNL     1      -4.262  -1.089  24.148  0.00  0.00    +0.020 A 
ATOM     30  C   UNL     1      -3.935  -1.826  23.975  0.00  0.00    +0.038 A 
BRANCH   3   2
ATOM      1  C   UNL     1      -2.340  -3.032  24.260  0.00  0.00    +0.252 C 
ATOM      2  O   UNL     1      -3.154  -2.958  24.367  0.00  0.00    -0.471 OA
ENDBRANCH   3   2
ENDBRANCH   7   6
ENDBRANCH  11  10
TORSDOF 5
ENDMDL
MODEL 2
REMARK VINA RESULT:     -11.1      1.981      2.538
REMARK  Name = 
REMARK  5 active torsions:
REMARK  status: ('A' for Active; 'I' for Inactive)
REMARK    1  A    between atoms: O_2  and  C_3
REMARK    2  A    between atoms: C_6  and  N_7
REMARK    3  A    between atoms: N_10  and  C_11
REMARK    4  A    between atoms: C_17  and  N_20
REMARK    5  A    between atoms: C_23  and  C_26
REMARK                            x       y       z     vdW  Elec       q    Type
REMARK                         _______ _______ _______ _____ _____    ______ ____
ROOT
ATOM     11  C   UNL     1      -0.670   1.097  25.308  0.00  0.00    +0.158 C 
ATOM     12  C   UNL     1      -0.130   1.502  24.670  0.00  0.00    +0.170 C 
ATOM     13  C   UNL     1      -0.221   2.272  24.599  0.00  0.00    +0.176 C 
ATOM     14  O   UNL     1      -0.006   2.870  24.251  0.00  0.00    -0.327 OA
ATOM     15  C   UNL     1      -0.030   2.013  24.459  0.00  0.00    +0.253 C 
ATOM     16  O   UNL     1       0.373   1.345  24.191  0.00  0.00    -0.327 OA
ATOM     17  C   UNL     1      -0.601   1.603  25.129  0.00  0.00    +0.147 C 
ATOM     18  C   UNL     1      -1.074   1.769  25.576  0.00  0.00    +0.194 C 
ATOM     19  O   UNL     1      -1.598   2.235  26.011  0.00  0.00    -0.220 OA
ENDROOT
BRANCH  17  20
ATOM     20  N   UNL     1      -0.742   2.416  25.100  0.00  0.00    -0.268 NA
ATOM     21  C   UNL     1      -1.279   2.722  24.552  0.00  0.00    +0.073 C 
ATOM     22  C   UNL     1      -1.420   3.534  24.523  0.00  0.00    +0.027 C 
ATOM     23  C   UNL     1      -1.025   4.040  25.041  0.00  0.00    +0.083 C 
ATOM     24  C   UNL     1      -0.489   3.735  25.588  0.00  0.00    +0.027 C 
ATOM     25  C   UNL     1      -0.348   2.923  25.617  0.00  0.00    +0.073 C 
BRANCH  23  26
ATOM     26  C   UNL     1      -1.166   4.853  25.012  0.00  0.00    +0.260 C 
ATOM     27  N   UNL     1      -1.885   5.156  25.280  0.00  0.00    -0.088 NA
ATOM     28  O   UNL     1      -0.589   5.362  24.715  0.00  0.00    -0.272 OA
ENDBRANCH  23  26
ENDBRANCH  17  20
BRANCH  11  10
ATOM      7  N   UNL     1      -1.419  -0.945  25.498  0.00  0.00    -0.161 NA
ATOM      8  C   UNL     1      -1.358  -0.156  25.268  0.00  0.00    +0.344 C 
ATOM      9  O   UNL     1      -1.927   0.174  24.767  0.00  0.00    -0.249 OA
ATOM     10  N   UNL     1      -0.730   0.306  25.539  0.00  0.00    -0.183 NA
BRANCH   7   6
ATOM      3  C   UNL     1      -3.303  -2.330  24.687  0.00  0.00    +0.139 A 
ATOM      4  C   UNL     1      -3.413  -1.814  25.321  0.00  0.00    +0.038 A 
ATOM      5  C   UNL     1      -2.785  -1.352  25.591  0.00  0.00    +0.020 A 
ATOM      6  C   UNL     1      -2.047  -1.407  25.228  0.00  0.00    +0.075 A 
ATOM     29  C   UNL     1      -1.936  -1.923  24.594  0.00  0.00    +0.020 A 
ATOM     30  C   UNL     1      -2.564  -2.384  24.323  0.00  0.00    +0.038 A 
BRANCH   3   2
ATOM      1  C   UNL     1      -4.383  -2.537  23.775  0.00  0.00    +0.252 C 
ATOM      2  O   UNL     1      -3.931  -2.792  24.416  0.00  0.00    -0.471 OA
ENDBRANCH   3   2
ENDBRANCH   7   6
ENDBRANCH  11  10
TORSDOF 5
ENDMDL
MODEL 3
REMARK VINA RESULT:     -11.0      2.078      5.741
REMARK  Name = 
REMARK  5 active torsions:
REMARK  status: ('A' for Active; 'I' for Inactive)
REMARK    1  A    between atoms: O_2  and  C_3
REMARK    2  A    between atoms: C_6  and  N_7
REMARK    3  A    between atoms: N_10  and  C_11
REMARK    4  A    between atoms: C_17  and  N_20
REMARK    5  A    between atoms: C_23  and  C_26
REMARK                            x       y       z     vdW  Elec       q    Type
REMARK                         _______ _______ _______ _____ _____    ______ ____
ROOT
ATOM     11  C   UNL     1      -1.242  -0.080  25.466  0.00  0.00    +0.158 C 
ATOM     12  C   UNL     1      -0.900  -0.765  24.940  0.00  0.00    +0.170 C 
ATOM     13  C   UNL     1      -1.425  -1.276  24.679  0.00  0.00    +0.176 C 
ATOM     14  O   UNL     1      -1.532  -1.877  24.287  0.00  0.00    -0.327 OA
ATOM     15  C   UNL     1      -1.080  -1.218  24.661  0.00  0.00    +0.253 C 
ATOM     16  O   UNL     1      -0.283  -1.003  24.675  0.00  0.00    -0.327 OA
ATOM     17  C   UNL     1      -1.452  -0.508  25.209  0.00  0.00    +0.147 C 
ATOM     18  C   UNL     1      -2.041  -0.298  25.451  0.00  0.00    +0.194 C 
ATOM     19  O   UNL     1      -2.852  -0.276  25.602  0.00  0.00    -0.220 OA
ENDROOT
BRANCH  17  20
ATOM     20  N   UNL     1      -2.053  -1.016  24.962  0.00  0.00    -0.268 NA
ATOM     21  C   UNL     1      -2.250  -1.675  25.419  0.00  0.00    +0.073 C 
ATOM     22  C   UNL     1      -2.851  -2.183  25.173  0.00  0.00    +0.027 C 
ATOM     23  C   UNL     1      -3.256  -2.032  24.470  0.00  0.00    +0.083 C 
ATOM     24  C   UNL     1      -3.060  -1.374  24.014  0.00  0.00    +0.027 C 
ATOM     25  C   UNL     1      -2.459  -0.866  24.260  0.00  0.00    +0.073 C 
BRANCH  23  26
ATOM     26  C   UNL     1      -3.858  -2.540  24.223  0.00  0.00    +0.260 C 
ATOM     27  N   UNL     1      -4.487  -2.247  23.775  0.00  0.00    -0.088 NA
ATOM     28  O   UNL     1      -3.833  -3.340  24.423  0.00  0.00    -0.272 OA
ENDBRANCH  23  26
ENDBRANCH  17  20
BRANCH  11  10
ATOM      7  N   UNL     1      -0.612   1.957  25.934  0.00  0.00    -0.161 NA
ATOM      8  C   UNL     1      -0.989   1.324  25.565  0.00  0.00    +0.344 C 
ATOM      9  O   UNL     1      -1.492   1.459  24.924  0.00  0.00    -0.249 OA
ATOM     10  N   UNL     1      -0.864   0.555  25.836  0.00  0.00    -0.183 NA
BRANCH   7   6
ATOM      3  C   UNL     1      -0.988   4.265  25.121  0.00  0.00    +0.139 A 
ATOM      4  C   UNL     1      -0.362   3.818  24.822  0.00  0.00    +0.038 A 
ATOM      5  C   UNL     1      -0.237   3.050  25.093  0.00  0.00    +0.020 A 
ATOM      6  C   UNL     1      -0.737   2.727  25.663  0.00  0.00    +0.075 A 
ATOM     29  C   UNL     1      -1.363   3.173  25.963  0.00  0.00    +0.020 A 
ATOM     30  C   UNL     1      -1.488   3.942  25.692  0.00  0.00    +0.038 A 
BRANCH   3   2
ATOM      1  C   UNL     1      -1.755   5.470  25.130  0.00  0.00    +0.252 C 
ATOM      2  O   UNL     1      -1.113   5.034  24.850  0.00  0.00    -0.471 OA
ENDBRANCH   3   2
ENDBRANCH   7   6
ENDBRANCH  11  10
TORSDOF 5
ENDMDL
MODEL 4
REMARK VINA RESULT:     -10.6      1.078      5.274
REMARK  Name = 
REMARK  5 active torsions:
REMARK  status: ('A' for Active; 'I' for Inactive)
REMARK    1  A    between atoms: O_2  and  C_3
REMARK    2  A    between atoms: C_6  and  N_7
REMARK    3  A    between atoms: N_10  and  C_11
REMARK    4  A    between atoms: C_17  and  N_20
REMARK    5  A    between atoms: C_23  and  C_26
REMARK                            x       y       z     vdW  Elec       q    Type
REMARK                         _______ _______ _______ _____ _____    ______ ____
ROOT
ATOM     11  C   UNL     1      -4.059   0.913  24.604  0.00  0.00    +0.158 C 
ATOM     12  C   UNL     1      -4.386   0.350  25.267  0.00  0.00    +0.170 C 
ATOM     13  C   UNL     1      -4.157  -0.391  25.215  0.00  0.00    +0.176 C 
ATOM     14  O   UNL     1      -4.197  -1.052  25.511  0.00  0.00    -0.327 OA
ATOM     15  C   UNL     1      -4.356  -0.189  25.421  0.00  0.00    +0.253 C 
ATOM     16  O   UNL     1      -4.802   0.361  25.845  0.00  0.00    -0.327 OA
ATOM     17  C   UNL     1      -4.006   0.387  24.722  0.00  0.00    +0.147 C 
ATOM     18  C   UNL     1      -3.612   0.359  24.180  0.00  0.00    +0.194 C 
ATOM     19  O   UNL     1      -3.116   0.048  23.598  0.00  0.00    -0.220 OA
ENDROOT
BRANCH  17  20
ATOM     20  N   UNL     1      -3.730  -0.383  24.614  0.00  0.00    -0.268 NA
ATOM     21  C   UNL     1      -3.042  -0.632  24.995  0.00  0.00    +0.073 C 
ATOM     22  C   UNL     1      -2.766  -1.401  24.888  0.00  0.00    +0.027 C 
ATOM     23  C   UNL     1      -3.178  -1.923  24.400  0.00  0.00    +0.083 C 
ATOM     24  C   UNL     1      -3.866  -1.675  24.019  0.00  0.00    +0.027 C 
ATOM     25  C   UNL     1      -4.142  -0.905  24.126  0.00  0.00    +0.073 C 
BRANCH  23  26
ATOM     26  C   UNL     1      -2.903  -2.693  24.291  0.00  0.00    +0.260 C 
ATOM     27  N   UNL     1      -2.091  -2.842  24.272  0.00  0.00    -0.088 NA
ATOM     28  O   UNL     1      -3.437  -3.315  24.203  0.00  0.00    -0.272 OA
ENDBRANCH  23  26
ENDBRANCH  17  20
BRANCH  11  10
ATOM      7  N   UNL     1      -3.708   3.067  24.559  0.00  0.00    -0.161 NA
ATOM      8  C   UNL     1      -3.590   2.261  24.686  0.00  0.00    +0.344 C 
ATOM      9  O   UNL     1      -2.884   1.995  25.022  0.00  0.00    -0.249 OA
ATOM     10  N   UNL     1      -4.177   1.721  24.477  0.00  0.00    -0.183 NA
BRANCH   7   6
ATOM      3  C   UNL     1      -1.946   4.689  25.185  0.00  0.00    +0.139 A 
ATOM      4  C   UNL     1      -1.953   4.358  24.430  0.00  0.00    +0.038 A 
ATOM      5  C   UNL     1      -2.539   3.818  24.221  0.00  0.00    +0.020 A 
ATOM      6  C   UNL     1      -3.120   3.608  24.768  0.00  0.00    +0.075 A 
ATOM     29  C   UNL     1      -3.114   3.938  25.523  0.00  0.00    +0.020 A 
ATOM     30  C   UNL     1      -2.527   4.479  25.732  0.00  0.00    +0.038 A 
BRANCH   3   2
ATOM      1  C   UNL     1      -0.682   5.303  24.928  0.00  0.00    +0.252 C 
ATOM      2  O   UNL     1      -1.358   5.230  25.394  0.00  0.00    -0.471 OA
ENDBRANCH   3   2
ENDBRANCH   7   6
ENDBRANCH  11  10
TORSDOF 5
ENDMDL
MODEL 5
REMARK VINA RESULT:      -9.2      2.323      4.965
REMARK  Name = 
REMARK  5 active torsions:
REMARK  status: ('A' for Active; 'I' for Inactive)
REMARK    1  A    between atoms: O_2  and  C_3
REMARK    2  A    between atoms: C_6  and  N_7
REMARK    3  A    between atoms: N_10  and  C_11
REMARK    4  A    between atoms: C_17  and  N_20
REMARK    5  A    between atoms: C_23  and  C_26
REMARK                            x       y       z     vdW  Elec       q    Type
REMARK                         _______ _______ _______ _____ _____    ______ ____
ROOT
ATOM     11  C   UNL     1      -3.738  -0.484  24.666  0.00  0.00    +0.158 C 
ATOM     12  C   UNL     1      -3.644  -1.297  25.106  0.00  0.00    +0.170 C 
ATOM     13  C   UNL     1      -2.912  -1.550  25.183  0.00  0.00    +0.176 C 
ATOM     14  O   UNL     1      -2.485  -2.078  25.438  0.00  0.00    -0.327 OA
ATOM     15  C   UNL     1      -3.238  -1.650  25.267  0.00  0.00    +0.253 C 
ATOM     16  O   UNL     1      -4.034  -1.804  25.420  0.00  0.00    -0.327 OA
ATOM     17  C   UNL     1      -3.320  -0.800  24.804  0.00  0.00    +0.147 C 
ATOM     18  C   UNL     1      -2.937  -0.332  24.513  0.00  0.00    +0.194 C 
ATOM     19  O   UNL     1      -2.262   0.056  24.241  0.00  0.00    -0.220 OA
ENDROOT
BRANCH  17  20
ATOM     20  N   UNL     1      -2.525  -1.016  24.855  0.00  0.00    -0.268 NA
ATOM     21  C   UNL     1      -2.186  -1.485  24.267  0.00  0.00    +0.073 C 
ATOM     22  C   UNL     1      -1.392  -1.701  24.318  0.00  0.00    +0.027 C 
ATOM     23  C   UNL     1      -0.936  -1.446  24.957  0.00  0.00    +0.083 C 
ATOM     24  C   UNL     1      -1.274  -0.977  25.544  0.00  0.00    +0.027 C 
ATOM     25  C   UNL     1      -2.069  -0.761  25.494  0.00  0.00    +0.073 C 
BRANCH  23  26
ATOM     26  C   UNL     1      -0.141  -1.661  25.008  0.00  0.00    +0.260 C 
ATOM     27  N   UNL     1       0.402  -1.368  24.460  0.00  0.00    -0.088 NA
ATOM     28  O   UNL     1       0.113  -2.169  25.607  0.00  0.00    -0.272 OA
ENDBRANCH  23  26
ENDBRANCH  17  20
BRANCH  11  10
ATOM      7  N   UNL     1      -5.196   1.140  24.627  0.00  0.00    -0.161 NA
ATOM      8  C   UNL     1      -4.521   0.703  24.811  0.00  0.00    +0.344 C 
ATOM      9  O   UNL     1      -3.953   1.014  25.324  0.00  0.00    -0.249 OA
ATOM     10  N   UNL     1      -4.413  -0.046  24.482  0.00  0.00    -0.183 NA
BRANCH   7   6
ATOM      3  C   UNL     1      -5.519   3.387  25.614  0.00  0.00    +0.139 A 
ATOM      4  C   UNL     1      -5.055   3.296  24.938  0.00  0.00    +0.038 A 
ATOM      5  C   UNL     1      -4.947   2.548  24.610  0.00  0.00    +0.020 A 
ATOM      6  C   UNL     1      -5.303   1.889  24.956  0.00  0.00    +0.075 A 
ATOM     29  C   UNL     1      -5.768   1.980  25.632  0.00  0.00    +0.020 A 
ATOM     30  C   UNL     1      -5.876   2.729  25.961  0.00  0.00    +0.038 A 
BRANCH   3   2
ATOM      1  C   UNL     1      -5.922   4.751  25.479  0.00  0.00    +0.252 C 
ATOM      2  O   UNL     1      -5.627   4.136  25.943  0.00  0.00    -0.471 OA
ENDBRANCH   3   2
ENDBRANCH   7   6
ENDBRANCH  11  10
TORSDOF 5
ENDMDL
MODEL 6
REMARK VINA RESULT:      -9.1      2.056      2.792
REMARK  Name = 
REMARK  5 active torsions:
REMARK  status: ('A' for Active; 'I' for Inactive)
REMARK    1  A    between atoms: O_2  and  C_3
REMARK    2  A    between atoms: C_6  and  N_7
REMARK    3  A    between atoms: N_10  and  C_11
REMARK    4  A    between atoms: C_17  and  N_20
REMARK    5  A    between atoms: C_23  and  C_26
REMARK                            x       y       z     vdW  Elec       q    Type
REMARK                         _______ _______ _______ _____ _____    ______ ____
ROOT
ATOM     11  C   UNL     1      -2.523   2.386  24.313  0.00  0.00    +0.158 C 
ATOM     12  C   UNL     1      -3.138   2.609  23.654  0.00  0.00    +0.170 C 
ATOM     13  C   UNL     1      -3.815   2.892  23.914  0.00  0.00    +0.176 C 
ATOM     14  O   UNL     1      -4.468   3.148  23.728  0.00  0.00    -0.327 OA
ATOM     15  C   UNL     1      -3.658   2.817  23.609  0.00  0.00    +0.253 C 
ATOM     16  O   UNL     1      -3.213   2.611  22.946  0.00  0.00    -0.327 OA
ATOM     17  C   UNL     1      -3.025   2.588  24.309  0.00  0.00    +0.147 C 
ATOM     18  C   UNL     1      -2.972   2.593  24.978  0.00  0.00    +0.194 C 
ATOM     19  O   UNL     1      -3.175   2.705  25.770  0.00  0.00    -0.220 OA
ENDROOT
BRANCH  17  20
ATOM     20  N   UNL     1      -3.720   2.882  24.644  0.00  0.00    -0.268 NA
ATOM     21  C   UNL     1      -4.358   2.377  24.781  0.00  0.00    +0.073 C 
ATOM     22  C   UNL     1      -5.052   2.670  25.116  0.00  0.00    +0.027 C 
ATOM     23  C   UNL     1      -5.108   3.469  25.315  0.00  0.00    +0.083 C 
ATOM     24  C   UNL     1      -4.471   3.974  25.179  0.00  0.00    +0.027 C 
ATOM     25  C   UNL     1      -3.777   3.680  24.844  0.00  0.00    +0.073 C 
BRANCH  23  26
ATOM     26  C   UNL     1      -5.803   3.763  25.650  0.00  0.00    +0.260 C 
ATOM     27  N   UNL     1      -6.344   3.246  25.998  0.00  0.00    -0.088 NA
ATOM     28  O   UNL     1      -5.957   4.573  25.638  0.00  0.00    -0.272 OA
ENDBRANCH  23  26
ENDBRANCH  17  20
BRANCH  11  10
ATOM      7  N   UNL     1      -0.858   0.976  24.392  0.00  0.00    -0.161 NA
ATOM      8  C   UNL     1      -1.620   1.286  24.451  0.00  0.00    +0.344 C 
ATOM      9  O   UNL     1      -2.242   0.808  24.706  0.00  0.00    -0.249 OA
ATOM     10  N   UNL     1      -1.760   2.075  24.254  0.00  0.00    -0.183 NA
BRANCH   7   6
ATOM      3  C   UNL     1      -0.437  -1.391  24.982  0.00  0.00    +0.139 A 
ATOM      4  C   UNL     1      -0.719  -0.867  25.553  0.00  0.00    +0.038 A 
ATOM      5  C   UNL     1      -0.860  -0.079  25.357  0.00  0.00    +0.020 A 
ATOM      6  C   UNL     1      -0.718   0.187  24.589  0.00  0.00    +0.075 A 
ATOM     29  C   UNL     1      -0.435  -0.336  24.017  0.00  0.00    +0.020 A 
ATOM     30  C   UNL     1      -0.295  -1.125  24.214  0.00  0.00    +0.038 A 
BRANCH   3   2
ATOM      1  C   UNL     1      -0.917  -2.724  25.167  0.00  0.00    +0.252 C 
ATOM      2  O   UNL     1      -0.296  -2.180  25.179  0.00  0.00    -0.471 OA
ENDBRANCH   3   2
ENDBRANCH   7   6
ENDBRANCH  11  10
TORSDOF 5
ENDMDL
