MODEL 1
REMARK VINA RESULT:     -12.0      0.000      0.000
REMARK  Name = 
REMARK  5 active torsions:
REMARK  status: ('A' for Active; 'I' for Inactive)
REMARK    1  A    between atoms: C_3  and  C_11
REMARK    2  A    between atoms: N_14  and  C_15
REMARK    3  A    between atoms: C_15  and  C_16
REMARK    4  A    between atoms: C_16  and  C_17
REMARK    5  A    between atoms: C_17  and  C_18
REMARK                            x       y       z     vdW  Elec       q    Type
REMARK                         _______ _______ _______ _____ _____    ______ ____
ROOT
ATOM     11  C   UNL     1      -3.340   2.528  24.602  0.00  0.00    +0.074 C 
ATOM     12  C   UNL     1      -3.962   2.559  24.062  0.00  0.00    +0.026 C 
ATOM     13  C   UNL     1      -4.425   1.884  24.165  0.00  0.00    +0.073 C 
ATOM     14  N   UNL     1      -4.089   1.434  24.769  0.00  0.00    -0.272 NA
ATOM     24  C   UNL     1      -3.418   1.832  25.040  0.00  0.00    +0.080 C 
ENDROOT
BRANCH  11   3
ATOM      1  C   UNL     1      -3.502   4.114  25.425  0.00  0.00    +0.132 C 
ATOM      2  N   UNL     1      -2.819   3.821  25.069  0.00  0.00    -0.313 N 
ATOM      3  C   UNL     1      -2.744   3.091  24.690  0.00  0.00    +0.121 A 
ATOM      4  N   UNL     1      -1.970   3.025  24.415  0.00  0.00    -0.231 NA
ATOM      5  C   UNL     1      -1.566   3.713  24.624  0.00  0.00    +0.098 A 
ATOM      6  C   UNL     1      -2.091   4.205  25.028  0.00  0.00    +0.079 A 
ATOM      7  C   UNL     1      -1.837   4.939  25.305  0.00  0.00    +0.019 A 
ATOM      8  C   UNL     1      -1.059   5.182  25.180  0.00  0.00    +0.002 A 
ATOM      9  C   UNL     1      -0.534   4.690  24.776  0.00  0.00    +0.002 A 
ATOM     10  C   UNL     1      -0.787   3.956  24.498  0.00  0.00    +0.021 A 
ENDBRANCH  11   3
BRANCH  14  15
ATOM     15  C   UNL     1      -4.373   0.714  25.054  0.00  0.00    +0.072 C 
BRANCH  15  16
ATOM     16  C   UNL     1      -4.051   0.006  24.779  0.00  0.00    +0.022 C 
BRANCH  16  17
ATOM     17  C   UNL     1      -4.291  -0.711  25.109  0.00  0.00    +0.028 C 
BRANCH  17  18
ATOM     18  C   UNL     1      -4.002  -1.421  24.805  0.00  0.00    -0.022 A 
ATOM     19  C   UNL     1      -3.426  -1.843  25.220  0.00  0.00    -0.004 A 
ATOM     20  C   UNL     1      -3.136  -2.553  24.916  0.00  0.00    -0.000 A 
ATOM     21  C   UNL     1      -3.421  -2.841  24.198  0.00  0.00    -0.000 A 
ATOM     22  C   UNL     1      -3.996  -2.419  23.783  0.00  0.00    -0.000 A 
ATOM     23  C   UNL     1      -4.286  -1.710  24.086  0.00  0.00    -0.004 A 
ENDBRANCH  17  18
ENDBRANCH  16  17
ENDBRANCH  15  16
ENDBRANCH  14  15
TORSDOF 5
ENDMDL
MODEL 2
REMARK VINA RESULT:     -11.7      1.821      5.873
REMARK  Name = 
REMARK  5 active torsions:
REMARK  status: ('A' for Active; 'I' for Inactive)
REMARK    1  A    between atoms: C_3  and  C_11
REMARK    2  A    between atoms: N_14  and  C_15
REMARK    3  A    between atoms: C_15  and  C_16
REMARK    4  A    between atoms: C_16  and  C_17
REMARK    5  A    between atoms: C_17  and  C_18
REMARK                            x       y       z     vdW  Elec       q    Type
REMARK                         _______ _______ _______ _____ _____    ______ ____
ROOT
ATOM     11  C   UNL     1      -1.568  -0.132  24.679  0.00  0.00    +0.074 C 
ATOM     12  C   UNL     1      -0.841  -0.091  24.292  0.00  0.00    +0.026 C 
ATOM     13  C   UNL     1      -0.433   0.566  24.583  0.00  0.00    +0.073 C 
ATOM     14  N   UNL     1      -0.909   0.930  25.150  0.00  0.00    -0.272 NA
ATOM     24  C   UNL     1      -1.611   0.499  25.209  0.00  0.00    +0.080 C 
ENDROOT
BRANCH  11   3
ATOM      1  C   UNL     1      -1.418  -1.884  25.038  0.00  0.00    +0.132 C 
ATOM      2  N   UNL     1      -2.081  -1.509  24.723  0.00  0.00    -0.313 N 
ATOM      3  C   UNL     1      -2.150  -0.703  24.558  0.00  0.00    +0.121 A 
ATOM      4  N   UNL     1      -2.904  -0.570  24.251  0.00  0.00    -0.231 NA
ATOM      5  C   UNL     1      -3.300  -1.293  24.226  0.00  0.00    +0.098 A 
ATOM      6  C   UNL     1      -2.792  -1.873  24.518  0.00  0.00    +0.079 A 
ATOM      7  C   UNL     1      -3.043  -2.658  24.558  0.00  0.00    +0.019 A 
ATOM      8  C   UNL     1      -3.801  -2.863  24.307  0.00  0.00    +0.002 A 
ATOM      9  C   UNL     1      -4.309  -2.282  24.015  0.00  0.00    +0.002 A 
ATOM     10  C   UNL     1      -4.060  -1.497  23.974  0.00  0.00    +0.021 A 
ENDBRANCH  11   3
BRANCH  14  15
ATOM     15  C   UNL     1      -0.718   1.607  25.581  0.00  0.00    +0.072 C 
BRANCH  15  16
ATOM     16  C   UNL     1      -0.993   2.344  25.336  0.00  0.00    +0.022 C 
BRANCH  16  17
ATOM     17  C   UNL     1      -0.837   3.015  25.790  0.00  0.00    +0.028 C 
BRANCH  17  18
ATOM     18  C   UNL     1      -1.120   3.751  25.549  0.00  0.00    -0.022 A 
ATOM     19  C   UNL     1      -1.884   3.986  25.755  0.00  0.00    -0.004 A 
ATOM     20  C   UNL     1      -2.168   4.722  25.514  0.00  0.00    -0.000 A 
ATOM     21  C   UNL     1      -1.689   5.223  25.067  0.00  0.00    -0.000 A 
ATOM     22  C   UNL     1      -0.925   4.987  24.861  0.00  0.00    -0.000 A 
ATOM     23  C   UNL     1      -0.641   4.252  25.102  0.00  0.00    -0.004 A 
ENDBRANCH  17  18
ENDBRANCH  16  17
ENDBRANCH  15  16
ENDBRANCH  14  15
TORSDOF 5
ENDMDL
MODEL 3
REMARK VINA RESULT:     -11.6      0.867      5.475
REMARK  Name = 
REMARK  5 active torsions:
REMARK  status: ('A' for Active; 'I' for Inactive)
REMARK    1  A    between atoms: C_3  and  C_11
REMARK    2  A    between atoms: N_14  and  C_15
REMARK    3  A    between atoms: C_15  and  C_16
REMARK    4  A    between atoms: C_16  and  C_17
REMARK    5  A    between atoms: C_17  and  C_18
REMARK                            x       y       z     vdW  Elec       q    Type
REMARK                         _______ _______ _______ _____ _____    ______ ____
ROOT
ATOM     11  C   UNL     1      -4.316   0.611  24.801  0.00  0.00    +0.074 C 
ATOM     12  C   UNL     1      -4.953   0.929  25.216  0.00  0.00    +0.026 C 
ATOM     13  C   UNL     1      -4.888   1.752  25.193  0.00  0.00    +0.073 C 
ATOM     14  N   UNL     1      -4.210   1.941  24.763  0.00  0.00    -0.272 NA
ATOM     24  C   UNL     1      -3.856   1.236  24.520  0.00  0.00    +0.080 C 
ENDROOT
BRANCH  11   3
ATOM      1  C   UNL     1      -3.319  -0.438  25.863  0.00  0.00    +0.132 C 
ATOM      2  N   UNL     1      -3.706  -0.674  25.174  0.00  0.00    -0.313 N 
ATOM      3  C   UNL     1      -4.165  -0.192  24.685  0.00  0.00    +0.121 A 
ATOM      4  N   UNL     1      -4.444  -0.654  24.062  0.00  0.00    -0.231 NA
ATOM      5  C   UNL     1      -4.159  -1.420  24.165  0.00  0.00    +0.098 A 
ATOM      6  C   UNL     1      -3.703  -1.433  24.852  0.00  0.00    +0.079 A 
ATOM      7  C   UNL     1      -3.344  -2.135  25.096  0.00  0.00    +0.019 A 
ATOM      8  C   UNL     1      -3.441  -2.824  24.653  0.00  0.00    +0.002 A 
ATOM      9  C   UNL     1      -3.897  -2.811  23.965  0.00  0.00    +0.002 A 
ATOM     10  C   UNL     1      -4.257  -2.110  23.721  0.00  0.00    +0.021 A 
ENDBRANCH  11   3
BRANCH  14  15
ATOM     15  C   UNL     1      -3.934   2.702  24.603  0.00  0.00    +0.072 C 
BRANCH  15  16
ATOM     16  C   UNL     1      -3.218   2.957  24.924  0.00  0.00    +0.022 C 
BRANCH  16  17
ATOM     17  C   UNL     1      -3.073   3.764  25.019  0.00  0.00    +0.028 C 
BRANCH  17  18
ATOM     18  C   UNL     1      -2.297   4.040  25.063  0.00  0.00    -0.022 A 
ATOM     19  C   UNL     1      -2.148   4.852  25.055  0.00  0.00    -0.004 A 
ATOM     20  C   UNL     1      -1.372   5.130  25.099  0.00  0.00    -0.000 A 
ATOM     21  C   UNL     1      -0.746   4.595  25.151  0.00  0.00    -0.000 A 
ATOM     22  C   UNL     1      -0.896   3.784  25.159  0.00  0.00    -0.000 A 
ATOM     23  C   UNL     1      -1.671   3.507  25.115  0.00  0.00    -0.004 A 
ENDBRANCH  17  18
ENDBRANCH  16  17
ENDBRANCH  15  16
ENDBRANCH  14  15
TORSDOF 5
ENDMDL
MODEL 4
REMARK VINA RESULT:     -11.1      1.468      2.101
REMARK  Name = 
REMARK  5 active torsions:
REMARK  status: ('A' for Active; 'I' for Inactive)
REMARK    1  A    between atoms: C_3  and  C_11
REMARK    2  A    between atoms: N_14  and  C_15
REMARK    3  A    between atoms: C_15  and  C_16
REMARK    4  A    between atoms: C_16  and  C_17
REMARK    5  A    between atoms: C_17  and  C_18
REMARK                            x       y       z     vdW  Elec       q    Type
REMARK                         _______ _______ _______ _____ _____    ______ ____
ROOT
ATOM     11  C   UNL     1      -1.146   1.643  25.218  0.00  0.00    +0.074 C 
ATOM     12  C   UNL     1      -0.513   1.184  24.956  0.00  0.00    +0.026 C 
ATOM     13  C   UNL     1      -0.700   0.391  25.090  0.00  0.00    +0.073 C 
ATOM     14  N   UNL     1      -1.450   0.361  25.434  0.00  0.00    -0.272 NA
ATOM     24  C   UNL     1      -1.726   1.134  25.513  0.00  0.00    +0.080 C 
ENDROOT
BRANCH  11   3
ATOM      1  C   UNL     1       0.060   2.742  24.471  0.00  0.00    +0.132 C 
ATOM      2  N   UNL     1      -0.638   2.972  24.845  0.00  0.00    -0.313 N 
ATOM      3  C   UNL     1      -1.193   2.466  25.189  0.00  0.00    +0.121 A 
ATOM      4  N   UNL     1      -1.802   2.929  25.498  0.00  0.00    -0.231 NA
ATOM      5  C   UNL     1      -1.623   3.719  25.346  0.00  0.00    +0.098 A 
ATOM      6  C   UNL     1      -0.904   3.746  24.943  0.00  0.00    +0.079 A 
ATOM      7  C   UNL     1      -0.585   4.472  24.717  0.00  0.00    +0.019 A 
ATOM      8  C   UNL     1      -0.985   5.172  24.893  0.00  0.00    +0.002 A 
ATOM      9  C   UNL     1      -1.704   5.145  25.296  0.00  0.00    +0.002 A 
ATOM     10  C   UNL     1      -2.024   4.419  25.523  0.00  0.00    +0.021 A 
ENDBRANCH  11   3
BRANCH  14  15
ATOM     15  C   UNL     1      -1.853  -0.323  25.659  0.00  0.00    +0.072 C 
BRANCH  15  16
ATOM     16  C   UNL     1      -2.387  -0.677  25.141  0.00  0.00    +0.022 C 
BRANCH  16  17
ATOM     17  C   UNL     1      -2.942  -1.218  25.426  0.00  0.00    +0.028 C 
BRANCH  17  18
ATOM     18  C   UNL     1      -3.375  -1.680  24.897  0.00  0.00    -0.022 A 
ATOM     19  C   UNL     1      -3.941  -1.327  24.410  0.00  0.00    -0.004 A 
ATOM     20  C   UNL     1      -4.375  -1.789  23.881  0.00  0.00    -0.000 A 
ATOM     21  C   UNL     1      -4.242  -2.602  23.840  0.00  0.00    -0.000 A 
ATOM     22  C   UNL     1      -3.677  -2.954  24.327  0.00  0.00    -0.000 A 
ATOM     23  C   UNL     1      -3.244  -2.492  24.855  0.00  0.00    -0.004 A 
ENDBRANCH  17  18
ENDBRANCH  16  17
ENDBRANCH  15  16
ENDBRANCH  14  15
TORSDOF 5
ENDMDL
MODEL 5
REMARK VINA RESULT:      -8.8      2.497      4.218
REMARK  Name = 
REMARK  5 active torsions:
REMARK  status: ('A' for Active; 'I' for Inactive)
REMARK    1  A    between atoms: C_3  and  C_11
REMARK    2  A    between atoms: N_14  and  C_15
REMARK    3  A    between atoms: C_15  and  C_16
REMARK    4  A    between atoms: C_16  and  C_17
REMARK    5  A    between atoms: C_17  and  C_18
REMARK                            x       y       z     vdW  Elec       q    Type
REMARK                         _______ _______ _______ _____ _____    ______ ____
ROOT
ATOM     11  C   UNL     1      -1.156   2.151  24.931  0.00  0.00    +0.074 C 
ATOM     12  C   UNL     1      -0.868   2.648  25.522  0.00  0.00    +0.026 C 
ATOM     13  C   UNL     1      -1.455   3.201  25.699  0.00  0.00    +0.073 C 
ATOM     14  N   UNL     1      -2.106   3.046  25.217  0.00  0.00    -0.272 NA
ATOM     24  C   UNL     1      -1.922   2.396  24.742  0.00  0.00    +0.080 C 
ENDROOT
BRANCH  11   3
ATOM      1  C   UNL     1      -1.268   0.431  25.430  0.00  0.00    +0.132 C 
ATOM      2  N   UNL     1      -0.803   0.728  24.818  0.00  0.00    -0.313 N 
ATOM      3  C   UNL     1      -0.751   1.519  24.588  0.00  0.00    +0.121 A 
ATOM      4  N   UNL     1      -0.224   1.567  23.956  0.00  0.00    -0.231 NA
ATOM      5  C   UNL     1       0.051   0.807  23.795  0.00  0.00    +0.098 A 
ATOM      6  C   UNL     1      -0.307   0.288  24.328  0.00  0.00    +0.079 A 
ATOM      7  C   UNL     1      -0.135  -0.518  24.297  0.00  0.00    +0.019 A 
ATOM      8  C   UNL     1       0.395  -0.806  23.734  0.00  0.00    +0.002 A 
ATOM      9  C   UNL     1       0.753  -0.287  23.202  0.00  0.00    +0.002 A 
ATOM     10  C   UNL     1       0.581   0.519  23.232  0.00  0.00    +0.021 A 
ENDBRANCH  11   3
BRANCH  14  15
ATOM     15  C   UNL     1      -2.816   3.465  25.210  0.00  0.00    +0.072 C 
BRANCH  15  16
ATOM     16  C   UNL     1      -3.515   3.096  25.444  0.00  0.00    +0.022 C 
BRANCH  16  17
ATOM     17  C   UNL     1      -4.242   3.375  25.169  0.00  0.00    +0.028 C 
BRANCH  17  18
ATOM     18  C   UNL     1      -4.922   2.921  25.270  0.00  0.00    -0.022 A 
ATOM     19  C   UNL     1      -5.367   2.993  25.962  0.00  0.00    -0.004 A 
ATOM     20  C   UNL     1      -6.048   2.539  26.063  0.00  0.00    -0.000 A 
ATOM     21  C   UNL     1      -6.284   2.012  25.474  0.00  0.00    -0.000 A 
ATOM     22  C   UNL     1      -5.840   1.940  24.783  0.00  0.00    -0.000 A 
ATOM     23  C   UNL     1      -5.159   2.394  24.681  0.00  0.00    -0.004 A 
ENDBRANCH  17  18
ENDBRANCH  16  17
ENDBRANCH  15  16
ENDBRANCH  14  15
TORSDOF 5
ENDMDL
