MODEL 1
REMARK VINA RESULT:      -8.5      0.000      0.000
REMARK  Name = 
REMARK  6 active torsions:
REMARK  status: ('A' for Active; 'I' for Inactive)
REMARK    1  A    between atoms: O_2  and  C_3
REMARK    2  A    between atoms: C_6  and  C_11
REMARK    3  A    between atoms: C_7  and  O_8
REMARK    4  A    between atoms: C_20  and  N_26
REMARK    5  A    between atoms: C_29  and  C_30
REMARK    6  A    between atoms: C_33  and  C_34
REMARK                            x       y       z     vdW  Elec       q    Type
REMARK                         _______ _______ _______ _____ _____    ______ ____
ROOT
ATOM     11  C   UNL     1       0.683   0.164  23.528  0.00  0.00    +0.003 A 
ATOM     12  C   UNL     1       0.120   0.765  23.484  0.00  0.00    +0.006 A 
ATOM     13  C   UNL     1      -0.620   0.662  23.835  0.00  0.00    +0.069 A 
ATOM     14  C   UNL     1      -0.796  -0.041  24.229  0.00  0.00    +0.078 A 
ATOM     15  N   UNL     1      -1.494  -0.254  24.613  0.00  0.00    -0.178 NA
ATOM     16  C   UNL     1      -2.189   0.182  24.698  0.00  0.00    +0.264 C 
ATOM     17  O   UNL     1      -2.796  -0.188  25.116  0.00  0.00    -0.271 OA
ATOM     18  C   UNL     1      -2.357   0.941  24.420  0.00  0.00    +0.156 C 
ATOM     19  C   UNL     1      -3.121   1.175  24.626  0.00  0.00    +0.054 C 
ATOM     20  C   UNL     1      -3.399   1.918  24.401  0.00  0.00    +0.111 C 
ATOM     21  C   UNL     1      -2.914   2.427  23.969  0.00  0.00    +0.046 C 
ATOM     22  C   UNL     1      -2.150   2.193  23.763  0.00  0.00    +0.096 C 
ATOM     23  N   UNL     1      -1.872   1.450  23.989  0.00  0.00    -0.269 N 
ATOM     24  C   UNL     1      -1.099   1.325  23.728  0.00  0.00    +0.251 C 
ATOM     25  O   UNL     1      -0.760   1.947  23.305  0.00  0.00    -0.270 OA
ATOM     37  C   UNL     1      -0.232  -0.641  24.272  0.00  0.00    +0.017 A 
ATOM     38  C   UNL     1       0.508  -0.539  23.922  0.00  0.00    +0.001 A 
ENDROOT
BRANCH  11   6
ATOM      3  C   UNL     1       2.903   0.470  22.476  0.00  0.00    +0.142 A 
ATOM      4  C   UNL     1       2.747   0.803  23.215  0.00  0.00    +0.037 A 
ATOM      5  C   UNL     1       2.007   0.700  23.566  0.00  0.00    +0.006 A 
ATOM      6  C   UNL     1       1.423   0.266  23.178  0.00  0.00    +0.034 A 
ATOM      7  C   UNL     1       1.579  -0.066  22.438  0.00  0.00    +0.142 A 
ATOM     10  C   UNL     1       2.319   0.036  22.088  0.00  0.00    +0.074 A 
BRANCH   3   2
ATOM      1  C   UNL     1       4.296   0.763  22.590  0.00  0.00    +0.252 C 
ATOM      2  O   UNL     1       3.643   0.573  22.125  0.00  0.00    -0.471 OA
ENDBRANCH   3   2
BRANCH   7   8
ATOM      8  O   UNL     1       0.995  -0.500  22.050  0.00  0.00    -0.471 OA
ATOM      9  C   UNL     1       1.108  -0.736  21.268  0.00  0.00    +0.252 C 
ENDBRANCH   7   8
ENDBRANCH  11   6
BRANCH  20  26
ATOM     26  N   UNL     1      -4.163   2.153  24.607  0.00  0.00    -0.229 N 
ATOM     27  N   UNL     1      -4.864   1.832  24.313  0.00  0.00    -0.064 NA
ATOM     28  N   UNL     1      -5.494   2.229  24.667  0.00  0.00    -0.124 NA
ATOM     29  C   UNL     1      -5.182   2.796  25.180  0.00  0.00    +0.183 A 
ATOM     33  C   UNL     1      -4.359   2.749  25.143  0.00  0.00    +0.160 A 
BRANCH  29  30
ATOM     30  C   UNL     1      -5.617   3.318  25.647  0.00  0.00    +0.305 C 
ATOM     31  N   UNL     1      -5.905   3.075  26.380  0.00  0.00    -0.082 NA
ATOM     32  O   UNL     1      -5.764   4.086  25.381  0.00  0.00    -0.265 OA
ENDBRANCH  29  30
BRANCH  33  34
ATOM     34  C   UNL     1      -3.826   3.215  25.566  0.00  0.00    +0.303 C 
ATOM     35  N   UNL     1      -3.566   3.932  25.254  0.00  0.00    -0.082 NA
ATOM     36  O   UNL     1      -3.553   2.962  26.303  0.00  0.00    -0.265 OA
ENDBRANCH  33  34
ENDBRANCH  20  26
TORSDOF 6
ENDMDL
MODEL 2
REMARK VINA RESULT:      -6.6      1.712      6.697
REMARK  Name = 
REMARK  6 active torsions:
REMARK  status: ('A' for Active; 'I' for Inactive)
REMARK    1  A    between atoms: O_2  and  C_3
REMARK    2  A    between atoms: C_6  and  C_11
REMARK    3  A    between atoms: C_7  and  O_8
REMARK    4  A    between atoms: C_20  and  N_26
REMARK    5  A    between atoms: C_29  and  C_30
REMARK    6  A    between atoms: C_33  and  C_34
REMARK                            x       y       z     vdW  Elec       q    Type
REMARK                         _______ _______ _______ _____ _____    ______ ____
ROOT
ATOM     11  C   UNL     1      -4.311   2.110  24.661  0.00  0.00    +0.003 A 
ATOM     12  C   UNL     1      -3.574   1.814  24.885  0.00  0.00    +0.006 A 
ATOM     13  C   UNL     1      -2.939   1.848  24.358  0.00  0.00    +0.069 A 
ATOM     14  C   UNL     1      -3.042   2.178  23.609  0.00  0.00    +0.078 A 
ATOM     15  N   UNL     1      -2.486   2.265  23.006  0.00  0.00    -0.178 NA
ATOM     16  C   UNL     1      -1.691   2.044  23.002  0.00  0.00    +0.264 C 
ATOM     17  O   UNL     1      -1.278   2.208  22.307  0.00  0.00    -0.271 OA
ATOM     18  C   UNL     1      -1.256   1.681  23.601  0.00  0.00    +0.156 C 
ATOM     19  C   UNL     1      -0.473   1.554  23.370  0.00  0.00    +0.054 C 
ATOM     20  C   UNL     1       0.056   1.196  23.891  0.00  0.00    +0.111 C 
ATOM     21  C   UNL     1      -0.195   0.964  24.641  0.00  0.00    +0.046 C 
ATOM     22  C   UNL     1      -0.977   1.091  24.872  0.00  0.00    +0.096 C 
ATOM     23  N   UNL     1      -1.507   1.449  24.351  0.00  0.00    -0.269 N 
ATOM     24  C   UNL     1      -2.257   1.524  24.688  0.00  0.00    +0.251 C 
ATOM     25  O   UNL     1      -2.333   1.235  25.458  0.00  0.00    -0.270 OA
ATOM     37  C   UNL     1      -3.779   2.474  23.386  0.00  0.00    +0.017 A 
ATOM     38  C   UNL     1      -4.414   2.441  23.912  0.00  0.00    +0.001 A 
ENDROOT
BRANCH  11   6
ATOM      3  C   UNL     1      -6.215   2.010  26.239  0.00  0.00    +0.142 A 
ATOM      4  C   UNL     1      -5.977   1.330  25.835  0.00  0.00    +0.037 A 
ATOM      5  C   UNL     1      -5.343   1.364  25.310  0.00  0.00    +0.006 A 
ATOM      6  C   UNL     1      -4.946   2.077  25.187  0.00  0.00    +0.034 A 
ATOM      7  C   UNL     1      -5.184   2.757  25.591  0.00  0.00    +0.142 A 
ATOM     10  C   UNL     1      -5.819   2.723  26.116  0.00  0.00    +0.074 A 
BRANCH   3   2
ATOM      1  C   UNL     1      -6.859   1.411  27.365  0.00  0.00    +0.252 C 
ATOM      2  O   UNL     1      -6.850   1.977  26.765  0.00  0.00    -0.471 OA
ENDBRANCH   3   2
BRANCH   7   8
ATOM      8  O   UNL     1      -4.787   3.469  25.468  0.00  0.00    -0.471 OA
ATOM      9  C   UNL     1      -5.074   4.165  25.805  0.00  0.00    +0.252 C 
ENDBRANCH   7   8
ENDBRANCH  11   6
BRANCH  20  26
ATOM     26  N   UNL     1       0.839   1.070  23.660  0.00  0.00    -0.229 N 
ATOM     27  N   UNL     1       1.463   1.601  23.753  0.00  0.00    -0.064 NA
ATOM     28  N   UNL     1       2.144   1.250  23.448  0.00  0.00    -0.124 NA
ATOM     29  C   UNL     1       1.940   0.501  23.166  0.00  0.00    +0.183 A 
ATOM     33  C   UNL     1       1.134   0.390  23.298  0.00  0.00    +0.160 A 
BRANCH  29  30
ATOM     30  C   UNL     1       2.454  -0.040  22.815  0.00  0.00    +0.305 C 
ATOM     31  N   UNL     1       2.629   0.018  22.012  0.00  0.00    -0.082 NA
ATOM     32  O   UNL     1       2.793  -0.642  23.268  0.00  0.00    -0.265 OA
ENDBRANCH  29  30
BRANCH  33  34
ATOM     34  C   UNL     1       0.698  -0.283  23.102  0.00  0.00    +0.303 C 
ATOM     35  N   UNL     1       0.541  -0.854  23.675  0.00  0.00    -0.082 NA
ATOM     36  O   UNL     1       0.420  -0.383  22.331  0.00  0.00    -0.265 OA
ENDBRANCH  33  34
ENDBRANCH  20  26
TORSDOF 6
ENDMDL
MODEL 3
REMARK VINA RESULT:      -5.6     14.766     16.163
REMARK  Name = 
REMARK  6 active torsions:
REMARK  status: ('A' for Active; 'I' for Inactive)
REMARK    1  A    between atoms: O_2  and  C_3
REMARK    2  A    between atoms: C_6  and  C_11
REMARK    3  A    between atoms: C_7  and  O_8
REMARK    4  A    between atoms: C_20  and  N_26
REMARK    5  A    between atoms: C_29  and  C_30
REMARK    6  A    between atoms: C_33  and  C_34
REMARK                            x       y       z     vdW  Elec       q    Type
REMARK                         _______ _______ _______ _____ _____    ______ ____
ROOT
ATOM     11  C   UNL     1      -5.737 -10.044  11.902  0.00  0.00    +0.003 A 
ATOM     12  C   UNL     1      -5.866 -10.037  12.717  0.00  0.00    +0.006 A 
ATOM     13  C   UNL     1      -6.636 -10.069  13.012  0.00  0.00    +0.069 A 
ATOM     14  C   UNL     1      -7.276 -10.108  12.493  0.00  0.00    +0.078 A 
ATOM     15  N   UNL     1      -8.081 -10.144  12.671  0.00  0.00    -0.178 NA
ATOM     16  C   UNL     1      -8.444 -10.149  13.412  0.00  0.00    +0.264 C 
ATOM     17  O   UNL     1      -9.268 -10.188  13.406  0.00  0.00    -0.271 OA
ATOM     18  C   UNL     1      -8.093 -10.120  14.157  0.00  0.00    +0.156 C 
ATOM     19  C   UNL     1      -8.658 -10.137  14.758  0.00  0.00    +0.054 C 
ATOM     20  C   UNL     1      -8.422 -10.112  15.548  0.00  0.00    +0.111 C 
ATOM     21  C   UNL     1      -7.621 -10.071  15.738  0.00  0.00    +0.046 C 
ATOM     22  C   UNL     1      -7.054 -10.054  15.137  0.00  0.00    +0.096 C 
ATOM     23  N   UNL     1      -7.292 -10.078  14.347  0.00  0.00    -0.269 N 
ATOM     24  C   UNL     1      -6.643 -10.056  13.837  0.00  0.00    +0.251 C 
ATOM     25  O   UNL     1      -5.903 -10.014  14.200  0.00  0.00    -0.270 OA
ATOM     37  C   UNL     1      -7.146 -10.116  11.679  0.00  0.00    +0.017 A 
ATOM     38  C   UNL     1      -6.377 -10.084  11.383  0.00  0.00    +0.001 A 
ENDROOT
BRANCH  11   6
ATOM      3  C   UNL     1      -3.429  -9.948  11.014  0.00  0.00    +0.142 A 
ATOM      4  C   UNL     1      -3.681 -10.611  11.437  0.00  0.00    +0.037 A 
ATOM      5  C   UNL     1      -4.450 -10.642  11.733  0.00  0.00    +0.006 A 
ATOM      6  C   UNL     1      -4.968 -10.013  11.606  0.00  0.00    +0.034 A 
ATOM      7  C   UNL     1      -4.715  -9.350  11.183  0.00  0.00    +0.142 A 
ATOM     10  C   UNL     1      -3.946  -9.318  10.887  0.00  0.00    +0.074 A 
BRANCH   3   2
ATOM      1  C   UNL     1      -2.027  -9.777  11.228  0.00  0.00    +0.252 C 
ATOM      2  O   UNL     1      -2.659  -9.916  10.718  0.00  0.00    -0.471 OA
ENDBRANCH   3   2
BRANCH   7   8
ATOM      8  O   UNL     1      -5.233  -8.720  11.057  0.00  0.00    -0.471 OA
ATOM      9  C   UNL     1      -5.002  -8.085  10.583  0.00  0.00    +0.252 C 
ENDBRANCH   7   8
ENDBRANCH  11   6
BRANCH  20  26
ATOM     26  N   UNL     1      -8.987 -10.129  16.149  0.00  0.00    -0.229 N 
ATOM     27  N   UNL     1      -9.445 -10.781  16.365  0.00  0.00    -0.064 NA
ATOM     28  N   UNL     1      -9.935 -10.553  16.988  0.00  0.00    -0.124 NA
ATOM     29  C   UNL     1      -9.779  -9.760  17.157  0.00  0.00    +0.183 A 
ATOM     33  C   UNL     1      -9.194  -9.498  16.638  0.00  0.00    +0.160 A 
BRANCH  29  30
ATOM     30  C   UNL     1     -10.146  -9.309  17.742  0.00  0.00    +0.305 C 
ATOM     31  N   UNL     1      -9.941  -9.413  18.534  0.00  0.00    -0.082 NA
ATOM     32  O   UNL     1     -10.720  -8.752  17.535  0.00  0.00    -0.265 OA
ENDBRANCH  29  30
BRANCH  33  34
ATOM     34  C   UNL     1      -8.872  -8.739  16.613  0.00  0.00    +0.303 C 
ATOM     35  N   UNL     1      -9.250  -8.145  16.184  0.00  0.00    -0.082 NA
ATOM     36  O   UNL     1      -8.171  -8.576  17.016  0.00  0.00    -0.265 OA
ENDBRANCH  33  34
ENDBRANCH  20  26
TORSDOF 6
ENDMDL
MODEL 4
REMARK VINA RESULT:      -5.4      3.183      5.177
REMARK  Name = 
REMARK  6 active torsions:
REMARK  status: ('A' for Active; 'I' for Inactive)
REMARK    1  A    between atoms: O_2  and  C_3
REMARK    2  A    between atoms: C_6  and  C_11
REMARK    3  A    between atoms: C_7  and  O_8
REMARK    4  A    between atoms: C_20  and  N_26
REMARK    5  A    between atoms: C_29  and  C_30
REMARK    6  A    between atoms: C_33  and  C_34
REMARK                            x       y       z     vdW  Elec       q    Type
REMARK                         _______ _______ _______ _____ _____    ______ ____
ROOT
ATOM     11  C   UNL     1      -1.059   3.280  25.429  0.00  0.00    +0.003 A 
ATOM     12  C   UNL     1      -1.486   2.718  25.003  0.00  0.00    +0.006 A 
ATOM     13  C   UNL     1      -1.386   1.914  25.166  0.00  0.00    +0.069 A 
ATOM     14  C   UNL     1      -0.860   1.675  25.754  0.00  0.00    +0.078 A 
ATOM     15  N   UNL     1      -0.679   0.909  26.001  0.00  0.00    -0.178 NA
ATOM     16  C   UNL     1      -0.981   0.193  25.722  0.00  0.00    +0.264 C 
ATOM     17  O   UNL     1      -0.687  -0.486  26.087  0.00  0.00    -0.271 OA
ATOM     18  C   UNL     1      -1.537   0.067  25.126  0.00  0.00    +0.156 C 
ATOM     19  C   UNL     1      -1.687  -0.737  25.018  0.00  0.00    +0.054 C 
ATOM     20  C   UNL     1      -2.228  -0.983  24.447  0.00  0.00    +0.111 C 
ATOM     21  C   UNL     1      -2.621  -0.425  23.984  0.00  0.00    +0.046 C 
ATOM     22  C   UNL     1      -2.472   0.380  24.091  0.00  0.00    +0.096 C 
ATOM     23  N   UNL     1      -1.930   0.625  24.663  0.00  0.00    -0.269 N 
ATOM     24  C   UNL     1      -1.863   1.448  24.680  0.00  0.00    +0.251 C 
ATOM     25  O   UNL     1      -2.334   1.857  24.141  0.00  0.00    -0.270 OA
ATOM     37  C   UNL     1      -0.433   2.238  26.179  0.00  0.00    +0.017 A 
ATOM     38  C   UNL     1      -0.532   3.041  26.017  0.00  0.00    +0.001 A 
ENDROOT
BRANCH  11   6
ATOM      3  C   UNL     1      -1.358   5.688  24.944  0.00  0.00    +0.142 A 
ATOM      4  C   UNL     1      -0.711   5.282  24.632  0.00  0.00    +0.037 A 
ATOM      5  C   UNL     1      -0.611   4.479  24.795  0.00  0.00    +0.006 A 
ATOM      6  C   UNL     1      -1.158   4.083  25.267  0.00  0.00    +0.034 A 
ATOM      7  C   UNL     1      -1.806   4.489  25.579  0.00  0.00    +0.142 A 
ATOM     10  C   UNL     1      -1.906   5.292  25.417  0.00  0.00    +0.074 A 
BRANCH   3   2
ATOM      1  C   UNL     1      -2.041   6.736  24.253  0.00  0.00    +0.252 C 
ATOM      2  O   UNL     1      -1.458   6.491  24.782  0.00  0.00    -0.471 OA
ENDBRANCH   3   2
BRANCH   7   8
ATOM      8  O   UNL     1      -2.353   4.093  26.051  0.00  0.00    -0.471 OA
ATOM      9  C   UNL     1      -3.025   4.486  26.323  0.00  0.00    +0.252 C 
ENDBRANCH   7   8
ENDBRANCH  11   6
BRANCH  20  26
ATOM     26  N   UNL     1      -2.378  -1.787  24.339  0.00  0.00    -0.229 N 
ATOM     27  N   UNL     1      -1.843  -2.344  24.048  0.00  0.00    -0.064 NA
ATOM     28  N   UNL     1      -2.222  -3.077  24.032  0.00  0.00    -0.124 NA
ATOM     29  C   UNL     1      -2.991  -2.972  24.313  0.00  0.00    +0.183 A 
ATOM     33  C   UNL     1      -3.087  -2.175  24.503  0.00  0.00    +0.160 A 
BRANCH  29  30
ATOM     30  C   UNL     1      -3.563  -3.561  24.391  0.00  0.00    +0.305 C 
ATOM     31  N   UNL     1      -4.048  -3.753  23.752  0.00  0.00    -0.082 NA
ATOM     32  O   UNL     1      -3.650  -3.960  25.108  0.00  0.00    -0.265 OA
ENDBRANCH  29  30
BRANCH  33  34
ATOM     34  C   UNL     1      -3.772  -1.827  24.803  0.00  0.00    +0.303 C 
ATOM     35  N   UNL     1      -4.358  -1.558  24.289  0.00  0.00    -0.082 NA
ATOM     36  O   UNL     1      -3.869  -1.747  25.619  0.00  0.00    -0.265 OA
ENDBRANCH  33  34
ENDBRANCH  20  26
TORSDOF 6
ENDMDL
MODEL 5
REMARK VINA RESULT:      -5.0      2.065      6.637
REMARK  Name = 
REMARK  6 active torsions:
REMARK  status: ('A' for Active; 'I' for Inactive)
REMARK    1  A    between atoms: O_2  and  C_3
REMARK    2  A    between atoms: C_6  and  C_11
REMARK    3  A    between atoms: C_7  and  O_8
REMARK    4  A    between atoms: C_20  and  N_26
REMARK    5  A    between atoms: C_29  and  C_30
REMARK    6  A    between atoms: C_33  and  C_34
REMARK                            x       y       z     vdW  Elec       q    Type
REMARK                         _______ _______ _______ _____ _____    ______ ____
ROOT
ATOM     11  C   UNL     1      -3.166   2.410  25.306  0.00  0.00    +0.003 A 
ATOM     12  C   UNL     1      -2.681   2.042  24.750  0.00  0.00    +0.006 A 
ATOM     13  C   UNL     1      -1.860   2.094  24.821  0.00  0.00    +0.069 A 
ATOM     14  C   UNL     1      -1.526   2.514  25.448  0.00  0.00    +0.078 A 
ATOM     15  N   UNL     1      -0.728   2.633  25.620  0.00  0.00    -0.178 NA
ATOM     16  C   UNL     1      -0.067   2.362  25.207  0.00  0.00    +0.264 C 
ATOM     17  O   UNL     1       0.665   2.576  25.523  0.00  0.00    -0.271 OA
ATOM     18  C   UNL     1      -0.041   1.904  24.522  0.00  0.00    +0.156 C 
ATOM     19  C   UNL     1       0.737   1.753  24.289  0.00  0.00    +0.054 C 
ATOM     20  C   UNL     1       0.885   1.303  23.614  0.00  0.00    +0.111 C 
ATOM     21  C   UNL     1       0.258   1.004  23.171  0.00  0.00    +0.046 C 
ATOM     22  C   UNL     1      -0.520   1.155  23.403  0.00  0.00    +0.096 C 
ATOM     23  N   UNL     1      -0.668   1.605  24.078  0.00  0.00    -0.269 N 
ATOM     24  C   UNL     1      -1.479   1.689  24.212  0.00  0.00    +0.251 C 
ATOM     25  O   UNL     1      -1.972   1.321  23.663  0.00  0.00    -0.270 OA
ATOM     37  C   UNL     1      -2.013   2.882  26.003  0.00  0.00    +0.017 A 
ATOM     38  C   UNL     1      -2.833   2.830  25.932  0.00  0.00    +0.001 A 
ENDROOT
BRANCH  11   6
ATOM      3  C   UNL     1      -5.628   2.256  25.093  0.00  0.00    +0.142 A 
ATOM      4  C   UNL     1      -5.192   1.597  25.330  0.00  0.00    +0.037 A 
ATOM      5  C   UNL     1      -4.371   1.648  25.401  0.00  0.00    +0.006 A 
ATOM      6  C   UNL     1      -3.987   2.359  25.235  0.00  0.00    +0.034 A 
ATOM      7  C   UNL     1      -4.423   3.018  24.997  0.00  0.00    +0.142 A 
ATOM     10  C   UNL     1      -5.243   2.967  24.926  0.00  0.00    +0.074 A 
BRANCH   3   2
ATOM      1  C   UNL     1      -6.790   1.550  24.656  0.00  0.00    +0.252 C 
ATOM      2  O   UNL     1      -6.448   2.205  25.022  0.00  0.00    -0.471 OA
ENDBRANCH   3   2
BRANCH   7   8
ATOM      8  O   UNL     1      -4.038   3.729  24.831  0.00  0.00    -0.471 OA
ATOM      9  C   UNL     1      -4.467   4.373  24.546  0.00  0.00    +0.252 C 
ENDBRANCH   7   8
ENDBRANCH  11   6
BRANCH  20  26
ATOM     26  N   UNL     1       1.663   1.152  23.382  0.00  0.00    -0.229 N 
ATOM     27  N   UNL     1       2.292   1.684  23.423  0.00  0.00    -0.064 NA
ATOM     28  N   UNL     1       2.966   1.305  23.134  0.00  0.00    -0.124 NA
ATOM     29  C   UNL     1       2.751   0.538  22.915  0.00  0.00    +0.183 A 
ATOM     33  C   UNL     1       1.947   0.444  23.068  0.00  0.00    +0.160 A 
BRANCH  29  30
ATOM     30  C   UNL     1       3.255  -0.034  22.598  0.00  0.00    +0.305 C 
ATOM     31  N   UNL     1       3.421  -0.036  21.791  0.00  0.00    -0.082 NA
ATOM     32  O   UNL     1       3.593  -0.604  23.091  0.00  0.00    -0.265 OA
ENDBRANCH  29  30
BRANCH  33  34
ATOM     34  C   UNL     1       1.502  -0.238  22.932  0.00  0.00    +0.303 C 
ATOM     35  N   UNL     1       1.205  -0.393  22.179  0.00  0.00    -0.082 NA
ATOM     36  O   UNL     1       1.356  -0.765  23.550  0.00  0.00    -0.265 OA
ENDBRANCH  33  34
ENDBRANCH  20  26
TORSDOF 6
ENDMDL
MODEL 6
REMARK VINA RESULT:      -4.8      2.074      6.447
REMARK  Name = 
REMARK  6 active torsions:
REMARK  status: ('A' for Active; 'I' for Inactive)
REMARK    1  A    between atoms: O_2  and  C_3
REMARK    2  A    between atoms: C_6  and  C_11
REMARK    3  A    between atoms: C_7  and  O_8
REMARK    4  A    between atoms: C_20  and  N_26
REMARK    5  A    between atoms: C_29  and  C_30
REMARK    6  A    between atoms: C_33  and  C_34
REMARK                            x       y       z     vdW  Elec       q    Type
REMARK                         _______ _______ _______ _____ _____    ______ ____
ROOT
ATOM     11  C   UNL     1      -3.325   0.715  24.931  0.00  0.00    +0.003 A 
ATOM     12  C   UNL     1      -2.735   0.918  24.391  0.00  0.00    +0.006 A 
ATOM     13  C   UNL     1      -2.023   0.500  24.382  0.00  0.00    +0.069 A 
ATOM     14  C   UNL     1      -1.902  -0.120  24.913  0.00  0.00    +0.078 A 
ATOM     15  N   UNL     1      -1.239  -0.603  24.995  0.00  0.00    -0.178 NA
ATOM     16  C   UNL     1      -0.533  -0.586  24.568  0.00  0.00    +0.264 C 
ATOM     17  O   UNL     1       0.031  -1.148  24.785  0.00  0.00    -0.271 OA
ATOM     18  C   UNL     1      -0.316  -0.081  23.953  0.00  0.00    +0.156 C 
ATOM     19  C   UNL     1       0.443  -0.251  23.676  0.00  0.00    +0.054 C 
ATOM     20  C   UNL     1       0.765   0.192  23.060  0.00  0.00    +0.111 C 
ATOM     21  C   UNL     1       0.330   0.804  22.720  0.00  0.00    +0.046 C 
ATOM     22  C   UNL     1      -0.429   0.974  22.996  0.00  0.00    +0.096 C 
ATOM     23  N   UNL     1      -0.751   0.531  23.613  0.00  0.00    -0.269 N 
ATOM     24  C   UNL     1      -1.512   0.790  23.804  0.00  0.00    +0.251 C 
ATOM     25  O   UNL     1      -1.797   1.422  23.357  0.00  0.00    -0.270 OA
ATOM     37  C   UNL     1      -2.492  -0.322  25.452  0.00  0.00    +0.017 A 
ATOM     38  C   UNL     1      -3.204   0.095  25.461  0.00  0.00    +0.001 A 
ENDROOT
BRANCH  11   6
ATOM      3  C   UNL     1      -5.460   1.967  24.959  0.00  0.00    +0.142 A 
ATOM      4  C   UNL     1      -5.433   1.204  24.645  0.00  0.00    +0.037 A 
ATOM      5  C   UNL     1      -4.721   0.787  24.636  0.00  0.00    +0.006 A 
ATOM      6  C   UNL     1      -4.037   1.132  24.940  0.00  0.00    +0.034 A 
ATOM      7  C   UNL     1      -4.063   1.895  25.254  0.00  0.00    +0.142 A 
ATOM     10  C   UNL     1      -4.775   2.312  25.263  0.00  0.00    +0.074 A 
BRANCH   3   2
ATOM      1  C   UNL     1      -6.888   1.977  24.959  0.00  0.00    +0.252 C 
ATOM      2  O   UNL     1      -6.171   2.384  24.968  0.00  0.00    -0.471 OA
ENDBRANCH   3   2
BRANCH   7   8
ATOM      8  O   UNL     1      -3.379   2.240  25.557  0.00  0.00    -0.471 OA
ATOM      9  C   UNL     1      -3.394   3.020  25.827  0.00  0.00    +0.252 C 
ENDBRANCH   7   8
ENDBRANCH  11   6
BRANCH  20  26
ATOM     26  N   UNL     1       1.524   0.022  22.784  0.00  0.00    -0.229 N 
ATOM     27  N   UNL     1       1.731  -0.608  22.293  0.00  0.00    -0.064 NA
ATOM     28  N   UNL     1       2.544  -0.568  22.155  0.00  0.00    -0.124 NA
ATOM     29  C   UNL     1       2.838   0.088  22.561  0.00  0.00    +0.183 A 
ATOM     33  C   UNL     1       2.208   0.452  22.949  0.00  0.00    +0.160 A 
BRANCH  29  30
ATOM     30  C   UNL     1       3.625   0.335  22.575  0.00  0.00    +0.305 C 
ATOM     31  N   UNL     1       4.148   0.019  23.128  0.00  0.00    -0.082 NA
ATOM     32  O   UNL     1       3.890   0.901  22.034  0.00  0.00    -0.265 OA
ENDBRANCH  29  30
BRANCH  33  34
ATOM     34  C   UNL     1       2.254   1.128  23.420  0.00  0.00    +0.303 C 
ATOM     35  N   UNL     1       2.230   1.875  23.073  0.00  0.00    -0.082 NA
ATOM     36  O   UNL     1       2.322   1.055  24.240  0.00  0.00    -0.265 OA
ENDBRANCH  33  34
ENDBRANCH  20  26
TORSDOF 6
ENDMDL
MODEL 7
REMARK VINA RESULT:      -4.8      1.364      2.050
REMARK  Name = 
REMARK  6 active torsions:
REMARK  status: ('A' for Active; 'I' for Inactive)
REMARK    1  A    between atoms: O_2  and  C_3
REMARK    2  A    between atoms: C_6  and  C_11
REMARK    3  A    between atoms: C_7  and  O_8
REMARK    4  A    between atoms: C_20  and  N_26
REMARK    5  A    between atoms: C_29  and  C_30
REMARK    6  A    between atoms: C_33  and  C_34
REMARK                            x       y       z     vdW  Elec       q    Type
REMARK                         _______ _______ _______ _____ _____    ______ ____
ROOT
ATOM     11  C   UNL     1       2.273   0.301  22.976  0.00  0.00    +0.003 A 
ATOM     12  C   UNL     1       1.828   0.757  23.500  0.00  0.00    +0.006 A 
ATOM     13  C   UNL     1       1.003   0.711  23.487  0.00  0.00    +0.069 A 
ATOM     14  C   UNL     1       0.626   0.209  22.952  0.00  0.00    +0.078 A 
ATOM     15  N   UNL     1      -0.183   0.081  22.850  0.00  0.00    -0.178 NA
ATOM     16  C   UNL     1      -0.814   0.424  23.257  0.00  0.00    +0.264 C 
ATOM     17  O   UNL     1      -1.566   0.179  23.023  0.00  0.00    -0.271 OA
ATOM     18  C   UNL     1      -0.791   0.978  23.867  0.00  0.00    +0.156 C 
ATOM     19  C   UNL     1      -1.551   1.177  24.122  0.00  0.00    +0.054 C 
ATOM     20  C   UNL     1      -1.651   1.725  24.730  0.00  0.00    +0.111 C 
ATOM     21  C   UNL     1      -0.994   2.074  25.084  0.00  0.00    +0.046 C 
ATOM     22  C   UNL     1      -0.234   1.876  24.829  0.00  0.00    +0.096 C 
ATOM     23  N   UNL     1      -0.134   1.328  24.221  0.00  0.00    -0.269 N 
ATOM     24  C   UNL     1       0.666   1.209  24.052  0.00  0.00    +0.251 C 
ATOM     25  O   UNL     1       1.197   1.645  24.508  0.00  0.00    -0.270 OA
ATOM     37  C   UNL     1       1.072  -0.247  22.429  0.00  0.00    +0.017 A 
ATOM     38  C   UNL     1       1.896  -0.201  22.441  0.00  0.00    +0.001 A 
ENDROOT
BRANCH  11   6
ATOM      3  C   UNL     1       4.744   0.437  23.011  0.00  0.00    +0.142 A 
ATOM      4  C   UNL     1       4.299   1.079  22.744  0.00  0.00    +0.037 A 
ATOM      5  C   UNL     1       3.475   1.033  22.732  0.00  0.00    +0.006 A 
ATOM      6  C   UNL     1       3.097   0.347  22.988  0.00  0.00    +0.034 A 
ATOM      7  C   UNL     1       3.542  -0.295  23.255  0.00  0.00    +0.142 A 
ATOM     10  C   UNL     1       4.365  -0.249  23.267  0.00  0.00    +0.074 A 
BRANCH   3   2
ATOM      1  C   UNL     1       5.971   0.474  23.742  0.00  0.00    +0.252 C 
ATOM      2  O   UNL     1       5.568   0.483  23.023  0.00  0.00    -0.471 OA
ENDBRANCH   3   2
BRANCH   7   8
ATOM      8  O   UNL     1       3.163  -0.982  23.511  0.00  0.00    -0.471 OA
ATOM      9  C   UNL     1       3.606  -1.612  23.807  0.00  0.00    +0.252 C 
ENDBRANCH   7   8
ENDBRANCH  11   6
BRANCH  20  26
ATOM     26  N   UNL     1      -2.411   1.924  24.985  0.00  0.00    -0.229 N 
ATOM     27  N   UNL     1      -2.911   1.446  25.434  0.00  0.00    -0.064 NA
ATOM     28  N   UNL     1      -3.613   1.861  25.562  0.00  0.00    -0.124 NA
ATOM     29  C   UNL     1      -3.545   2.596  25.191  0.00  0.00    +0.183 A 
ATOM     33  C   UNL     1      -2.802   2.634  24.835  0.00  0.00    +0.160 A 
BRANCH  29  30
ATOM     30  C   UNL     1      -4.120   3.187  25.180  0.00  0.00    +0.305 C 
ATOM     31  N   UNL     1      -4.178   3.718  25.808  0.00  0.00    -0.082 NA
ATOM     32  O   UNL     1      -4.637   3.248  24.540  0.00  0.00    -0.265 OA
ENDBRANCH  29  30
BRANCH  33  34
ATOM     34  C   UNL     1      -2.503   3.271  24.403  0.00  0.00    +0.303 C 
ATOM     35  N   UNL     1      -2.094   3.874  24.789  0.00  0.00    -0.082 NA
ATOM     36  O   UNL     1      -2.613   3.303  23.586  0.00  0.00    -0.265 OA
ENDBRANCH  33  34
ENDBRANCH  20  26
TORSDOF 6
ENDMDL
