MODEL 1
REMARK VINA RESULT:     -12.5      0.000      0.000
REMARK  Name = 
REMARK  6 active torsions:
REMARK  status: ('A' for Active; 'I' for Inactive)
REMARK    1  A    between atoms: O_2  and  C_3
REMARK    2  A    between atoms: C_3  and  C_5
REMARK    3  A    between atoms: C_18  and  N_29
REMARK    4  A    between atoms: C_20  and  C_22
REMARK    5  A    between atoms: N_29  and  C_30
REMARK    6  A    between atoms: C_30  and  C_31
REMARK                            x       y       z     vdW  Elec       q    Type
REMARK                         _______ _______ _______ _____ _____    ______ ____
ROOT
ATOM      5  C   UNL     1      -2.901   1.677  24.804  0.00  0.00    +0.162 C 
ATOM      6  C   UNL     1      -2.881   2.489  24.950  0.00  0.00    +0.055 C 
ATOM      7  C   UNL     1      -2.167   2.899  24.898  0.00  0.00    -0.004 A 
ATOM      8  C   UNL     1      -1.473   2.499  24.700  0.00  0.00    +0.070 A 
ATOM      9  N   UNL     1      -0.857   3.046  24.691  0.00  0.00    -0.249 NA
ATOM     10  C   UNL     1      -1.168   3.786  24.883  0.00  0.00    +0.081 A 
ATOM     11  C   UNL     1      -1.979   3.695  25.011  0.00  0.00    +0.015 A 
ATOM     12  C   UNL     1      -2.440   4.348  25.213  0.00  0.00    +0.001 A 
ATOM     13  C   UNL     1      -2.091   5.093  25.288  0.00  0.00    +0.000 A 
ATOM     14  C   UNL     1      -1.280   5.183  25.159  0.00  0.00    +0.002 A 
ATOM     15  C   UNL     1      -0.819   4.529  24.957  0.00  0.00    +0.019 A 
ATOM     16  C   UNL     1      -1.494   1.687  24.555  0.00  0.00    +0.100 C 
ATOM     17  C   UNL     1      -0.801   1.285  24.357  0.00  0.00    +0.040 C 
ATOM     18  C   UNL     1      -0.821   0.474  24.212  0.00  0.00    +0.076 C 
ATOM     19  C   UNL     1      -1.535   0.063  24.264  0.00  0.00    +0.038 C 
ATOM     20  C   UNL     1      -2.228   0.465  24.461  0.00  0.00    +0.084 C 
ATOM     21  N   UNL     1      -2.207   1.276  24.607  0.00  0.00    -0.258 NA
ENDROOT
BRANCH  20  22
ATOM     22  C   UNL     1      -2.941   0.053  24.513  0.00  0.00    +0.020 A 
ATOM     23  C   UNL     1      -3.226  -0.189  25.248  0.00  0.00    -0.001 A 
ATOM     24  C   UNL     1      -3.939  -0.600  25.299  0.00  0.00    -0.000 A 
ATOM     25  C   UNL     1      -4.368  -0.769  24.614  0.00  0.00    +0.002 A 
ATOM     26  C   UNL     1      -4.084  -0.527  23.879  0.00  0.00    +0.029 A 
ATOM     27  C   UNL     1      -3.370  -0.115  23.828  0.00  0.00    +0.137 A 
ATOM     28  F   UNL     1      -3.509  -0.100  22.969  0.00  0.00    -0.204 F 
ENDBRANCH  20  22
BRANCH   5   3
ATOM      3  C   UNL     1      -3.789   1.515  24.933  0.00  0.00    +0.332 C 
ATOM      4  O   UNL     1      -4.473   1.111  25.583  0.00  0.00    -0.249 OA
BRANCH   3   2
ATOM      1  C   UNL     1      -5.285   2.146  24.743  0.00  0.00    +0.256 C 
ATOM      2  O   UNL     1      -4.659   1.597  24.579  0.00  0.00    -0.443 OA
ENDBRANCH   3   2
ENDBRANCH   5   3
BRANCH  18  29
ATOM     29  N   UNL     1      -0.080   0.073  24.006  0.00  0.00    -0.217 NA
BRANCH  29  30
ATOM     30  C   UNL     1       0.377   0.047  23.277  0.00  0.00    +0.124 C 
BRANCH  30  31
ATOM     31  C   UNL     1       1.164  -0.222  23.085  0.00  0.00    +0.201 C 
ATOM     32  O   UNL     1       1.487  -0.169  22.303  0.00  0.00    -0.219 OA
ENDBRANCH  30  31
ENDBRANCH  29  30
ENDBRANCH  18  29
TORSDOF 6
ENDMDL
MODEL 2
REMARK VINA RESULT:     -12.5      1.985      4.018
REMARK  Name = 
REMARK  6 active torsions:
REMARK  status: ('A' for Active; 'I' for Inactive)
REMARK    1  A    between atoms: O_2  and  C_3
REMARK    2  A    between atoms: C_3  and  C_5
REMARK    3  A    between atoms: C_18  and  N_29
REMARK    4  A    between atoms: C_20  and  C_22
REMARK    5  A    between atoms: N_29  and  C_30
REMARK    6  A    between atoms: C_30  and  C_31
REMARK                            x       y       z     vdW  Elec       q    Type
REMARK                         _______ _______ _______ _____ _____    ______ ____
ROOT
ATOM      5  C   UNL     1      -3.863   1.320  24.679  0.00  0.00    +0.162 C 
ATOM      6  C   UNL     1      -4.098   0.540  24.550  0.00  0.00    +0.055 C 
ATOM      7  C   UNL     1      -3.543  -0.069  24.584  0.00  0.00    -0.004 A 
ATOM      8  C   UNL     1      -2.752   0.102  24.747  0.00  0.00    +0.070 A 
ATOM      9  N   UNL     1      -2.332  -0.608  24.745  0.00  0.00    -0.249 NA
ATOM     10  C   UNL     1      -2.862  -1.218  24.580  0.00  0.00    +0.081 A 
ATOM     11  C   UNL     1      -3.611  -0.884  24.480  0.00  0.00    +0.015 A 
ATOM     12  C   UNL     1      -4.258  -1.367  24.308  0.00  0.00    +0.001 A 
ATOM     13  C   UNL     1      -4.156  -2.183  24.236  0.00  0.00    +0.000 A 
ATOM     14  C   UNL     1      -3.407  -2.516  24.336  0.00  0.00    +0.002 A 
ATOM     15  C   UNL     1      -2.761  -2.034  24.508  0.00  0.00    +0.019 A 
ATOM     16  C   UNL     1      -2.517   0.882  24.877  0.00  0.00    +0.100 C 
ATOM     17  C   UNL     1      -1.728   1.054  25.041  0.00  0.00    +0.040 C 
ATOM     18  C   UNL     1      -1.493   1.833  25.171  0.00  0.00    +0.076 C 
ATOM     19  C   UNL     1      -2.049   2.443  25.137  0.00  0.00    +0.038 C 
ATOM     20  C   UNL     1      -2.838   2.271  24.973  0.00  0.00    +0.084 C 
ATOM     21  N   UNL     1      -3.073   1.491  24.843  0.00  0.00    -0.258 NA
ENDROOT
BRANCH  20  22
ATOM     22  C   UNL     1      -3.394   2.881  24.939  0.00  0.00    +0.020 A 
ATOM     23  C   UNL     1      -3.645   3.170  24.209  0.00  0.00    -0.001 A 
ATOM     24  C   UNL     1      -4.200   3.779  24.176  0.00  0.00    -0.000 A 
ATOM     25  C   UNL     1      -4.503   4.100  24.874  0.00  0.00    +0.002 A 
ATOM     26  C   UNL     1      -4.252   3.811  25.604  0.00  0.00    +0.029 A 
ATOM     27  C   UNL     1      -3.696   3.201  25.637  0.00  0.00    +0.137 A 
ATOM     28  F   UNL     1      -3.767   3.263  26.502  0.00  0.00    -0.204 F 
ENDBRANCH  20  22
BRANCH   5   3
ATOM      3  C   UNL     1      -4.663   1.746  24.580  0.00  0.00    +0.332 C 
ATOM      4  O   UNL     1      -5.231   2.307  23.934  0.00  0.00    -0.249 OA
BRANCH   3   2
ATOM      1  C   UNL     1      -6.258   1.605  24.913  0.00  0.00    +0.256 C 
ATOM      2  O   UNL     1      -5.491   1.961  24.979  0.00  0.00    -0.443 OA
ENDBRANCH   3   2
ENDBRANCH   5   3
BRANCH  18  29
ATOM     29  N   UNL     1      -0.657   1.989  25.341  0.00  0.00    -0.217 NA
BRANCH  29  30
ATOM     30  C   UNL     1      -0.253   2.240  26.058  0.00  0.00    +0.124 C 
BRANCH  30  31
ATOM     31  C   UNL     1       0.505   2.602  26.211  0.00  0.00    +0.201 C 
ATOM     32  O   UNL     1       0.860   2.612  26.981  0.00  0.00    -0.219 OA
ENDBRANCH  30  31
ENDBRANCH  29  30
ENDBRANCH  18  29
TORSDOF 6
ENDMDL
MODEL 3
REMARK VINA RESULT:     -12.4      1.741      3.716
REMARK  Name = 
REMARK  6 active torsions:
REMARK  status: ('A' for Active; 'I' for Inactive)
REMARK    1  A    between atoms: O_2  and  C_3
REMARK    2  A    between atoms: C_3  and  C_5
REMARK    3  A    between atoms: C_18  and  N_29
REMARK    4  A    between atoms: C_20  and  C_22
REMARK    5  A    between atoms: N_29  and  C_30
REMARK    6  A    between atoms: C_30  and  C_31
REMARK                            x       y       z     vdW  Elec       q    Type
REMARK                         _______ _______ _______ _____ _____    ______ ____
ROOT
ATOM      5  C   UNL     1      -2.116  -0.110  24.702  0.00  0.00    +0.162 C 
ATOM      6  C   UNL     1      -1.422   0.327  24.623  0.00  0.00    +0.055 C 
ATOM      7  C   UNL     1      -1.455   1.151  24.581  0.00  0.00    -0.004 A 
ATOM      8  C   UNL     1      -2.183   1.537  24.619  0.00  0.00    +0.070 A 
ATOM      9  N   UNL     1      -2.045   2.348  24.565  0.00  0.00    -0.249 NA
ATOM     10  C   UNL     1      -1.231   2.465  24.493  0.00  0.00    +0.081 A 
ATOM     11  C   UNL     1      -0.867   1.724  24.503  0.00  0.00    +0.015 A 
ATOM     12  C   UNL     1      -0.046   1.667  24.439  0.00  0.00    +0.001 A 
ATOM     13  C   UNL     1       0.410   2.351  24.366  0.00  0.00    +0.000 A 
ATOM     14  C   UNL     1       0.045   3.092  24.356  0.00  0.00    +0.002 A 
ATOM     15  C   UNL     1      -0.775   3.148  24.419  0.00  0.00    +0.019 A 
ATOM     16  C   UNL     1      -2.878   1.100  24.699  0.00  0.00    +0.100 C 
ATOM     17  C   UNL     1      -3.607   1.484  24.737  0.00  0.00    +0.040 C 
ATOM     18  C   UNL     1      -4.301   1.047  24.817  0.00  0.00    +0.076 C 
ATOM     19  C   UNL     1      -4.267   0.224  24.859  0.00  0.00    +0.038 C 
ATOM     20  C   UNL     1      -3.539  -0.161  24.820  0.00  0.00    +0.084 C 
ATOM     21  N   UNL     1      -2.845   0.276  24.741  0.00  0.00    -0.258 NA
ENDROOT
BRANCH  20  22
ATOM     22  C   UNL     1      -3.507  -0.985  24.862  0.00  0.00    +0.020 A 
ATOM     23  C   UNL     1      -3.448  -1.431  24.171  0.00  0.00    -0.001 A 
ATOM     24  C   UNL     1      -3.416  -2.254  24.214  0.00  0.00    -0.000 A 
ATOM     25  C   UNL     1      -3.442  -2.631  24.948  0.00  0.00    +0.002 A 
ATOM     26  C   UNL     1      -3.500  -2.185  25.638  0.00  0.00    +0.029 A 
ATOM     27  C   UNL     1      -3.533  -1.361  25.596  0.00  0.00    +0.137 A 
ATOM     28  F   UNL     1      -3.582  -1.378  26.465  0.00  0.00    -0.204 F 
ENDBRANCH  20  22
BRANCH   5   3
ATOM      3  C   UNL     1      -1.772  -0.953  24.720  0.00  0.00    +0.332 C 
ATOM      4  O   UNL     1      -1.641  -1.809  24.167  0.00  0.00    -0.249 OA
BRANCH   3   2
ATOM      1  C   UNL     1      -0.497  -1.813  25.276  0.00  0.00    +0.256 C 
ATOM      2  O   UNL     1      -1.318  -1.603  25.231  0.00  0.00    -0.443 OA
ENDBRANCH   3   2
ENDBRANCH   5   3
BRANCH  18  29
ATOM     29  N   UNL     1      -5.055   1.474  24.855  0.00  0.00    -0.217 NA
BRANCH  29  30
ATOM     30  C   UNL     1      -5.478   1.838  25.510  0.00  0.00    +0.124 C 
BRANCH  30  31
ATOM     31  C   UNL     1      -6.015   2.499  25.570  0.00  0.00    +0.201 C 
ATOM     32  O   UNL     1      -6.086   2.968  26.272  0.00  0.00    -0.219 OA
ENDBRANCH  30  31
ENDBRANCH  29  30
ENDBRANCH  18  29
TORSDOF 6
ENDMDL
MODEL 4
REMARK VINA RESULT:     -12.4      1.717      5.018
REMARK  Name = 
REMARK  6 active torsions:
REMARK  status: ('A' for Active; 'I' for Inactive)
REMARK    1  A    between atoms: O_2  and  C_3
REMARK    2  A    between atoms: C_3  and  C_5
REMARK    3  A    between atoms: C_18  and  N_29
REMARK    4  A    between atoms: C_20  and  C_22
REMARK    5  A    between atoms: N_29  and  C_30
REMARK    6  A    between atoms: C_30  and  C_31
REMARK                            x       y       z     vdW  Elec       q    Type
REMARK                         _______ _______ _______ _____ _____    ______ ____
ROOT
ATOM      5  C   UNL     1      -2.024   0.656  24.679  0.00  0.00    +0.162 C 
ATOM      6  C   UNL     1      -2.132  -0.154  24.572  0.00  0.00    +0.055 C 
ATOM      7  C   UNL     1      -2.894  -0.462  24.497  0.00  0.00    -0.004 A 
ATOM      8  C   UNL     1      -3.548   0.040  24.530  0.00  0.00    +0.070 A 
ATOM      9  N   UNL     1      -4.227  -0.419  24.440  0.00  0.00    -0.249 NA
ATOM     10  C   UNL     1      -3.995  -1.205  24.352  0.00  0.00    +0.081 A 
ATOM     11  C   UNL     1      -3.170  -1.232  24.387  0.00  0.00    +0.015 A 
ATOM     12  C   UNL     1      -2.778  -1.954  24.315  0.00  0.00    +0.001 A 
ATOM     13  C   UNL     1      -3.209  -2.650  24.207  0.00  0.00    +0.000 A 
ATOM     14  C   UNL     1      -4.034  -2.622  24.171  0.00  0.00    +0.002 A 
ATOM     15  C   UNL     1      -4.426  -1.900  24.244  0.00  0.00    +0.019 A 
ATOM     16  C   UNL     1      -3.439   0.851  24.638  0.00  0.00    +0.100 C 
ATOM     17  C   UNL     1      -4.092   1.354  24.670  0.00  0.00    +0.040 C 
ATOM     18  C   UNL     1      -3.983   2.165  24.778  0.00  0.00    +0.076 C 
ATOM     19  C   UNL     1      -3.221   2.472  24.852  0.00  0.00    +0.038 C 
ATOM     20  C   UNL     1      -2.569   1.969  24.819  0.00  0.00    +0.084 C 
ATOM     21  N   UNL     1      -2.677   1.159  24.712  0.00  0.00    -0.258 NA
ENDROOT
BRANCH  20  22
ATOM     22  C   UNL     1      -1.807   2.278  24.894  0.00  0.00    +0.020 A 
ATOM     23  C   UNL     1      -1.409   2.226  25.614  0.00  0.00    -0.001 A 
ATOM     24  C   UNL     1      -0.648   2.535  25.688  0.00  0.00    -0.000 A 
ATOM     25  C   UNL     1      -0.284   2.896  25.041  0.00  0.00    +0.002 A 
ATOM     26  C   UNL     1      -0.682   2.948  24.321  0.00  0.00    +0.029 A 
ATOM     27  C   UNL     1      -1.444   2.639  24.247  0.00  0.00    +0.137 A 
ATOM     28  F   UNL     1      -1.410   2.912  23.422  0.00  0.00    -0.204 F 
ENDBRANCH  20  22
BRANCH   5   3
ATOM      3  C   UNL     1      -1.114   0.690  24.727  0.00  0.00    +0.332 C 
ATOM      4  O   UNL     1      -0.319   0.778  25.370  0.00  0.00    -0.249 OA
BRANCH   3   2
ATOM      1  C   UNL     1       0.195   0.026  24.007  0.00  0.00    +0.256 C 
ATOM      2  O   UNL     1      -0.304   0.670  24.244  0.00  0.00    -0.443 OA
ENDBRANCH   3   2
ENDBRANCH   5   3
BRANCH  18  29
ATOM     29  N   UNL     1      -4.684   2.674  24.809  0.00  0.00    -0.217 NA
BRANCH  29  30
ATOM     30  C   UNL     1      -5.044   3.120  25.451  0.00  0.00    +0.124 C 
BRANCH  30  31
ATOM     31  C   UNL     1      -5.819   3.456  25.573  0.00  0.00    +0.201 C 
ATOM     32  O   UNL     1      -5.937   4.272  25.772  0.00  0.00    -0.219 OA
ENDBRANCH  30  31
ENDBRANCH  29  30
ENDBRANCH  18  29
TORSDOF 6
ENDMDL
MODEL 5
REMARK VINA RESULT:     -11.4      1.652      3.511
REMARK  Name = 
REMARK  6 active torsions:
REMARK  status: ('A' for Active; 'I' for Inactive)
REMARK    1  A    between atoms: O_2  and  C_3
REMARK    2  A    between atoms: C_3  and  C_5
REMARK    3  A    between atoms: C_18  and  N_29
REMARK    4  A    between atoms: C_20  and  C_22
REMARK    5  A    between atoms: N_29  and  C_30
REMARK    6  A    between atoms: C_30  and  C_31
REMARK                            x       y       z     vdW  Elec       q    Type
REMARK                         _______ _______ _______ _____ _____    ______ ____
ROOT
ATOM      5  C   UNL     1      -2.846   0.363  25.001  0.00  0.00    +0.162 C 
ATOM      6  C   UNL     1      -3.667   0.445  25.002  0.00  0.00    +0.055 C 
ATOM      7  C   UNL     1      -4.006   1.197  25.006  0.00  0.00    -0.004 A 
ATOM      8  C   UNL     1      -3.524   1.867  25.010  0.00  0.00    +0.070 A 
ATOM      9  N   UNL     1      -4.012   2.532  25.014  0.00  0.00    -0.249 NA
ATOM     10  C   UNL     1      -4.796   2.274  25.013  0.00  0.00    +0.081 A 
ATOM     11  C   UNL     1      -4.792   1.448  25.008  0.00  0.00    +0.015 A 
ATOM     12  C   UNL     1      -5.504   1.032  25.006  0.00  0.00    +0.001 A 
ATOM     13  C   UNL     1      -6.221   1.442  25.008  0.00  0.00    +0.000 A 
ATOM     14  C   UNL     1      -6.225   2.267  25.013  0.00  0.00    +0.002 A 
ATOM     15  C   UNL     1      -5.512   2.683  25.015  0.00  0.00    +0.019 A 
ATOM     16  C   UNL     1      -2.703   1.785  25.009  0.00  0.00    +0.100 C 
ATOM     17  C   UNL     1      -2.221   2.454  25.013  0.00  0.00    +0.040 C 
ATOM     18  C   UNL     1      -1.401   2.371  25.012  0.00  0.00    +0.076 C 
ATOM     19  C   UNL     1      -1.062   1.619  25.008  0.00  0.00    +0.038 C 
ATOM     20  C   UNL     1      -1.544   0.950  25.004  0.00  0.00    +0.084 C 
ATOM     21  N   UNL     1      -2.364   1.032  25.005  0.00  0.00    -0.258 NA
ENDROOT
BRANCH  20  22
ATOM     22  C   UNL     1      -1.204   0.198  25.000  0.00  0.00    +0.020 A 
ATOM     23  C   UNL     1      -1.183  -0.250  25.692  0.00  0.00    -0.001 A 
ATOM     24  C   UNL     1      -0.843  -1.001  25.687  0.00  0.00    -0.000 A 
ATOM     25  C   UNL     1      -0.524  -1.305  24.989  0.00  0.00    +0.002 A 
ATOM     26  C   UNL     1      -0.545  -0.858  24.297  0.00  0.00    +0.029 A 
ATOM     27  C   UNL     1      -0.885  -0.106  24.302  0.00  0.00    +0.137 A 
ATOM     28  F   UNL     1      -0.681  -0.072  23.457  0.00  0.00    -0.204 F 
ENDBRANCH  20  22
BRANCH   5   3
ATOM      3  C   UNL     1      -2.777  -0.546  24.996  0.00  0.00    +0.332 C 
ATOM      4  O   UNL     1      -2.590  -1.368  25.583  0.00  0.00    -0.249 OA
BRANCH   3   2
ATOM      1  C   UNL     1      -3.445  -1.905  24.377  0.00  0.00    +0.256 C 
ATOM      2  O   UNL     1      -2.827  -1.332  24.477  0.00  0.00    -0.443 OA
ENDBRANCH   3   2
ENDBRANCH   5   3
BRANCH  18  29
ATOM     29  N   UNL     1      -0.914   3.089  25.016  0.00  0.00    -0.217 NA
BRANCH  29  30
ATOM     30  C   UNL     1      -1.112   3.918  25.134  0.00  0.00    +0.124 C 
BRANCH  30  31
ATOM     31  C   UNL     1      -0.693   4.649  24.997  0.00  0.00    +0.201 C 
ATOM     32  O   UNL     1      -1.071   5.407  25.035  0.00  0.00    -0.219 OA
ENDBRANCH  30  31
ENDBRANCH  29  30
ENDBRANCH  18  29
TORSDOF 6
ENDMDL
MODEL 6
REMARK VINA RESULT:     -11.3      1.898      3.627
REMARK  Name = 
REMARK  6 active torsions:
REMARK  status: ('A' for Active; 'I' for Inactive)
REMARK    1  A    between atoms: O_2  and  C_3
REMARK    2  A    between atoms: C_3  and  C_5
REMARK    3  A    between atoms: C_18  and  N_29
REMARK    4  A    between atoms: C_20  and  C_22
REMARK    5  A    between atoms: N_29  and  C_30
REMARK    6  A    between atoms: C_30  and  C_31
REMARK                            x       y       z     vdW  Elec       q    Type
REMARK                         _______ _______ _______ _____ _____    ______ ____
ROOT
ATOM      5  C   UNL     1      -2.472   2.270  25.142  0.00  0.00    +0.162 C 
ATOM      6  C   UNL     1      -3.181   2.673  25.262  0.00  0.00    +0.055 C 
ATOM      7  C   UNL     1      -3.900   2.276  25.183  0.00  0.00    -0.004 A 
ATOM      8  C   UNL     1      -3.910   1.476  24.983  0.00  0.00    +0.070 A 
ATOM      9  N   UNL     1      -4.697   1.232  24.944  0.00  0.00    -0.249 NA
ATOM     10  C   UNL     1      -5.175   1.881  25.120  0.00  0.00    +0.081 A 
ATOM     11  C   UNL     1      -4.681   2.527  25.268  0.00  0.00    +0.015 A 
ATOM     12  C   UNL     1      -5.008   3.260  25.461  0.00  0.00    +0.001 A 
ATOM     13  C   UNL     1      -5.828   3.347  25.506  0.00  0.00    +0.000 A 
ATOM     14  C   UNL     1      -6.320   2.701  25.358  0.00  0.00    +0.002 A 
ATOM     15  C   UNL     1      -5.993   1.969  25.165  0.00  0.00    +0.019 A 
ATOM     16  C   UNL     1      -3.200   1.072  24.862  0.00  0.00    +0.100 C 
ATOM     17  C   UNL     1      -3.209   0.273  24.662  0.00  0.00    +0.040 C 
ATOM     18  C   UNL     1      -2.500  -0.130  24.541  0.00  0.00    +0.076 C 
ATOM     19  C   UNL     1      -1.781   0.267  24.620  0.00  0.00    +0.038 C 
ATOM     20  C   UNL     1      -1.772   1.067  24.820  0.00  0.00    +0.084 C 
ATOM     21  N   UNL     1      -2.481   1.470  24.941  0.00  0.00    -0.258 NA
ENDROOT
BRANCH  20  22
ATOM     22  C   UNL     1      -1.053   1.463  24.899  0.00  0.00    +0.020 A 
ATOM     23  C   UNL     1      -0.744   1.612  25.649  0.00  0.00    -0.001 A 
ATOM     24  C   UNL     1      -0.024   2.008  25.727  0.00  0.00    -0.000 A 
ATOM     25  C   UNL     1       0.386   2.256  25.055  0.00  0.00    +0.002 A 
ATOM     26  C   UNL     1       0.077   2.107  24.305  0.00  0.00    +0.029 A 
ATOM     27  C   UNL     1      -0.643   1.711  24.227  0.00  0.00    +0.137 A 
ATOM     28  F   UNL     1      -0.530   1.799  23.369  0.00  0.00    -0.204 F 
ENDBRANCH  20  22
BRANCH   5   3
ATOM      3  C   UNL     1      -1.878   2.944  25.294  0.00  0.00    +0.332 C 
ATOM      4  O   UNL     1      -1.216   3.329  25.978  0.00  0.00    -0.249 OA
BRANCH   3   2
ATOM      1  C   UNL     1      -1.604   4.546  25.108  0.00  0.00    +0.256 C 
ATOM      2  O   UNL     1      -1.472   3.723  24.949  0.00  0.00    -0.443 OA
ENDBRANCH   3   2
ENDBRANCH   5   3
BRANCH  18  29
ATOM     29  N   UNL     1      -2.534  -0.971  24.331  0.00  0.00    -0.217 NA
BRANCH  29  30
ATOM     30  C   UNL     1      -2.763  -1.668  24.781  0.00  0.00    +0.124 C 
BRANCH  30  31
ATOM     31  C   UNL     1      -2.861  -2.492  24.581  0.00  0.00    +0.201 C 
ATOM     32  O   UNL     1      -3.444  -2.986  24.949  0.00  0.00    -0.219 OA
ENDBRANCH  30  31
ENDBRANCH  29  30
ENDBRANCH  18  29
TORSDOF 6
ENDMDL
MODEL 7
REMARK VINA RESULT:     -11.2      1.868      3.204
REMARK  Name = 
REMARK  6 active torsions:
REMARK  status: ('A' for Active; 'I' for Inactive)
REMARK    1  A    between atoms: O_2  and  C_3
REMARK    2  A    between atoms: C_3  and  C_5
REMARK    3  A    between atoms: C_18  and  N_29
REMARK    4  A    between atoms: C_20  and  C_22
REMARK    5  A    between atoms: N_29  and  C_30
REMARK    6  A    between atoms: C_30  and  C_31
REMARK                            x       y       z     vdW  Elec       q    Type
REMARK                         _______ _______ _______ _____ _____    ______ ____
ROOT
ATOM      5  C   UNL     1      -3.181   2.061  24.805  0.00  0.00    +0.162 C 
ATOM      6  C   UNL     1      -2.390   2.295  24.795  0.00  0.00    +0.055 C 
ATOM      7  C   UNL     1      -1.806   1.765  24.552  0.00  0.00    -0.004 A 
ATOM      8  C   UNL     1      -2.013   1.001  24.319  0.00  0.00    +0.070 A 
ATOM      9  N   UNL     1      -1.322   0.603  24.108  0.00  0.00    -0.249 NA
ATOM     10  C   UNL     1      -0.687   1.120  24.211  0.00  0.00    +0.081 A 
ATOM     11  C   UNL     1      -0.987   1.839  24.485  0.00  0.00    +0.015 A 
ATOM     12  C   UNL     1      -0.475   2.467  24.638  0.00  0.00    +0.001 A 
ATOM     13  C   UNL     1       0.337   2.378  24.518  0.00  0.00    +0.000 A 
ATOM     14  C   UNL     1       0.636   1.658  24.243  0.00  0.00    +0.002 A 
ATOM     15  C   UNL     1       0.124   1.030  24.090  0.00  0.00    +0.019 A 
ATOM     16  C   UNL     1      -2.804   0.767  24.329  0.00  0.00    +0.100 C 
ATOM     17  C   UNL     1      -3.012   0.004  24.096  0.00  0.00    +0.040 C 
ATOM     18  C   UNL     1      -3.802  -0.230  24.106  0.00  0.00    +0.076 C 
ATOM     19  C   UNL     1      -4.386   0.300  24.349  0.00  0.00    +0.038 C 
ATOM     20  C   UNL     1      -4.178   1.063  24.582  0.00  0.00    +0.084 C 
ATOM     21  N   UNL     1      -3.388   1.297  24.572  0.00  0.00    -0.258 NA
ENDROOT
BRANCH  20  22
ATOM     22  C   UNL     1      -4.763   1.593  24.824  0.00  0.00    +0.020 A 
ATOM     23  C   UNL     1      -4.988   2.214  24.331  0.00  0.00    -0.001 A 
ATOM     24  C   UNL     1      -5.573   2.743  24.575  0.00  0.00    -0.000 A 
ATOM     25  C   UNL     1      -5.932   2.650  25.312  0.00  0.00    +0.002 A 
ATOM     26  C   UNL     1      -5.707   2.028  25.805  0.00  0.00    +0.029 A 
ATOM     27  C   UNL     1      -5.123   1.500  25.562  0.00  0.00    +0.137 A 
ATOM     28  F   UNL     1      -5.246   1.103  26.326  0.00  0.00    -0.204 F 
ENDBRANCH  20  22
BRANCH   5   3
ATOM      3  C   UNL     1      -3.570   2.828  25.105  0.00  0.00    +0.332 C 
ATOM      4  O   UNL     1      -4.105   3.656  24.817  0.00  0.00    -0.249 OA
BRANCH   3   2
ATOM      1  C   UNL     1      -3.345   4.054  26.164  0.00  0.00    +0.256 C 
ATOM      2  O   UNL     1      -3.748   3.375  25.853  0.00  0.00    -0.443 OA
ENDBRANCH   3   2
ENDBRANCH   5   3
BRANCH  18  29
ATOM     29  N   UNL     1      -3.996  -1.038  23.857  0.00  0.00    -0.217 NA
BRANCH  29  30
ATOM     30  C   UNL     1      -3.953  -1.793  24.268  0.00  0.00    +0.124 C 
BRANCH  30  31
ATOM     31  C   UNL     1      -4.032  -2.605  24.017  0.00  0.00    +0.201 C 
ATOM     32  O   UNL     1      -3.689  -3.251  24.445  0.00  0.00    -0.219 OA
ENDBRANCH  30  31
ENDBRANCH  29  30
ENDBRANCH  18  29
TORSDOF 6
ENDMDL
MODEL 8
REMARK VINA RESULT:     -11.1      1.459      3.745
REMARK  Name = 
REMARK  6 active torsions:
REMARK  status: ('A' for Active; 'I' for Inactive)
REMARK    1  A    between atoms: O_2  and  C_3
REMARK    2  A    between atoms: C_3  and  C_5
REMARK    3  A    between atoms: C_18  and  N_29
REMARK    4  A    between atoms: C_20  and  C_22
REMARK    5  A    between atoms: N_29  and  C_30
REMARK    6  A    between atoms: C_30  and  C_31
REMARK                            x       y       z     vdW  Elec       q    Type
REMARK                         _______ _______ _______ _____ _____    ______ ____
ROOT
ATOM      5  C   UNL     1      -2.243   1.892  24.693  0.00  0.00    +0.162 C 
ATOM      6  C   UNL     1      -2.929   1.435  24.698  0.00  0.00    +0.055 C 
ATOM      7  C   UNL     1      -2.892   0.634  24.503  0.00  0.00    -0.004 A 
ATOM      8  C   UNL     1      -2.170   0.290  24.303  0.00  0.00    +0.070 A 
ATOM      9  N   UNL     1      -2.304  -0.506  24.137  0.00  0.00    -0.249 NA
ATOM     10  C   UNL     1      -3.109  -0.656  24.234  0.00  0.00    +0.081 A 
ATOM     11  C   UNL     1      -3.473   0.050  24.461  0.00  0.00    +0.015 A 
ATOM     12  C   UNL     1      -4.286   0.068  24.599  0.00  0.00    +0.001 A 
ATOM     13  C   UNL     1      -4.736  -0.619  24.511  0.00  0.00    +0.000 A 
ATOM     14  C   UNL     1      -4.371  -1.324  24.285  0.00  0.00    +0.002 A 
ATOM     15  C   UNL     1      -3.558  -1.343  24.146  0.00  0.00    +0.019 A 
ATOM     16  C   UNL     1      -1.483   0.748  24.298  0.00  0.00    +0.100 C 
ATOM     17  C   UNL     1      -0.760   0.405  24.098  0.00  0.00    +0.040 C 
ATOM     18  C   UNL     1      -0.074   0.862  24.092  0.00  0.00    +0.076 C 
ATOM     19  C   UNL     1      -0.110   1.663  24.287  0.00  0.00    +0.038 C 
ATOM     20  C   UNL     1      -0.833   2.005  24.487  0.00  0.00    +0.084 C 
ATOM     21  N   UNL     1      -1.519   1.548  24.493  0.00  0.00    -0.258 NA
ENDROOT
BRANCH  20  22
ATOM     22  C   UNL     1      -0.869   2.807  24.682  0.00  0.00    +0.020 A 
ATOM     23  C   UNL     1      -1.115   3.358  24.121  0.00  0.00    -0.001 A 
ATOM     24  C   UNL     1      -1.151   4.158  24.316  0.00  0.00    -0.000 A 
ATOM     25  C   UNL     1      -0.939   4.408  25.074  0.00  0.00    +0.002 A 
ATOM     26  C   UNL     1      -0.692   3.857  25.636  0.00  0.00    +0.029 A 
ATOM     27  C   UNL     1      -0.657   3.056  25.440  0.00  0.00    +0.137 A 
ATOM     28  F   UNL     1      -0.381   2.930  26.255  0.00  0.00    -0.204 F 
ENDBRANCH  20  22
BRANCH   5   3
ATOM      3  C   UNL     1      -2.587   2.699  24.940  0.00  0.00    +0.332 C 
ATOM      4  O   UNL     1      -2.868   3.623  24.592  0.00  0.00    -0.249 OA
BRANCH   3   2
ATOM      1  C   UNL     1      -3.694   3.478  25.856  0.00  0.00    +0.256 C 
ATOM      2  O   UNL     1      -2.910   3.228  25.651  0.00  0.00    -0.443 OA
ENDBRANCH   3   2
ENDBRANCH   5   3
BRANCH  18  29
ATOM     29  N   UNL     1       0.674   0.479  23.879  0.00  0.00    -0.217 NA
BRANCH  29  30
ATOM     30  C   UNL     1       1.055   0.342  23.119  0.00  0.00    +0.124 C 
BRANCH  30  31
ATOM     31  C   UNL     1       1.698  -0.158  22.865  0.00  0.00    +0.201 C 
ATOM     32  O   UNL     1       2.305   0.111  22.337  0.00  0.00    -0.219 OA
ENDBRANCH  30  31
ENDBRANCH  29  30
ENDBRANCH  18  29
TORSDOF 6
ENDMDL
