MODEL 1
REMARK VINA RESULT:     -15.2      0.000      0.000
REMARK  Name = 
REMARK  3 active torsions:
REMARK  status: ('A' for Active; 'I' for Inactive)
REMARK    1  A    between atoms: C_7  and  N_10
REMARK    2  A    between atoms: C_17  and  N_18
REMARK    3  A    between atoms: N_21  and  C_22
REMARK                            x       y       z     vdW  Elec       q    Type
REMARK                         _______ _______ _______ _____ _____    ______ ____
ROOT
ATOM     10  N   UNL     1      -4.321   3.408  25.506  0.00  0.00    -0.273 NA
ATOM     11  C   UNL     1      -5.121   3.527  25.713  0.00  0.00    +0.074 C 
ATOM     12  C   UNL     1      -5.506   2.680  25.379  0.00  0.00    +0.039 C 
ATOM     13  C   UNL     1      -5.970   2.046  25.162  0.00  0.00    +0.011 C 
ATOM     14  C   UNL     1      -5.294   2.232  25.125  0.00  0.00    +0.056 C 
ATOM     15  C   UNL     1      -4.937   3.055  25.452  0.00  0.00    +0.078 C 
ATOM     16  C   UNL     1      -4.479   1.929  24.827  0.00  0.00    +0.056 A 
ATOM     17  C   UNL     1      -4.135   1.280  24.452  0.00  0.00    +0.087 A 
ATOM     28  C   UNL     1      -3.324   1.275  24.298  0.00  0.00    +0.023 A 
ATOM     29  C   UNL     1      -2.858   1.918  24.519  0.00  0.00    +0.062 A 
ATOM     30  C   UNL     1      -3.202   2.567  24.894  0.00  0.00    +0.261 A 
ATOM     31  O   UNL     1      -2.433   2.865  24.894  0.00  0.00    -0.267 OA
ATOM     32  N   UNL     1      -4.012   2.572  25.048  0.00  0.00    -0.298 N 
ATOM     33  C   UNL     1      -4.651   2.372  25.072  0.00  0.00    +0.110 C 
ENDROOT
BRANCH  10   7
ATOM      1  C   UNL     1      -0.813   4.439  24.543  0.00  0.00    +0.095 C 
ATOM      2  C   UNL     1      -1.095   4.034  25.204  0.00  0.00    +0.226 C 
ATOM      3  O   UNL     1      -0.569   3.785  25.790  0.00  0.00    -0.275 OA
ATOM      4  N   UNL     1      -1.901   3.877  25.280  0.00  0.00    -0.279 N 
ATOM      5  C   UNL     1      -2.182   3.472  25.940  0.00  0.00    +0.095 C 
ATOM      6  C   UNL     1      -2.988   3.315  26.017  0.00  0.00    +0.038 C 
ATOM      7  C   UNL     1      -3.514   3.564  25.431  0.00  0.00    +0.061 C 
ATOM      8  C   UNL     1      -3.233   3.970  24.770  0.00  0.00    +0.038 C 
ATOM      9  C   UNL     1      -2.426   4.126  24.694  0.00  0.00    +0.095 C 
ENDBRANCH  10   7
BRANCH  17  18
ATOM     18  N   UNL     1      -4.601   0.636  24.231  0.00  0.00    -0.160 NA
ATOM     19  C   UNL     1      -4.339  -0.132  24.375  0.00  0.00    +0.343 C 
ATOM     20  O   UNL     1      -4.805  -0.776  24.154  0.00  0.00    -0.249 OA
ATOM     21  N   UNL     1      -3.610  -0.257  24.741  0.00  0.00    -0.189 NA
BRANCH  21  22
ATOM     22  C   UNL     1      -3.347  -1.026  24.885  0.00  0.00    +0.097 C 
ATOM     23  C   UNL     1      -2.938  -1.440  24.301  0.00  0.00    +0.022 C 
ATOM     24  C   UNL     1      -2.675  -2.208  24.446  0.00  0.00    +0.002 C 
ATOM     25  C   UNL     1      -2.822  -2.563  25.177  0.00  0.00    +0.000 C 
ATOM     26  C   UNL     1      -3.231  -2.149  25.761  0.00  0.00    +0.002 C 
ATOM     27  C   UNL     1      -3.494  -1.381  25.616  0.00  0.00    +0.022 C 
ENDBRANCH  21  22
ENDBRANCH  17  18
TORSDOF 3
ENDMDL
MODEL 2
REMARK VINA RESULT:     -14.3      1.862      4.055
REMARK  Name = 
REMARK  3 active torsions:
REMARK  status: ('A' for Active; 'I' for Inactive)
REMARK    1  A    between atoms: C_7  and  N_10
REMARK    2  A    between atoms: C_17  and  N_18
REMARK    3  A    between atoms: N_21  and  C_22
REMARK                            x       y       z     vdW  Elec       q    Type
REMARK                         _______ _______ _______ _____ _____    ______ ____
ROOT
ATOM     10  N   UNL     1      -0.398   2.609  25.200  0.00  0.00    -0.273 NA
ATOM     11  C   UNL     1      -0.145   3.338  25.519  0.00  0.00    +0.074 C 
ATOM     12  C   UNL     1      -0.951   3.883  25.344  0.00  0.00    +0.039 C 
ATOM     13  C   UNL     1      -1.525   4.457  25.274  0.00  0.00    +0.011 C 
ATOM     14  C   UNL     1      -1.445   3.779  25.108  0.00  0.00    +0.056 C 
ATOM     15  C   UNL     1      -0.659   3.266  25.284  0.00  0.00    +0.078 C 
ATOM     16  C   UNL     1      -1.889   3.076  24.717  0.00  0.00    +0.056 A 
ATOM     17  C   UNL     1      -2.610   2.891  24.363  0.00  0.00    +0.087 A 
ATOM     28  C   UNL     1      -2.748   2.128  24.082  0.00  0.00    +0.023 A 
ATOM     29  C   UNL     1      -2.164   1.550  24.155  0.00  0.00    +0.062 A 
ATOM     30  C   UNL     1      -1.443   1.734  24.509  0.00  0.00    +0.261 A 
ATOM     31  O   UNL     1      -1.262   0.945  24.352  0.00  0.00    -0.267 OA
ATOM     32  N   UNL     1      -1.305   2.498  24.790  0.00  0.00    -0.298 N 
ATOM     33  C   UNL     1      -1.406   3.143  24.937  0.00  0.00    +0.110 C 
ENDROOT
BRANCH  10   7
ATOM      1  C   UNL     1      -0.549  -1.152  24.833  0.00  0.00    +0.095 C 
ATOM      2  C   UNL     1      -0.283  -0.569  24.315  0.00  0.00    +0.226 C 
ATOM      3  O   UNL     1       0.013  -0.780  23.573  0.00  0.00    -0.275 OA
ATOM      4  N   UNL     1      -0.311   0.225  24.535  0.00  0.00    -0.279 N 
ATOM      5  C   UNL     1      -0.045   0.809  24.017  0.00  0.00    +0.095 C 
ATOM      6  C   UNL     1      -0.074   1.603  24.237  0.00  0.00    +0.038 C 
ATOM      7  C   UNL     1      -0.369   1.814  24.978  0.00  0.00    +0.061 C 
ATOM      8  C   UNL     1      -0.635   1.232  25.498  0.00  0.00    +0.038 C 
ATOM      9  C   UNL     1      -0.607   0.437  25.277  0.00  0.00    +0.095 C 
ENDBRANCH  10   7
BRANCH  17  18
ATOM     18  N   UNL     1      -3.194   3.470  24.290  0.00  0.00    -0.160 NA
ATOM     19  C   UNL     1      -3.963   3.314  24.544  0.00  0.00    +0.343 C 
ATOM     20  O   UNL     1      -4.547   3.892  24.471  0.00  0.00    -0.249 OA
ATOM     21  N   UNL     1      -4.149   2.579  24.870  0.00  0.00    -0.189 NA
BRANCH  21  22
ATOM     22  C   UNL     1      -4.918   2.422  25.124  0.00  0.00    +0.097 C 
ATOM     23  C   UNL     1      -5.180   2.710  25.851  0.00  0.00    +0.022 C 
ATOM     24  C   UNL     1      -5.950   2.553  26.104  0.00  0.00    +0.002 C 
ATOM     25  C   UNL     1      -6.457   2.108  25.630  0.00  0.00    +0.000 C 
ATOM     26  C   UNL     1      -6.195   1.821  24.903  0.00  0.00    +0.002 C 
ATOM     27  C   UNL     1      -5.426   1.978  24.649  0.00  0.00    +0.022 C 
ENDBRANCH  21  22
ENDBRANCH  17  18
TORSDOF 3
ENDMDL
MODEL 3
REMARK VINA RESULT:     -14.2      1.232      4.338
REMARK  Name = 
REMARK  3 active torsions:
REMARK  status: ('A' for Active; 'I' for Inactive)
REMARK    1  A    between atoms: C_7  and  N_10
REMARK    2  A    between atoms: C_17  and  N_18
REMARK    3  A    between atoms: N_21  and  C_22
REMARK                            x       y       z     vdW  Elec       q    Type
REMARK                         _______ _______ _______ _____ _____    ______ ____
ROOT
ATOM     10  N   UNL     1      -4.629   0.168  25.189  0.00  0.00    -0.273 NA
ATOM     11  C   UNL     1      -5.371   0.435  25.466  0.00  0.00    +0.074 C 
ATOM     12  C   UNL     1      -5.350   1.363  25.126  0.00  0.00    +0.039 C 
ATOM     13  C   UNL     1      -5.486   2.139  24.919  0.00  0.00    +0.011 C 
ATOM     14  C   UNL     1      -4.980   1.661  24.835  0.00  0.00    +0.056 C 
ATOM     15  C   UNL     1      -5.015   0.767  25.170  0.00  0.00    +0.078 C 
ATOM     16  C   UNL     1      -4.149   1.550  24.458  0.00  0.00    +0.056 A 
ATOM     17  C   UNL     1      -3.580   1.964  24.027  0.00  0.00    +0.087 A 
ATOM     28  C   UNL     1      -2.878   1.591  23.807  0.00  0.00    +0.023 A 
ATOM     29  C   UNL     1      -2.743   0.805  24.019  0.00  0.00    +0.062 A 
ATOM     30  C   UNL     1      -3.311   0.391  24.450  0.00  0.00    +0.261 A 
ATOM     31  O   UNL     1      -2.771  -0.230  24.401  0.00  0.00    -0.267 OA
ATOM     32  N   UNL     1      -4.014   0.764  24.670  0.00  0.00    -0.298 N 
ATOM     33  C   UNL     1      -4.482   1.237  24.736  0.00  0.00    +0.110 C 
ENDROOT
BRANCH  10   7
ATOM      1  C   UNL     1      -1.472  -1.912  25.184  0.00  0.00    +0.095 C 
ATOM      2  C   UNL     1      -2.102  -1.885  24.653  0.00  0.00    +0.226 C 
ATOM      3  O   UNL     1      -2.101  -2.373  23.987  0.00  0.00    -0.275 OA
ATOM      4  N   UNL     1      -2.734  -1.372  24.787  0.00  0.00    -0.279 N 
ATOM      5  C   UNL     1      -3.364  -1.346  24.255  0.00  0.00    +0.095 C 
ATOM      6  C   UNL     1      -3.996  -0.833  24.389  0.00  0.00    +0.038 C 
ATOM      7  C   UNL     1      -3.997  -0.345  25.055  0.00  0.00    +0.061 C 
ATOM      8  C   UNL     1      -3.368  -0.372  25.587  0.00  0.00    +0.038 C 
ATOM      9  C   UNL     1      -2.736  -0.885  25.453  0.00  0.00    +0.095 C 
ENDBRANCH  10   7
BRANCH  17  18
ATOM     18  N   UNL     1      -3.715   2.750  23.815  0.00  0.00    -0.160 NA
ATOM     19  C   UNL     1      -3.175   3.334  24.033  0.00  0.00    +0.343 C 
ATOM     20  O   UNL     1      -3.310   4.120  23.821  0.00  0.00    -0.249 OA
ATOM     21  N   UNL     1      -2.500   3.132  24.463  0.00  0.00    -0.189 NA
BRANCH  21  22
ATOM     22  C   UNL     1      -1.960   3.716  24.681  0.00  0.00    +0.097 C 
ATOM     23  C   UNL     1      -2.185   4.313  25.204  0.00  0.00    +0.022 C 
ATOM     24  C   UNL     1      -1.644   4.896  25.422  0.00  0.00    +0.002 C 
ATOM     25  C   UNL     1      -0.877   4.883  25.117  0.00  0.00    +0.000 C 
ATOM     26  C   UNL     1      -0.652   4.286  24.595  0.00  0.00    +0.002 C 
ATOM     27  C   UNL     1      -1.193   3.702  24.377  0.00  0.00    +0.022 C 
ENDBRANCH  21  22
ENDBRANCH  17  18
TORSDOF 3
ENDMDL
