MODEL 1
REMARK VINA RESULT:      -8.9      0.000      0.000
REMARK  Name = 
REMARK  6 active torsions:
REMARK  status: ('A' for Active; 'I' for Inactive)
REMARK    1  A    between atoms: C_2  and  C_3
REMARK    2  A    between atoms: C_8  and  C_9
REMARK    3  A    between atoms: C_9  and  C_10
REMARK    4  A    between atoms: N_12  and  C_14
REMARK    5  A    between atoms: C_14  and  C_15
REMARK    6  A    between atoms: N_19  and  C_20
REMARK                            x       y       z     vdW  Elec       q    Type
REMARK                         _______ _______ _______ _____ _____    ______ ____
ROOT
ATOM      3  C   UNL     1      -3.787   1.176  24.815  0.00  0.00    +0.020 C 
ATOM      4  C   UNL     1      -3.797   0.356  24.719  0.00  0.00    +0.095 C 
ATOM      5  N   UNL     1      -3.097  -0.048  24.556  0.00  0.00    -0.263 N 
ATOM      6  C   UNL     1      -2.386   0.367  24.489  0.00  0.00    +0.095 C 
ATOM      7  C   UNL     1      -2.377   1.186  24.586  0.00  0.00    +0.022 C 
ATOM      8  C   UNL     1      -3.078   1.590  24.748  0.00  0.00    +0.012 C 
ATOM     17  C   UNL     1      -3.106  -0.868  24.460  0.00  0.00    +0.323 C 
ATOM     18  O   UNL     1      -2.407  -1.272  24.297  0.00  0.00    -0.251 OA
ATOM     19  N   UNL     1      -3.817  -1.283  24.526  0.00  0.00    -0.190 NA
ENDROOT
BRANCH  19  20
ATOM     20  C   UNL     1      -3.826  -2.102  24.430  0.00  0.00    +0.097 C 
ATOM     21  C   UNL     1      -3.500  -2.589  25.012  0.00  0.00    +0.023 C 
ATOM     22  C   UNL     1      -4.159  -2.434  23.753  0.00  0.00    +0.023 C 
ENDBRANCH  19  20
BRANCH   3   2
ATOM      1  C   UNL     1      -5.206   1.176  24.983  0.00  0.00    +0.000 C 
ATOM      2  C   UNL     1      -4.488   1.581  24.978  0.00  0.00    +0.002 C 
ENDBRANCH   3   2
BRANCH   8   9
ATOM      9  C   UNL     1      -3.068   2.409  24.845  0.00  0.00    +0.085 C 
BRANCH   9  10
ATOM     10  C   UNL     1      -2.408   2.778  25.175  0.00  0.00    +0.226 C 
ATOM     11  O   UNL     1      -1.845   2.331  25.580  0.00  0.00    -0.275 OA
ATOM     12  N   UNL     1      -2.311   3.594  25.100  0.00  0.00    -0.265 N 
ATOM     13  C   UNL     1      -2.874   4.041  24.695  0.00  0.00    +0.116 C 
BRANCH  12  14
ATOM     14  C   UNL     1      -1.651   3.963  25.431  0.00  0.00    +0.200 C 
BRANCH  14  15
ATOM     15  C   UNL     1      -1.463   4.738  25.221  0.00  0.00    +0.095 C 
ATOM     16  N   UNL     1      -1.276   5.514  25.011  0.00  0.00    -0.194 NA
ENDBRANCH  14  15
ENDBRANCH  12  14
ENDBRANCH   9  10
ENDBRANCH   8   9
TORSDOF 6
ENDMDL
MODEL 2
REMARK VINA RESULT:      -8.3      0.948      4.793
REMARK  Name = 
REMARK  6 active torsions:
REMARK  status: ('A' for Active; 'I' for Inactive)
REMARK    1  A    between atoms: C_2  and  C_3
REMARK    2  A    between atoms: C_8  and  C_9
REMARK    3  A    between atoms: C_9  and  C_10
REMARK    4  A    between atoms: N_12  and  C_14
REMARK    5  A    between atoms: C_14  and  C_15
REMARK    6  A    between atoms: N_19  and  C_20
REMARK                            x       y       z     vdW  Elec       q    Type
REMARK                         _______ _______ _______ _____ _____    ______ ____
ROOT
ATOM      3  C   UNL     1      -3.436   1.717  24.565  0.00  0.00    +0.020 C 
ATOM      4  C   UNL     1      -2.950   2.374  24.678  0.00  0.00    +0.095 C 
ATOM      5  N   UNL     1      -2.172   2.272  24.933  0.00  0.00    -0.263 N 
ATOM      6  C   UNL     1      -1.881   1.513  25.075  0.00  0.00    +0.095 C 
ATOM      7  C   UNL     1      -2.368   0.857  24.962  0.00  0.00    +0.022 C 
ATOM      8  C   UNL     1      -3.145   0.959  24.707  0.00  0.00    +0.012 C 
ATOM     17  C   UNL     1      -1.685   2.929  25.046  0.00  0.00    +0.323 C 
ATOM     18  O   UNL     1      -0.908   2.827  25.301  0.00  0.00    -0.251 OA
ATOM     19  N   UNL     1      -1.977   3.687  24.904  0.00  0.00    -0.190 NA
ENDROOT
BRANCH  19  20
ATOM     20  C   UNL     1      -1.490   4.343  25.017  0.00  0.00    +0.097 C 
ATOM     21  C   UNL     1      -1.760   4.985  25.461  0.00  0.00    +0.023 C 
ATOM     22  C   UNL     1      -0.735   4.359  24.688  0.00  0.00    +0.023 C 
ENDBRANCH  19  20
BRANCH   3   2
ATOM      1  C   UNL     1      -4.568   2.563  24.349  0.00  0.00    +0.000 C 
ATOM      2  C   UNL     1      -4.215   1.819  24.309  0.00  0.00    +0.002 C 
ENDBRANCH   3   2
BRANCH   8   9
ATOM      9  C   UNL     1      -3.631   0.302  24.594  0.00  0.00    +0.085 C 
BRANCH   9  10
ATOM     10  C   UNL     1      -3.489  -0.394  25.013  0.00  0.00    +0.226 C 
ATOM     11  O   UNL     1      -3.132  -0.362  25.755  0.00  0.00    -0.275 OA
ATOM     12  N   UNL     1      -3.705  -1.121  24.690  0.00  0.00    -0.265 N 
ATOM     13  C   UNL     1      -4.063  -1.153  23.946  0.00  0.00    +0.116 C 
BRANCH  12  14
ATOM     14  C   UNL     1      -3.563  -1.818  25.109  0.00  0.00    +0.200 C 
BRANCH  14  15
ATOM     15  C   UNL     1      -3.573  -2.544  24.718  0.00  0.00    +0.095 C 
ATOM     16  N   UNL     1      -3.583  -3.271  24.328  0.00  0.00    -0.194 NA
ENDBRANCH  14  15
ENDBRANCH  12  14
ENDBRANCH   9  10
ENDBRANCH   8   9
TORSDOF 6
ENDMDL
MODEL 3
REMARK VINA RESULT:      -8.1      1.981      2.717
REMARK  Name = 
REMARK  6 active torsions:
REMARK  status: ('A' for Active; 'I' for Inactive)
REMARK    1  A    between atoms: C_2  and  C_3
REMARK    2  A    between atoms: C_8  and  C_9
REMARK    3  A    between atoms: C_9  and  C_10
REMARK    4  A    between atoms: N_12  and  C_14
REMARK    5  A    between atoms: C_14  and  C_15
REMARK    6  A    between atoms: N_19  and  C_20
REMARK                            x       y       z     vdW  Elec       q    Type
REMARK                         _______ _______ _______ _____ _____    ______ ____
ROOT
ATOM      3  C   UNL     1      -3.554   0.246  24.577  0.00  0.00    +0.020 C 
ATOM      4  C   UNL     1      -2.817  -0.123  24.601  0.00  0.00    +0.095 C 
ATOM      5  N   UNL     1      -2.146   0.311  24.807  0.00  0.00    -0.263 N 
ATOM      6  C   UNL     1      -2.213   1.114  24.987  0.00  0.00    +0.095 C 
ATOM      7  C   UNL     1      -2.950   1.481  24.962  0.00  0.00    +0.022 C 
ATOM      8  C   UNL     1      -3.621   1.047  24.757  0.00  0.00    +0.012 C 
ATOM     17  C   UNL     1      -1.407  -0.058  24.832  0.00  0.00    +0.323 C 
ATOM     18  O   UNL     1      -0.737   0.376  25.037  0.00  0.00    -0.251 OA
ATOM     19  N   UNL     1      -1.341  -0.860  24.651  0.00  0.00    -0.190 NA
ENDROOT
BRANCH  19  20
ATOM     20  C   UNL     1      -0.603  -1.228  24.676  0.00  0.00    +0.097 C 
ATOM     21  C   UNL     1      -0.070  -1.124  24.055  0.00  0.00    +0.023 C 
ATOM     22  C   UNL     1      -0.399  -1.698  25.321  0.00  0.00    +0.023 C 
ENDBRANCH  19  20
BRANCH   3   2
ATOM      1  C   UNL     1      -4.168  -1.000  24.240  0.00  0.00    +0.000 C 
ATOM      2  C   UNL     1      -4.226  -0.189  24.371  0.00  0.00    +0.002 C 
ENDBRANCH   3   2
BRANCH   8   9
ATOM      9  C   UNL     1      -4.359   1.416  24.732  0.00  0.00    +0.085 C 
BRANCH   9  10
ATOM     10  C   UNL     1      -4.409   2.236  24.658  0.00  0.00    +0.226 C 
ATOM     11  O   UNL     1      -3.890   2.637  24.158  0.00  0.00    -0.275 OA
ATOM     12  N   UNL     1      -4.976   2.655  25.084  0.00  0.00    -0.265 N 
ATOM     13  C   UNL     1      -5.496   2.253  25.585  0.00  0.00    +0.116 C 
BRANCH  12  14
ATOM     14  C   UNL     1      -5.026   3.475  25.011  0.00  0.00    +0.200 C 
BRANCH  14  15
ATOM     15  C   UNL     1      -5.590   3.895  25.442  0.00  0.00    +0.095 C 
ATOM     16  N   UNL     1      -6.153   4.316  25.875  0.00  0.00    -0.194 NA
ENDBRANCH  14  15
ENDBRANCH  12  14
ENDBRANCH   9  10
ENDBRANCH   8   9
TORSDOF 6
ENDMDL
MODEL 4
REMARK VINA RESULT:      -8.0      2.133      3.722
REMARK  Name = 
REMARK  6 active torsions:
REMARK  status: ('A' for Active; 'I' for Inactive)
REMARK    1  A    between atoms: C_2  and  C_3
REMARK    2  A    between atoms: C_8  and  C_9
REMARK    3  A    between atoms: C_9  and  C_10
REMARK    4  A    between atoms: N_12  and  C_14
REMARK    5  A    between atoms: C_14  and  C_15
REMARK    6  A    between atoms: N_19  and  C_20
REMARK                            x       y       z     vdW  Elec       q    Type
REMARK                         _______ _______ _______ _____ _____    ______ ____
ROOT
ATOM      3  C   UNL     1      -2.875   0.249  24.974  0.00  0.00    +0.020 C 
ATOM      4  C   UNL     1      -3.577   0.673  25.060  0.00  0.00    +0.095 C 
ATOM      5  N   UNL     1      -3.681   1.385  24.655  0.00  0.00    -0.263 N 
ATOM      6  C   UNL     1      -3.082   1.672  24.165  0.00  0.00    +0.095 C 
ATOM      7  C   UNL     1      -2.380   1.247  24.079  0.00  0.00    +0.022 C 
ATOM      8  C   UNL     1      -2.277   0.535  24.484  0.00  0.00    +0.012 C 
ATOM     17  C   UNL     1      -4.383   1.810  24.741  0.00  0.00    +0.323 C 
ATOM     18  O   UNL     1      -4.487   2.521  24.337  0.00  0.00    -0.251 OA
ATOM     19  N   UNL     1      -4.981   1.523  25.231  0.00  0.00    -0.190 NA
ENDROOT
BRANCH  19  20
ATOM     20  C   UNL     1      -5.683   1.948  25.316  0.00  0.00    +0.097 C 
ATOM     21  C   UNL     1      -5.723   2.573  25.855  0.00  0.00    +0.023 C 
ATOM     22  C   UNL     1      -6.343   1.750  24.865  0.00  0.00    +0.023 C 
ENDBRANCH  19  20
BRANCH   3   2
ATOM      1  C   UNL     1      -3.427  -0.910  25.602  0.00  0.00    +0.000 C 
ATOM      2  C   UNL     1      -2.771  -0.463  25.379  0.00  0.00    +0.002 C 
ENDBRANCH   3   2
BRANCH   8   9
ATOM      9  C   UNL     1      -1.575   0.111  24.398  0.00  0.00    +0.085 C 
BRANCH   9  10
ATOM     10  C   UNL     1      -0.881   0.500  24.181  0.00  0.00    +0.226 C 
ATOM     11  O   UNL     1      -0.832   1.321  24.242  0.00  0.00    -0.275 OA
ATOM     12  N   UNL     1      -0.236   0.069  23.901  0.00  0.00    -0.265 N 
ATOM     13  C   UNL     1      -0.285  -0.754  23.839  0.00  0.00    +0.116 C 
BRANCH  12  14
ATOM     14  C   UNL     1       0.459   0.457  23.683  0.00  0.00    +0.200 C 
BRANCH  14  15
ATOM     15  C   UNL     1       0.988   0.097  23.165  0.00  0.00    +0.095 C 
ATOM     16  N   UNL     1       1.519  -0.263  22.645  0.00  0.00    -0.194 NA
ENDBRANCH  14  15
ENDBRANCH  12  14
ENDBRANCH   9  10
ENDBRANCH   8   9
TORSDOF 6
ENDMDL
