MODEL 1
REMARK VINA RESULT:     -12.9      0.000      0.000
REMARK  Name = 
REMARK  5 active torsions:
REMARK  status: ('A' for Active; 'I' for Inactive)
REMARK    1  A    between atoms: C_2  and  C_4
REMARK    2  A    between atoms: C_4  and  C_5
REMARK    3  A    between atoms: C_7  and  C_18
REMARK    4  A    between atoms: N_20  and  C_21
REMARK    5  A    between atoms: C_21  and  C_22
REMARK                            x       y       z     vdW  Elec       q    Type
REMARK                         _______ _______ _______ _____ _____    ______ ____
ROOT
ATOM      5  C   UNL     1      -3.093   3.054  25.047  0.00  0.00    +0.095 C 
ATOM      6  N   UNL     1      -3.314   2.345  24.688  0.00  0.00    -0.207 NA
ATOM      7  C   UNL     1      -2.855   1.835  24.229  0.00  0.00    +0.155 C 
ATOM      8  C   UNL     1      -2.062   1.910  24.015  0.00  0.00    +0.055 C 
ATOM      9  C   UNL     1      -1.531   2.512  24.208  0.00  0.00    +0.000 A 
ATOM     10  C   UNL     1      -0.745   2.523  23.959  0.00  0.00    +0.095 A 
ATOM     11  N   UNL     1      -0.391   3.205  24.258  0.00  0.00    -0.244 NA
ATOM     12  C   UNL     1      -0.959   3.616  24.694  0.00  0.00    +0.081 A 
ATOM     13  C   UNL     1      -1.664   3.188  24.663  0.00  0.00    +0.013 A 
ATOM     14  C   UNL     1      -2.359   3.428  25.036  0.00  0.00    -0.005 A 
ATOM     15  C   UNL     1      -2.301   4.177  25.472  0.00  0.00    -0.003 A 
ATOM     16  C   UNL     1      -1.597   4.606  25.504  0.00  0.00    +0.001 A 
ATOM     17  C   UNL     1      -0.925   4.325  25.114  0.00  0.00    +0.019 A 
ENDROOT
BRANCH   7  18
ATOM     18  C   UNL     1      -3.241   1.163  23.945  0.00  0.00    +0.258 C 
ATOM     19  O   UNL     1      -3.579   1.168  23.193  0.00  0.00    -0.272 OA
ATOM     20  N   UNL     1      -3.287   0.486  24.415  0.00  0.00    -0.199 NA
BRANCH  20  21
ATOM     21  C   UNL     1      -3.673  -0.186  24.132  0.00  0.00    +0.142 C 
BRANCH  21  22
ATOM     22  C   UNL     1      -3.605  -0.901  24.538  0.00  0.00    -0.001 A 
ATOM     23  C   UNL     1      -3.591  -1.613  24.119  0.00  0.00    -0.003 A 
ATOM     24  C   UNL     1      -3.524  -2.328  24.525  0.00  0.00    -0.000 A 
ATOM     25  C   UNL     1      -3.469  -2.333  25.348  0.00  0.00    -0.000 A 
ATOM     26  C   UNL     1      -3.482  -1.621  25.766  0.00  0.00    -0.000 A 
ATOM     27  C   UNL     1      -3.550  -0.906  25.361  0.00  0.00    -0.003 A 
ENDBRANCH  21  22
ENDBRANCH  20  21
ENDBRANCH   7  18
BRANCH   5   4
ATOM      4  C   UNL     1      -3.685   3.438  25.474  0.00  0.00    +0.022 C 
BRANCH   4   2
ATOM      1  C   UNL     1      -4.725   3.787  24.557  0.00  0.00    +0.000 C 
ATOM      2  C   UNL     1      -4.472   3.382  25.230  0.00  0.00    +0.002 C 
ATOM      3  C   UNL     1      -5.005   2.920  25.659  0.00  0.00    +0.000 C 
ENDBRANCH   4   2
ENDBRANCH   5   4
TORSDOF 5
ENDMDL
MODEL 2
REMARK VINA RESULT:     -12.9      0.867      2.318
REMARK  Name = 
REMARK  5 active torsions:
REMARK  status: ('A' for Active; 'I' for Inactive)
REMARK    1  A    between atoms: C_2  and  C_4
REMARK    2  A    between atoms: C_4  and  C_5
REMARK    3  A    between atoms: C_7  and  C_18
REMARK    4  A    between atoms: N_20  and  C_21
REMARK    5  A    between atoms: C_21  and  C_22
REMARK                            x       y       z     vdW  Elec       q    Type
REMARK                         _______ _______ _______ _____ _____    ______ ____
ROOT
ATOM      5  C   UNL     1      -2.160   2.449  24.856  0.00  0.00    +0.095 C 
ATOM      6  N   UNL     1      -2.470   1.805  24.444  0.00  0.00    -0.207 NA
ATOM      7  C   UNL     1      -3.262   1.604  24.324  0.00  0.00    +0.155 C 
ATOM      8  C   UNL     1      -3.937   1.998  24.587  0.00  0.00    +0.055 C 
ATOM      9  C   UNL     1      -3.989   2.690  25.034  0.00  0.00    +0.000 A 
ATOM     10  C   UNL     1      -4.704   3.031  25.262  0.00  0.00    +0.095 A 
ATOM     11  N   UNL     1      -4.535   3.710  25.699  0.00  0.00    -0.244 NA
ATOM     12  C   UNL     1      -3.715   3.789  25.740  0.00  0.00    +0.081 A 
ATOM     13  C   UNL     1      -3.377   3.158  25.329  0.00  0.00    +0.013 A 
ATOM     14  C   UNL     1      -2.563   3.050  25.249  0.00  0.00    -0.005 A 
ATOM     15  C   UNL     1      -2.074   3.656  25.634  0.00  0.00    -0.003 A 
ATOM     16  C   UNL     1      -2.411   4.287  26.046  0.00  0.00    +0.001 A 
ATOM     17  C   UNL     1      -3.232   4.353  26.098  0.00  0.00    +0.019 A 
ENDROOT
BRANCH   7  18
ATOM     18  C   UNL     1      -3.395   0.919  23.884  0.00  0.00    +0.258 C 
ATOM     19  O   UNL     1      -3.414   0.956  23.060  0.00  0.00    -0.272 OA
ATOM     20  N   UNL     1      -3.508   0.197  24.268  0.00  0.00    -0.199 NA
BRANCH  20  21
ATOM     21  C   UNL     1      -3.640  -0.487  23.828  0.00  0.00    +0.142 C 
BRANCH  21  22
ATOM     22  C   UNL     1      -3.629  -1.224  24.199  0.00  0.00    -0.001 A 
ATOM     23  C   UNL     1      -3.219  -1.322  24.909  0.00  0.00    -0.003 A 
ATOM     24  C   UNL     1      -3.208  -2.060  25.280  0.00  0.00    -0.000 A 
ATOM     25  C   UNL     1      -3.605  -2.698  24.941  0.00  0.00    -0.000 A 
ATOM     26  C   UNL     1      -4.015  -2.599  24.231  0.00  0.00    -0.000 A 
ATOM     27  C   UNL     1      -4.026  -1.863  23.860  0.00  0.00    -0.003 A 
ENDBRANCH  21  22
ENDBRANCH  20  21
ENDBRANCH   7  18
BRANCH   5   4
ATOM      4  C   UNL     1      -1.337   2.496  24.877  0.00  0.00    +0.022 C 
BRANCH   4   2
ATOM      1  C   UNL     1      -0.497   1.549  24.212  0.00  0.00    +0.000 C 
ATOM      2  C   UNL     1      -0.884   1.805  24.894  0.00  0.00    +0.002 C 
ATOM      3  C   UNL     1      -0.819   1.372  25.593  0.00  0.00    +0.000 C 
ENDBRANCH   4   2
ENDBRANCH   5   4
TORSDOF 5
ENDMDL
MODEL 3
REMARK VINA RESULT:     -12.6      1.678      4.899
REMARK  Name = 
REMARK  5 active torsions:
REMARK  status: ('A' for Active; 'I' for Inactive)
REMARK    1  A    between atoms: C_2  and  C_4
REMARK    2  A    between atoms: C_4  and  C_5
REMARK    3  A    between atoms: C_7  and  C_18
REMARK    4  A    between atoms: N_20  and  C_21
REMARK    5  A    between atoms: C_21  and  C_22
REMARK                            x       y       z     vdW  Elec       q    Type
REMARK                         _______ _______ _______ _____ _____    ______ ____
ROOT
ATOM      5  C   UNL     1      -2.312  -0.661  24.825  0.00  0.00    +0.095 C 
ATOM      6  N   UNL     1      -2.611   0.052  24.540  0.00  0.00    -0.207 NA
ATOM      7  C   UNL     1      -3.306   0.184  24.113  0.00  0.00    +0.155 C 
ATOM      8  C   UNL     1      -3.871  -0.364  23.868  0.00  0.00    +0.055 C 
ATOM      9  C   UNL     1      -3.882  -1.180  23.988  0.00  0.00    +0.000 A 
ATOM     10  C   UNL     1      -4.484  -1.672  23.713  0.00  0.00    +0.095 A 
ATOM     11  N   UNL     1      -4.305  -2.446  23.937  0.00  0.00    -0.244 NA
ATOM     12  C   UNL     1      -3.591  -2.432  24.352  0.00  0.00    +0.081 A 
ATOM     13  C   UNL     1      -3.330  -1.649  24.383  0.00  0.00    +0.013 A 
ATOM     14  C   UNL     1      -2.631  -1.418  24.756  0.00  0.00    -0.005 A 
ATOM     15  C   UNL     1      -2.179  -2.064  25.120  0.00  0.00    -0.003 A 
ATOM     16  C   UNL     1      -2.439  -2.846  25.089  0.00  0.00    +0.001 A 
ATOM     17  C   UNL     1      -3.146  -3.030  24.705  0.00  0.00    +0.019 A 
ENDROOT
BRANCH   7  18
ATOM     18  C   UNL     1      -3.454   0.969  23.905  0.00  0.00    +0.258 C 
ATOM     19  O   UNL     1      -3.208   1.254  23.172  0.00  0.00    -0.272 OA
ATOM     20  N   UNL     1      -3.847   1.468  24.432  0.00  0.00    -0.199 NA
BRANCH  20  21
ATOM     21  C   UNL     1      -3.995   2.252  24.225  0.00  0.00    +0.142 C 
BRANCH  21  22
ATOM     22  C   UNL     1      -4.328   2.769  24.776  0.00  0.00    -0.001 A 
ATOM     23  C   UNL     1      -3.856   3.335  25.147  0.00  0.00    -0.003 A 
ATOM     24  C   UNL     1      -4.189   3.851  25.698  0.00  0.00    -0.000 A 
ATOM     25  C   UNL     1      -4.993   3.802  25.877  0.00  0.00    -0.000 A 
ATOM     26  C   UNL     1      -5.464   3.236  25.505  0.00  0.00    -0.000 A 
ATOM     27  C   UNL     1      -5.132   2.720  24.954  0.00  0.00    -0.003 A 
ENDBRANCH  21  22
ENDBRANCH  20  21
ENDBRANCH   7  18
BRANCH   5   4
ATOM      4  C   UNL     1      -1.597  -0.610  25.235  0.00  0.00    +0.022 C 
BRANCH   4   2
ATOM      1  C   UNL     1      -0.982   0.647  25.524  0.00  0.00    +0.000 C 
ATOM      2  C   UNL     1      -1.053  -0.019  25.043  0.00  0.00    +0.002 C 
ATOM      3  C   UNL     1      -0.582  -0.096  24.370  0.00  0.00    +0.000 C 
ENDBRANCH   4   2
ENDBRANCH   5   4
TORSDOF 5
ENDMDL
MODEL 4
REMARK VINA RESULT:     -12.2      1.620      4.799
REMARK  Name = 
REMARK  5 active torsions:
REMARK  status: ('A' for Active; 'I' for Inactive)
REMARK    1  A    between atoms: C_2  and  C_4
REMARK    2  A    between atoms: C_4  and  C_5
REMARK    3  A    between atoms: C_7  and  C_18
REMARK    4  A    between atoms: N_20  and  C_21
REMARK    5  A    between atoms: C_21  and  C_22
REMARK                            x       y       z     vdW  Elec       q    Type
REMARK                         _______ _______ _______ _____ _____    ______ ____
ROOT
ATOM      5  C   UNL     1      -3.402  -0.355  24.893  0.00  0.00    +0.095 C 
ATOM      6  N   UNL     1      -2.761   0.064  25.200  0.00  0.00    -0.207 NA
ATOM      7  C   UNL     1      -1.980  -0.186  25.292  0.00  0.00    +0.155 C 
ATOM      8  C   UNL     1      -1.648  -0.916  25.100  0.00  0.00    +0.055 C 
ATOM      9  C   UNL     1      -2.014  -1.577  24.769  0.00  0.00    +0.000 A 
ATOM     10  C   UNL     1      -1.617  -2.281  24.602  0.00  0.00    +0.095 A 
ATOM     11  N   UNL     1      -2.161  -2.809  24.277  0.00  0.00    -0.244 NA
ATOM     12  C   UNL     1      -2.894  -2.433  24.243  0.00  0.00    +0.081 A 
ATOM     13  C   UNL     1      -2.803  -1.670  24.547  0.00  0.00    +0.013 A 
ATOM     14  C   UNL     1      -3.421  -1.126  24.602  0.00  0.00    -0.005 A 
ATOM     15  C   UNL     1      -4.189  -1.412  24.315  0.00  0.00    -0.003 A 
ATOM     16  C   UNL     1      -4.280  -2.174  24.011  0.00  0.00    +0.001 A 
ATOM     17  C   UNL     1      -3.632  -2.684  23.975  0.00  0.00    +0.019 A 
ENDROOT
BRANCH   7  18
ATOM     18  C   UNL     1      -1.464   0.368  25.620  0.00  0.00    +0.258 C 
ATOM     19  O   UNL     1      -1.141   0.239  26.368  0.00  0.00    -0.272 OA
ATOM     20  N   UNL     1      -1.270   1.051  25.198  0.00  0.00    -0.199 NA
BRANCH  20  21
ATOM     21  C   UNL     1      -0.754   1.605  25.526  0.00  0.00    +0.142 C 
BRANCH  21  22
ATOM     22  C   UNL     1      -0.754   2.382  25.248  0.00  0.00    -0.001 A 
ATOM     23  C   UNL     1      -1.050   2.989  25.722  0.00  0.00    -0.003 A 
ATOM     24  C   UNL     1      -1.050   3.767  25.444  0.00  0.00    -0.000 A 
ATOM     25  C   UNL     1      -0.752   3.936  24.694  0.00  0.00    -0.000 A 
ATOM     26  C   UNL     1      -0.456   3.329  24.220  0.00  0.00    -0.000 A 
ATOM     27  C   UNL     1      -0.456   2.552  24.497  0.00  0.00    -0.003 A 
ENDBRANCH  21  22
ENDBRANCH  20  21
ENDBRANCH   7  18
BRANCH   5   4
ATOM      4  C   UNL     1      -4.119   0.053  24.874  0.00  0.00    +0.022 C 
BRANCH   4   2
ATOM      1  C   UNL     1      -3.938   1.093  23.911  0.00  0.00    +0.000 C 
ATOM      2  C   UNL     1      -4.133   0.854  24.676  0.00  0.00    +0.002 C 
ATOM      3  C   UNL     1      -4.342   1.416  25.244  0.00  0.00    +0.000 C 
ENDBRANCH   4   2
ENDBRANCH   5   4
TORSDOF 5
ENDMDL
MODEL 5
REMARK VINA RESULT:     -12.1      1.644      4.100
REMARK  Name = 
REMARK  5 active torsions:
REMARK  status: ('A' for Active; 'I' for Inactive)
REMARK    1  A    between atoms: C_2  and  C_4
REMARK    2  A    between atoms: C_4  and  C_5
REMARK    3  A    between atoms: C_7  and  C_18
REMARK    4  A    between atoms: N_20  and  C_21
REMARK    5  A    between atoms: C_21  and  C_22
REMARK                            x       y       z     vdW  Elec       q    Type
REMARK                         _______ _______ _______ _____ _____    ______ ____
ROOT
ATOM      5  C   UNL     1      -2.547  -0.746  24.364  0.00  0.00    +0.095 C 
ATOM      6  N   UNL     1      -2.928  -0.056  24.121  0.00  0.00    -0.207 NA
ATOM      7  C   UNL     1      -2.601   0.688  23.972  0.00  0.00    +0.155 C 
ATOM      8  C   UNL     1      -1.813   0.923  24.030  0.00  0.00    +0.055 C 
ATOM      9  C   UNL     1      -1.156   0.475  24.252  0.00  0.00    +0.000 A 
ATOM     10  C   UNL     1      -0.390   0.778  24.289  0.00  0.00    +0.095 A 
ATOM     11  N   UNL     1       0.114   0.171  24.529  0.00  0.00    -0.244 NA
ATOM     12  C   UNL     1      -0.341  -0.508  24.641  0.00  0.00    +0.081 A 
ATOM     13  C   UNL     1      -1.126  -0.320  24.469  0.00  0.00    +0.013 A 
ATOM     14  C   UNL     1      -1.746  -0.863  24.519  0.00  0.00    -0.005 A 
ATOM     15  C   UNL     1      -1.514  -1.662  24.769  0.00  0.00    -0.003 A 
ATOM     16  C   UNL     1      -0.729  -1.851  24.940  0.00  0.00    +0.001 A 
ATOM     17  C   UNL     1      -0.143  -1.273  24.876  0.00  0.00    +0.019 A 
ENDROOT
BRANCH   7  18
ATOM     18  C   UNL     1      -3.133   1.272  23.734  0.00  0.00    +0.258 C 
ATOM     19  O   UNL     1      -3.255   1.415  22.931  0.00  0.00    -0.272 OA
ATOM     20  N   UNL     1      -3.543   1.711  24.300  0.00  0.00    -0.199 NA
BRANCH  20  21
ATOM     21  C   UNL     1      -4.075   2.295  24.061  0.00  0.00    +0.142 C 
BRANCH  21  22
ATOM     22  C   UNL     1      -4.567   2.655  24.617  0.00  0.00    -0.001 A 
ATOM     23  C   UNL     1      -4.350   3.377  24.953  0.00  0.00    -0.003 A 
ATOM     24  C   UNL     1      -4.843   3.738  25.509  0.00  0.00    -0.000 A 
ATOM     25  C   UNL     1      -5.551   3.376  25.728  0.00  0.00    -0.000 A 
ATOM     26  C   UNL     1      -5.767   2.654  25.392  0.00  0.00    -0.000 A 
ATOM     27  C   UNL     1      -5.276   2.294  24.837  0.00  0.00    -0.003 A 
ENDBRANCH  21  22
ENDBRANCH  20  21
ENDBRANCH   7  18
BRANCH   5   4
ATOM      4  C   UNL     1      -3.032  -1.405  24.466  0.00  0.00    +0.022 C 
BRANCH   4   2
ATOM      1  C   UNL     1      -4.425  -1.389  24.144  0.00  0.00    +0.000 C 
ATOM      2  C   UNL     1      -3.819  -1.306  24.697  0.00  0.00    +0.002 C 
ATOM      3  C   UNL     1      -3.997  -1.124  25.483  0.00  0.00    +0.000 C 
ENDBRANCH   4   2
ENDBRANCH   5   4
TORSDOF 5
ENDMDL
