MODEL 1
REMARK VINA RESULT:     -10.5      0.000      0.000
REMARK  Name = 
REMARK  6 active torsions:
REMARK  status: ('A' for Active; 'I' for Inactive)
REMARK    1  A    between atoms: C_5  and  S_8
REMARK    2  A    between atoms: S_8  and  N_11
REMARK    3  A    between atoms: N_11  and  C_12
REMARK    4  A    between atoms: C_12  and  C_13
REMARK    5  A    between atoms: C_16  and  N_17
REMARK    6  A    between atoms: N_17  and  C_18
REMARK                            x       y       z     vdW  Elec       q    Type
REMARK                         _______ _______ _______ _____ _____    ______ ____
ROOT
ATOM     13  C   UNL     1      -2.630   0.842  24.936  0.00  0.00    +0.166 C 
ATOM     14  O   UNL     1      -2.071   0.236  24.927  0.00  0.00    -0.350 OA
ATOM     15  C   UNL     1      -2.469  -0.480  25.025  0.00  0.00    +0.162 C 
ATOM     16  C   UNL     1      -3.274  -0.317  25.094  0.00  0.00    +0.135 C 
ATOM     24  C   UNL     1      -3.374   0.501  25.039  0.00  0.00    +0.199 C 
ATOM     25  O   UNL     1      -4.091   0.905  25.080  0.00  0.00    -0.219 OA
ENDROOT
BRANCH  13  12
ATOM     12  C   UNL     1      -2.473   1.648  24.856  0.00  0.00    +0.148 C 
BRANCH  12  11
ATOM     11  N   UNL     1      -1.735   1.948  25.070  0.00  0.00    -0.075 NA
BRANCH  11   8
ATOM      8  S   UNL     1      -1.597   2.760  25.044  0.00  0.00    +0.077 S 
ATOM      9  O   UNL     1      -1.628   2.739  24.220  0.00  0.00    -0.152 OA
ATOM     10  O   UNL     1      -1.566   2.782  25.868  0.00  0.00    -0.152 OA
BRANCH   8   5
ATOM      1  C   UNL     1      -1.044   6.012  24.940  0.00  0.00    +0.031 C 
ATOM      2  C   UNL     1      -1.182   5.199  24.966  0.00  0.00    -0.022 A 
ATOM      3  C   UNL     1      -1.898   4.912  25.260  0.00  0.00    -0.003 A 
ATOM      4  C   UNL     1      -2.036   4.099  25.286  0.00  0.00    +0.020 A 
ATOM      5  C   UNL     1      -1.459   3.573  25.018  0.00  0.00    +0.124 A 
ATOM      6  C   UNL     1      -0.744   3.861  24.724  0.00  0.00    +0.020 A 
ATOM      7  C   UNL     1      -0.606   4.674  24.698  0.00  0.00    -0.003 A 
ENDBRANCH   8   5
ENDBRANCH  11   8
ENDBRANCH  12  11
ENDBRANCH  13  12
BRANCH  16  17
ATOM     17  N   UNL     1      -3.875  -0.872  25.200  0.00  0.00    -0.216 NA
BRANCH  17  18
ATOM     18  C   UNL     1      -3.841  -1.596  24.807  0.00  0.00    +0.073 C 
ATOM     19  C   UNL     1      -3.458  -2.238  25.156  0.00  0.00    +0.017 C 
ATOM     20  C   UNL     1      -3.424  -2.963  24.763  0.00  0.00    +0.001 C 
ATOM     21  C   UNL     1      -3.773  -3.045  24.020  0.00  0.00    +0.000 C 
ATOM     22  C   UNL     1      -4.156  -2.404  23.671  0.00  0.00    +0.001 C 
ATOM     23  C   UNL     1      -4.190  -1.680  24.063  0.00  0.00    +0.017 C 
ENDBRANCH  17  18
ENDBRANCH  16  17
TORSDOF 6
ENDMDL
MODEL 2
REMARK VINA RESULT:     -10.4      1.150      5.843
REMARK  Name = 
REMARK  6 active torsions:
REMARK  status: ('A' for Active; 'I' for Inactive)
REMARK    1  A    between atoms: C_5  and  S_8
REMARK    2  A    between atoms: S_8  and  N_11
REMARK    3  A    between atoms: N_11  and  C_12
REMARK    4  A    between atoms: C_12  and  C_13
REMARK    5  A    between atoms: C_16  and  N_17
REMARK    6  A    between atoms: N_17  and  C_18
REMARK                            x       y       z     vdW  Elec       q    Type
REMARK                         _______ _______ _______ _____ _____    ______ ____
ROOT
ATOM     13  C   UNL     1      -2.628   1.699  24.937  0.00  0.00    +0.166 C 
ATOM     14  O   UNL     1      -3.155   2.310  24.767  0.00  0.00    -0.350 OA
ATOM     15  C   UNL     1      -2.843   3.009  25.075  0.00  0.00    +0.162 C 
ATOM     16  C   UNL     1      -2.123   2.830  25.436  0.00  0.00    +0.135 C 
ATOM     24  C   UNL     1      -1.990   2.020  25.351  0.00  0.00    +0.199 C 
ATOM     25  O   UNL     1      -1.335   1.605  25.630  0.00  0.00    -0.219 OA
ENDROOT
BRANCH  13  12
ATOM     12  C   UNL     1      -2.722   0.906  24.731  0.00  0.00    +0.148 C 
BRANCH  12  11
ATOM     11  N   UNL     1      -3.474   0.569  24.718  0.00  0.00    -0.075 NA
BRANCH  11   8
ATOM      8  S   UNL     1      -3.561  -0.245  24.616  0.00  0.00    +0.077 S 
ATOM      9  O   UNL     1      -3.179  -0.194  23.886  0.00  0.00    -0.152 OA
ATOM     10  O   UNL     1      -3.942  -0.296  25.346  0.00  0.00    -0.152 OA
BRANCH   8   5
ATOM      1  C   UNL     1      -3.905  -3.501  24.208  0.00  0.00    +0.031 C 
ATOM      2  C   UNL     1      -3.819  -2.687  24.310  0.00  0.00    -0.022 A 
ATOM      3  C   UNL     1      -3.316  -2.396  24.896  0.00  0.00    -0.003 A 
ATOM      4  C   UNL     1      -3.230  -1.582  24.998  0.00  0.00    +0.020 A 
ATOM      5  C   UNL     1      -3.647  -1.059  24.514  0.00  0.00    +0.124 A 
ATOM      6  C   UNL     1      -4.149  -1.351  23.929  0.00  0.00    +0.020 A 
ATOM      7  C   UNL     1      -4.235  -2.165  23.827  0.00  0.00    -0.003 A 
ENDBRANCH   8   5
ENDBRANCH  11   8
ENDBRANCH  12  11
ENDBRANCH  13  12
BRANCH  16  17
ATOM     17  N   UNL     1      -1.625   3.366  25.815  0.00  0.00    -0.216 NA
BRANCH  17  18
ATOM     18  C   UNL     1      -1.426   4.077  25.447  0.00  0.00    +0.073 C 
ATOM     19  C   UNL     1      -1.914   4.736  25.532  0.00  0.00    +0.017 C 
ATOM     20  C   UNL     1      -1.716   5.448  25.164  0.00  0.00    +0.001 C 
ATOM     21  C   UNL     1      -1.028   5.499  24.710  0.00  0.00    +0.000 C 
ATOM     22  C   UNL     1      -0.541   4.839  24.624  0.00  0.00    +0.001 C 
ATOM     23  C   UNL     1      -0.739   4.129  24.992  0.00  0.00    +0.017 C 
ENDBRANCH  17  18
ENDBRANCH  16  17
TORSDOF 6
ENDMDL
