MODEL 1
REMARK VINA RESULT:     -12.2      0.000      0.000
REMARK  Name = 
REMARK  7 active torsions:
REMARK  status: ('A' for Active; 'I' for Inactive)
REMARK    1  A    between atoms: C_2  and  C_3
REMARK    2  A    between atoms: C_3  and  C_4
REMARK    3  A    between atoms: C_4  and  C_5
REMARK    4  A    between atoms: C_12  and  N_15
REMARK    5  A    between atoms: N_15  and  S_16
REMARK    6  A    between atoms: S_16  and  C_19
REMARK    7  A    between atoms: N_24  and  C_25
REMARK                            x       y       z     vdW  Elec       q    Type
REMARK                         _______ _______ _______ _____ _____    ______ ____
ROOT
ATOM      5  C   UNL     1      -4.638   1.875  24.866  0.00  0.00    +0.080 C 
ATOM      6  C   UNL     1      -5.425   1.897  25.113  0.00  0.00    +0.131 C 
ATOM      7  N   UNL     1      -5.732   2.584  25.451  0.00  0.00    -0.203 NA
ATOM      8  C   UNL     1      -5.253   3.249  25.542  0.00  0.00    +0.256 C 
ATOM      9  O   UNL     1      -5.561   3.936  25.880  0.00  0.00    -0.272 OA
ATOM     10  C   UNL     1      -4.466   3.227  25.295  0.00  0.00    +0.138 C 
ATOM     11  C   UNL     1      -3.866   3.793  25.314  0.00  0.00    +0.046 C 
ATOM     12  C   UNL     1      -3.188   3.456  24.988  0.00  0.00    +0.115 C 
ATOM     13  C   UNL     1      -3.368   2.681  24.768  0.00  0.00    +0.092 C 
ATOM     14  N   UNL     1      -4.158   2.541  24.957  0.00  0.00    -0.265 NA
ENDROOT
BRANCH   5   4
ATOM      4  C   UNL     1      -4.331   1.189  24.528  0.00  0.00    +0.027 C 
BRANCH   4   3
ATOM      3  C   UNL     1      -4.569   0.449  24.806  0.00  0.00    +0.089 C 
BRANCH   3   2
ATOM      1  O   UNL     1      -3.910  -0.296  23.781  0.00  0.00    -0.273 OA
ATOM      2  C   UNL     1      -4.172  -0.231  24.559  0.00  0.00    +0.246 C 
ATOM     24  N   UNL     1      -4.037  -0.845  25.093  0.00  0.00    -0.179 NA
BRANCH  24  25
ATOM     25  C   UNL     1      -3.640  -1.526  24.847  0.00  0.00    +0.073 A 
ATOM     26  C   UNL     1      -2.835  -1.613  25.006  0.00  0.00    +0.017 A 
ATOM     27  C   UNL     1      -2.438  -2.294  24.760  0.00  0.00    +0.001 A 
ATOM     28  C   UNL     1      -2.845  -2.885  24.355  0.00  0.00    +0.000 A 
ATOM     29  C   UNL     1      -3.650  -2.797  24.195  0.00  0.00    +0.001 A 
ATOM     30  C   UNL     1      -4.047  -2.117  24.442  0.00  0.00    +0.017 A 
ENDBRANCH  24  25
ENDBRANCH   3   2
ENDBRANCH   4   3
ENDBRANCH   5   4
BRANCH  12  15
ATOM     15  N   UNL     1      -2.456   3.827  24.899  0.00  0.00    -0.077 NA
BRANCH  15  16
ATOM     16  S   UNL     1      -1.768   3.450  25.151  0.00  0.00    +0.083 S 
ATOM     17  O   UNL     1      -1.625   3.196  24.379  0.00  0.00    -0.151 OA
ATOM     18  O   UNL     1      -1.911   3.705  25.923  0.00  0.00    -0.151 OA
BRANCH  16  19
ATOM     19  C   UNL     1      -1.079   3.073  25.403  0.00  0.00    +0.153 A 
ATOM     20  C   UNL     1      -0.854   2.947  26.187  0.00  0.00    +0.027 A 
ATOM     21  C   UNL     1      -0.129   2.551  26.183  0.00  0.00    +0.009 A 
ATOM     22  C   UNL     1       0.092   2.432  25.398  0.00  0.00    +0.037 A 
ATOM     23  S   UNL     1      -0.494   2.754  24.915  0.00  0.00    -0.067 S 
ENDBRANCH  16  19
ENDBRANCH  15  16
ENDBRANCH  12  15
TORSDOF 7
ENDMDL
MODEL 2
REMARK VINA RESULT:     -11.6      1.541      3.267
REMARK  Name = 
REMARK  7 active torsions:
REMARK  status: ('A' for Active; 'I' for Inactive)
REMARK    1  A    between atoms: C_2  and  C_3
REMARK    2  A    between atoms: C_3  and  C_4
REMARK    3  A    between atoms: C_4  and  C_5
REMARK    4  A    between atoms: C_12  and  N_15
REMARK    5  A    between atoms: N_15  and  S_16
REMARK    6  A    between atoms: S_16  and  C_19
REMARK    7  A    between atoms: N_24  and  C_25
REMARK                            x       y       z     vdW  Elec       q    Type
REMARK                         _______ _______ _______ _____ _____    ______ ____
ROOT
ATOM      5  C   UNL     1      -1.157   1.353  25.051  0.00  0.00    +0.080 C 
ATOM      6  C   UNL     1      -0.424   1.305  25.425  0.00  0.00    +0.131 C 
ATOM      7  N   UNL     1      -0.097   1.975  25.780  0.00  0.00    -0.203 NA
ATOM      8  C   UNL     1      -0.504   2.691  25.760  0.00  0.00    +0.256 C 
ATOM      9  O   UNL     1      -0.176   3.362  26.116  0.00  0.00    -0.272 OA
ATOM     10  C   UNL     1      -1.237   2.740  25.386  0.00  0.00    +0.138 C 
ATOM     11  C   UNL     1      -1.762   3.367  25.280  0.00  0.00    +0.046 C 
ATOM     12  C   UNL     1      -2.413   3.086  24.859  0.00  0.00    +0.115 C 
ATOM     13  C   UNL     1      -2.291   2.284  24.706  0.00  0.00    +0.092 C 
ATOM     14  N   UNL     1      -1.564   2.071  25.031  0.00  0.00    -0.265 NA
ENDROOT
BRANCH   5   4
ATOM      4  C   UNL     1      -1.484   0.684  24.697  0.00  0.00    +0.027 C 
BRANCH   4   3
ATOM      3  C   UNL     1      -1.600  -0.002  25.139  0.00  0.00    +0.089 C 
BRANCH   3   2
ATOM      1  O   UNL     1      -1.709  -1.063  24.188  0.00  0.00    -0.273 OA
ATOM      2  C   UNL     1      -2.024  -0.633  24.816  0.00  0.00    +0.246 C 
ATOM     24  N   UNL     1      -2.763  -0.833  25.124  0.00  0.00    -0.179 NA
BRANCH  24  25
ATOM     25  C   UNL     1      -3.187  -1.464  24.802  0.00  0.00    +0.073 A 
ATOM     26  C   UNL     1      -3.788  -1.319  24.256  0.00  0.00    +0.017 A 
ATOM     27  C   UNL     1      -4.212  -1.950  23.934  0.00  0.00    +0.001 A 
ATOM     28  C   UNL     1      -4.035  -2.723  24.158  0.00  0.00    +0.000 A 
ATOM     29  C   UNL     1      -3.433  -2.867  24.705  0.00  0.00    +0.001 A 
ATOM     30  C   UNL     1      -3.010  -2.236  25.026  0.00  0.00    +0.017 A 
ENDBRANCH  24  25
ENDBRANCH   3   2
ENDBRANCH   4   3
ENDBRANCH   5   4
BRANCH  12  15
ATOM     15  N   UNL     1      -3.072   3.528  24.632  0.00  0.00    -0.077 NA
BRANCH  15  16
ATOM     16  S   UNL     1      -3.829   3.280  24.844  0.00  0.00    +0.083 S 
ATOM     17  O   UNL     1      -3.930   2.948  24.094  0.00  0.00    -0.151 OA
ATOM     18  O   UNL     1      -3.728   3.611  25.592  0.00  0.00    -0.151 OA
BRANCH  16  19
ATOM     19  C   UNL     1      -4.586   3.031  25.055  0.00  0.00    +0.153 A 
ATOM     20  C   UNL     1      -4.998   2.396  24.725  0.00  0.00    +0.027 A 
ATOM     21  C   UNL     1      -5.732   2.347  25.100  0.00  0.00    +0.009 A 
ATOM     22  C   UNL     1      -5.774   2.951  25.660  0.00  0.00    +0.037 A 
ATOM     23  S   UNL     1      -5.067   3.374  25.632  0.00  0.00    -0.067 S 
ENDBRANCH  16  19
ENDBRANCH  15  16
ENDBRANCH  12  15
TORSDOF 7
ENDMDL
MODEL 3
REMARK VINA RESULT:     -10.8      2.379      5.335
REMARK  Name = 
REMARK  7 active torsions:
REMARK  status: ('A' for Active; 'I' for Inactive)
REMARK    1  A    between atoms: C_2  and  C_3
REMARK    2  A    between atoms: C_3  and  C_4
REMARK    3  A    between atoms: C_4  and  C_5
REMARK    4  A    between atoms: C_12  and  N_15
REMARK    5  A    between atoms: N_15  and  S_16
REMARK    6  A    between atoms: S_16  and  C_19
REMARK    7  A    between atoms: N_24  and  C_25
REMARK                            x       y       z     vdW  Elec       q    Type
REMARK                         _______ _______ _______ _____ _____    ______ ____
ROOT
ATOM      5  C   UNL     1      -0.917   1.276  24.608  0.00  0.00    +0.080 C 
ATOM      6  C   UNL     1      -0.340   1.666  24.166  0.00  0.00    +0.131 C 
ATOM      7  N   UNL     1       0.223   1.231  23.748  0.00  0.00    -0.203 NA
ATOM      8  C   UNL     1       0.208   0.407  23.771  0.00  0.00    +0.256 C 
ATOM      9  O   UNL     1       0.772  -0.028  23.352  0.00  0.00    -0.272 OA
ATOM     10  C   UNL     1      -0.369   0.016  24.213  0.00  0.00    +0.138 C 
ATOM     11  C   UNL     1      -0.519  -0.784  24.339  0.00  0.00    +0.046 C 
ATOM     12  C   UNL     1      -1.175  -0.845  24.836  0.00  0.00    +0.115 C 
ATOM     13  C   UNL     1      -1.430  -0.081  25.016  0.00  0.00    +0.092 C 
ATOM     14  N   UNL     1      -0.932   0.451  24.631  0.00  0.00    -0.265 NA
ENDROOT
BRANCH   5   4
ATOM      4  C   UNL     1      -1.480   1.710  25.026  0.00  0.00    +0.027 C 
BRANCH   4   3
ATOM      3  C   UNL     1      -1.907   2.306  24.647  0.00  0.00    +0.089 C 
BRANCH   3   2
ATOM      1  O   UNL     1      -2.611   2.926  25.724  0.00  0.00    -0.273 OA
ATOM      2  C   UNL     1      -2.613   2.580  24.976  0.00  0.00    +0.246 C 
ATOM     24  N   UNL     1      -3.319   2.507  24.556  0.00  0.00    -0.179 NA
BRANCH  24  25
ATOM     25  C   UNL     1      -4.024   2.781  24.886  0.00  0.00    +0.073 A 
ATOM     26  C   UNL     1      -4.583   2.244  25.169  0.00  0.00    +0.017 A 
ATOM     27  C   UNL     1      -5.288   2.518  25.498  0.00  0.00    +0.001 A 
ATOM     28  C   UNL     1      -5.435   3.328  25.544  0.00  0.00    +0.000 A 
ATOM     29  C   UNL     1      -4.875   3.865  25.261  0.00  0.00    +0.001 A 
ATOM     30  C   UNL     1      -4.171   3.591  24.932  0.00  0.00    +0.017 A 
ENDBRANCH  24  25
ENDBRANCH   3   2
ENDBRANCH   4   3
ENDBRANCH   5   4
BRANCH  12  15
ATOM     15  N   UNL     1      -1.517  -1.546  25.104  0.00  0.00    -0.077 NA
BRANCH  15  16
ATOM     16  S   UNL     1      -2.252  -1.785  24.816  0.00  0.00    +0.083 S 
ATOM     17  O   UNL     1      -2.622  -1.413  25.453  0.00  0.00    -0.151 OA
ATOM     18  O   UNL     1      -1.881  -2.156  24.179  0.00  0.00    -0.151 OA
BRANCH  16  19
ATOM     19  C   UNL     1      -2.987  -2.023  24.528  0.00  0.00    +0.153 A 
ATOM     20  C   UNL     1      -3.582  -1.525  24.247  0.00  0.00    +0.027 A 
ATOM     21  C   UNL     1      -4.220  -1.996  24.016  0.00  0.00    +0.009 A 
ATOM     22  C   UNL     1      -4.019  -2.783  24.154  0.00  0.00    +0.037 A 
ATOM     23  S   UNL     1      -3.257  -2.801  24.471  0.00  0.00    -0.067 S 
ENDBRANCH  16  19
ENDBRANCH  15  16
ENDBRANCH  12  15
TORSDOF 7
ENDMDL
MODEL 4
REMARK VINA RESULT:     -10.4      1.955      5.278
REMARK  Name = 
REMARK  7 active torsions:
REMARK  status: ('A' for Active; 'I' for Inactive)
REMARK    1  A    between atoms: C_2  and  C_3
REMARK    2  A    between atoms: C_3  and  C_4
REMARK    3  A    between atoms: C_4  and  C_5
REMARK    4  A    between atoms: C_12  and  N_15
REMARK    5  A    between atoms: N_15  and  S_16
REMARK    6  A    between atoms: S_16  and  C_19
REMARK    7  A    between atoms: N_24  and  C_25
REMARK                            x       y       z     vdW  Elec       q    Type
REMARK                         _______ _______ _______ _____ _____    ______ ____
ROOT
ATOM      5  C   UNL     1      -1.238  -0.025  25.261  0.00  0.00    +0.080 C 
ATOM      6  C   UNL     1      -0.579  -0.495  25.102  0.00  0.00    +0.131 C 
ATOM      7  N   UNL     1      -0.677  -1.253  24.792  0.00  0.00    -0.203 NA
ATOM      8  C   UNL     1      -1.435  -1.541  24.640  0.00  0.00    +0.256 C 
ATOM      9  O   UNL     1      -1.533  -2.300  24.329  0.00  0.00    -0.272 OA
ATOM     10  C   UNL     1      -2.095  -1.072  24.799  0.00  0.00    +0.138 C 
ATOM     11  C   UNL     1      -2.903  -1.207  24.707  0.00  0.00    +0.046 C 
ATOM     12  C   UNL     1      -3.305  -0.533  24.961  0.00  0.00    +0.115 C 
ATOM     13  C   UNL     1      -2.744   0.019  25.210  0.00  0.00    +0.092 C 
ATOM     14  N   UNL     1      -1.997  -0.314  25.110  0.00  0.00    -0.265 NA
ENDROOT
BRANCH   5   4
ATOM      4  C   UNL     1      -1.140   0.732  25.571  0.00  0.00    +0.027 C 
BRANCH   4   3
ATOM      3  C   UNL     1      -0.674   1.284  25.173  0.00  0.00    +0.089 C 
BRANCH   3   2
ATOM      1  O   UNL     1      -0.549   2.394  26.064  0.00  0.00    -0.273 OA
ATOM      2  C   UNL     1      -0.765   2.090  25.330  0.00  0.00    +0.246 C 
ATOM     24  N   UNL     1      -1.073   2.590  24.750  0.00  0.00    -0.179 NA
BRANCH  24  25
ATOM     25  C   UNL     1      -1.164   3.395  24.907  0.00  0.00    +0.073 A 
ATOM     26  C   UNL     1      -1.841   3.665  25.293  0.00  0.00    +0.017 A 
ATOM     27  C   UNL     1      -1.933   4.471  25.450  0.00  0.00    +0.001 A 
ATOM     28  C   UNL     1      -1.348   5.004  25.220  0.00  0.00    +0.000 A 
ATOM     29  C   UNL     1      -0.670   4.733  24.834  0.00  0.00    +0.001 A 
ATOM     30  C   UNL     1      -0.580   3.928  24.677  0.00  0.00    +0.017 A 
ENDBRANCH  24  25
ENDBRANCH   3   2
ENDBRANCH   4   3
ENDBRANCH   5   4
BRANCH  12  15
ATOM     15  N   UNL     1      -4.123  -0.429  24.965  0.00  0.00    -0.077 NA
BRANCH  15  16
ATOM     16  S   UNL     1      -4.443   0.330  24.914  0.00  0.00    +0.083 S 
ATOM     17  O   UNL     1      -4.313   0.329  24.099  0.00  0.00    -0.151 OA
ATOM     18  O   UNL     1      -4.572   0.330  25.729  0.00  0.00    -0.151 OA
BRANCH  16  19
ATOM     19  C   UNL     1      -4.762   1.088  24.863  0.00  0.00    +0.153 A 
ATOM     20  C   UNL     1      -4.581   1.653  24.289  0.00  0.00    +0.027 A 
ATOM     21  C   UNL     1      -5.027   2.329  24.448  0.00  0.00    +0.009 A 
ATOM     22  C   UNL     1      -5.483   2.182  25.118  0.00  0.00    +0.037 A 
ATOM     23  S   UNL     1      -5.320   1.416  25.375  0.00  0.00    -0.067 S 
ENDBRANCH  16  19
ENDBRANCH  15  16
ENDBRANCH  12  15
TORSDOF 7
ENDMDL
MODEL 5
REMARK VINA RESULT:     -10.3      1.624      4.227
REMARK  Name = 
REMARK  7 active torsions:
REMARK  status: ('A' for Active; 'I' for Inactive)
REMARK    1  A    between atoms: C_2  and  C_3
REMARK    2  A    between atoms: C_3  and  C_4
REMARK    3  A    between atoms: C_4  and  C_5
REMARK    4  A    between atoms: C_12  and  N_15
REMARK    5  A    between atoms: N_15  and  S_16
REMARK    6  A    between atoms: S_16  and  C_19
REMARK    7  A    between atoms: N_24  and  C_25
REMARK                            x       y       z     vdW  Elec       q    Type
REMARK                         _______ _______ _______ _____ _____    ______ ____
ROOT
ATOM      5  C   UNL     1      -3.387  -1.177  24.993  0.00  0.00    +0.080 C 
ATOM      6  C   UNL     1      -3.743  -1.838  24.652  0.00  0.00    +0.131 C 
ATOM      7  N   UNL     1      -3.277  -2.434  24.321  0.00  0.00    -0.203 NA
ATOM      8  C   UNL     1      -2.455  -2.367  24.332  0.00  0.00    +0.256 C 
ATOM      9  O   UNL     1      -1.989  -2.963  24.001  0.00  0.00    -0.272 OA
ATOM     10  C   UNL     1      -2.098  -1.706  24.673  0.00  0.00    +0.138 C 
ATOM     11  C   UNL     1      -1.307  -1.491  24.764  0.00  0.00    +0.046 C 
ATOM     12  C   UNL     1      -1.284  -0.763  25.150  0.00  0.00    +0.115 C 
ATOM     13  C   UNL     1      -2.061  -0.528  25.299  0.00  0.00    +0.092 C 
ATOM     14  N   UNL     1      -2.564  -1.111  25.003  0.00  0.00    -0.265 NA
ENDROOT
BRANCH   5   4
ATOM      4  C   UNL     1      -3.852  -0.583  25.323  0.00  0.00    +0.027 C 
BRANCH   4   3
ATOM      3  C   UNL     1      -4.347  -0.130  24.843  0.00  0.00    +0.089 C 
BRANCH   3   2
ATOM      1  O   UNL     1      -5.030   0.628  25.842  0.00  0.00    -0.273 OA
ATOM      2  C   UNL     1      -4.641   0.591  25.117  0.00  0.00    +0.246 C 
ATOM     24  N   UNL     1      -4.545   1.274  24.664  0.00  0.00    -0.179 NA
BRANCH  24  25
ATOM     25  C   UNL     1      -4.839   1.995  24.938  0.00  0.00    +0.073 A 
ATOM     26  C   UNL     1      -4.318   2.603  25.137  0.00  0.00    +0.017 A 
ATOM     27  C   UNL     1      -4.612   3.324  25.411  0.00  0.00    +0.001 A 
ATOM     28  C   UNL     1      -5.425   3.436  25.486  0.00  0.00    +0.000 A 
ATOM     29  C   UNL     1      -5.946   2.827  25.287  0.00  0.00    +0.001 A 
ATOM     30  C   UNL     1      -5.652   2.107  25.013  0.00  0.00    +0.017 A 
ENDBRANCH  24  25
ENDBRANCH   3   2
ENDBRANCH   4   3
ENDBRANCH   5   4
BRANCH  12  15
ATOM     15  N   UNL     1      -0.603  -0.344  25.354  0.00  0.00    -0.077 NA
BRANCH  15  16
ATOM     16  S   UNL     1      -0.547   0.460  25.179  0.00  0.00    +0.083 S 
ATOM     17  O   UNL     1      -0.298   0.276  24.413  0.00  0.00    -0.151 OA
ATOM     18  O   UNL     1      -0.795   0.644  25.943  0.00  0.00    -0.151 OA
BRANCH  16  19
ATOM     19  C   UNL     1      -0.489   1.264  25.003  0.00  0.00    +0.153 A 
ATOM     20  C   UNL     1      -0.710   1.886  25.499  0.00  0.00    +0.027 A 
ATOM     21  C   UNL     1      -0.558   2.594  25.102  0.00  0.00    +0.009 A 
ATOM     22  C   UNL     1      -0.244   2.410  24.362  0.00  0.00    +0.037 A 
ATOM     23  S   UNL     1      -0.202   1.588  24.300  0.00  0.00    -0.067 S 
ENDBRANCH  16  19
ENDBRANCH  15  16
ENDBRANCH  12  15
TORSDOF 7
ENDMDL
MODEL 6
REMARK VINA RESULT:     -10.3      1.676      4.515
REMARK  Name = 
REMARK  7 active torsions:
REMARK  status: ('A' for Active; 'I' for Inactive)
REMARK    1  A    between atoms: C_2  and  C_3
REMARK    2  A    between atoms: C_3  and  C_4
REMARK    3  A    between atoms: C_4  and  C_5
REMARK    4  A    between atoms: C_12  and  N_15
REMARK    5  A    between atoms: N_15  and  S_16
REMARK    6  A    between atoms: S_16  and  C_19
REMARK    7  A    between atoms: N_24  and  C_25
REMARK                            x       y       z     vdW  Elec       q    Type
REMARK                         _______ _______ _______ _____ _____    ______ ____
ROOT
ATOM      5  C   UNL     1      -4.825   2.774  25.212  0.00  0.00    +0.080 C 
ATOM      6  C   UNL     1      -5.373   3.176  25.679  0.00  0.00    +0.131 C 
ATOM      7  N   UNL     1      -5.975   2.760  26.060  0.00  0.00    -0.203 NA
ATOM      8  C   UNL     1      -6.030   1.942  25.973  0.00  0.00    +0.256 C 
ATOM      9  O   UNL     1      -6.633   1.525  26.354  0.00  0.00    -0.272 OA
ATOM     10  C   UNL     1      -5.482   1.538  25.506  0.00  0.00    +0.138 C 
ATOM     11  C   UNL     1      -5.398   0.740  25.319  0.00  0.00    +0.046 C 
ATOM     12  C   UNL     1      -4.743   0.662  24.823  0.00  0.00    +0.115 C 
ATOM     13  C   UNL     1      -4.423   1.413  24.703  0.00  0.00    +0.092 C 
ATOM     14  N   UNL     1      -4.880   1.954  25.125  0.00  0.00    -0.265 NA
ENDROOT
BRANCH   5   4
ATOM      4  C   UNL     1      -4.224   3.189  24.832  0.00  0.00    +0.027 C 
BRANCH   4   3
ATOM      3  C   UNL     1      -3.850   3.817  25.214  0.00  0.00    +0.089 C 
BRANCH   3   2
ATOM      1  O   UNL     1      -2.995   4.254  24.156  0.00  0.00    -0.273 OA
ATOM      2  C   UNL     1      -3.111   4.078  24.953  0.00  0.00    +0.246 C 
ATOM     24  N   UNL     1      -2.490   4.161  25.489  0.00  0.00    -0.179 NA
BRANCH  24  25
ATOM     25  C   UNL     1      -1.752   4.422  25.228  0.00  0.00    +0.073 A 
ATOM     26  C   UNL     1      -1.608   5.229  25.140  0.00  0.00    +0.017 A 
ATOM     27  C   UNL     1      -0.869   5.490  24.878  0.00  0.00    +0.001 A 
ATOM     28  C   UNL     1      -0.277   4.944  24.705  0.00  0.00    +0.000 A 
ATOM     29  C   UNL     1      -0.422   4.136  24.793  0.00  0.00    +0.001 A 
ATOM     30  C   UNL     1      -1.159   3.876  25.054  0.00  0.00    +0.017 A 
ENDBRANCH  24  25
ENDBRANCH   3   2
ENDBRANCH   4   3
ENDBRANCH   5   4
BRANCH  12  15
ATOM     15  N   UNL     1      -4.458  -0.043  24.503  0.00  0.00    -0.077 NA
BRANCH  15  16
ATOM     16  S   UNL     1      -3.735  -0.349  24.756  0.00  0.00    +0.083 S 
ATOM     17  O   UNL     1      -3.361   0.004  24.110  0.00  0.00    -0.151 OA
ATOM     18  O   UNL     1      -4.109  -0.701  25.401  0.00  0.00    -0.151 OA
BRANCH  16  19
ATOM     19  C   UNL     1      -3.012  -0.654  25.007  0.00  0.00    +0.153 A 
ATOM     20  C   UNL     1      -2.855  -0.980  25.750  0.00  0.00    +0.027 A 
ATOM     21  C   UNL     1      -2.063  -1.215  25.762  0.00  0.00    +0.009 A 
ATOM     22  C   UNL     1      -1.732  -1.034  25.029  0.00  0.00    +0.037 A 
ATOM     23  S   UNL     1      -2.318  -0.688  24.562  0.00  0.00    -0.067 S 
ENDBRANCH  16  19
ENDBRANCH  15  16
ENDBRANCH  12  15
TORSDOF 7
ENDMDL
MODEL 7
REMARK VINA RESULT:      -9.4      1.791      3.857
REMARK  Name = 
REMARK  7 active torsions:
REMARK  status: ('A' for Active; 'I' for Inactive)
REMARK    1  A    between atoms: C_2  and  C_3
REMARK    2  A    between atoms: C_3  and  C_4
REMARK    3  A    between atoms: C_4  and  C_5
REMARK    4  A    between atoms: C_12  and  N_15
REMARK    5  A    between atoms: N_15  and  S_16
REMARK    6  A    between atoms: S_16  and  C_19
REMARK    7  A    between atoms: N_24  and  C_25
REMARK                            x       y       z     vdW  Elec       q    Type
REMARK                         _______ _______ _______ _____ _____    ______ ____
ROOT
ATOM      5  C   UNL     1      -3.598   2.920  24.706  0.00  0.00    +0.080 C 
ATOM      6  C   UNL     1      -3.753   3.655  25.046  0.00  0.00    +0.131 C 
ATOM      7  N   UNL     1      -4.430   3.764  25.505  0.00  0.00    -0.203 NA
ATOM      8  C   UNL     1      -4.952   3.137  25.624  0.00  0.00    +0.256 C 
ATOM      9  O   UNL     1      -5.630   3.246  26.084  0.00  0.00    -0.272 OA
ATOM     10  C   UNL     1      -4.798   2.401  25.284  0.00  0.00    +0.138 C 
ATOM     11  C   UNL     1      -5.210   1.687  25.304  0.00  0.00    +0.046 C 
ATOM     12  C   UNL     1      -4.788   1.137  24.858  0.00  0.00    +0.115 C 
ATOM     13  C   UNL     1      -4.115   1.511  24.561  0.00  0.00    +0.092 C 
ATOM     14  N   UNL     1      -4.122   2.292  24.825  0.00  0.00    -0.265 NA
ENDROOT
BRANCH   5   4
ATOM      4  C   UNL     1      -2.922   2.812  24.247  0.00  0.00    +0.027 C 
BRANCH   4   3
ATOM      3  C   UNL     1      -2.175   2.875  24.591  0.00  0.00    +0.089 C 
BRANCH   3   2
ATOM      1  O   UNL     1      -1.327   2.649  23.463  0.00  0.00    -0.273 OA
ATOM      2  C   UNL     1      -1.529   2.493  24.247  0.00  0.00    +0.246 C 
ATOM     24  N   UNL     1      -1.086   1.955  24.688  0.00  0.00    -0.179 NA
BRANCH  24  25
ATOM     25  C   UNL     1      -0.440   1.573  24.344  0.00  0.00    +0.073 A 
ATOM     26  C   UNL     1       0.299   1.939  24.338  0.00  0.00    +0.017 A 
ATOM     27  C   UNL     1       0.945   1.557  23.994  0.00  0.00    +0.001 A 
ATOM     28  C   UNL     1       0.851   0.811  23.657  0.00  0.00    +0.000 A 
ATOM     29  C   UNL     1       0.111   0.445  23.663  0.00  0.00    +0.001 A 
ATOM     30  C   UNL     1      -0.534   0.827  24.007  0.00  0.00    +0.017 A 
ENDBRANCH  24  25
ENDBRANCH   3   2
ENDBRANCH   4   3
ENDBRANCH   5   4
BRANCH  12  15
ATOM     15  N   UNL     1      -5.001   0.350  24.730  0.00  0.00    -0.077 NA
BRANCH  15  16
ATOM     16  S   UNL     1      -4.439  -0.249  24.814  0.00  0.00    +0.083 S 
ATOM     17  O   UNL     1      -4.364  -0.292  23.992  0.00  0.00    -0.151 OA
ATOM     18  O   UNL     1      -4.515  -0.205  25.634  0.00  0.00    -0.151 OA
BRANCH  16  19
ATOM     19  C   UNL     1      -3.878  -0.847  24.896  0.00  0.00    +0.153 A 
ATOM     20  C   UNL     1      -3.448  -1.018  25.580  0.00  0.00    +0.027 A 
ATOM     21  C   UNL     1      -2.952  -1.657  25.415  0.00  0.00    +0.009 A 
ATOM     22  C   UNL     1      -3.075  -1.881  24.631  0.00  0.00    +0.037 A 
ATOM     23  S   UNL     1      -3.647  -1.381  24.310  0.00  0.00    -0.067 S 
ENDBRANCH  16  19
ENDBRANCH  15  16
ENDBRANCH  12  15
TORSDOF 7
ENDMDL
MODEL 8
REMARK VINA RESULT:      -9.3     15.869     18.781
REMARK  Name = 
REMARK  7 active torsions:
REMARK  status: ('A' for Active; 'I' for Inactive)
REMARK    1  A    between atoms: C_2  and  C_3
REMARK    2  A    between atoms: C_3  and  C_4
REMARK    3  A    between atoms: C_4  and  C_5
REMARK    4  A    between atoms: C_12  and  N_15
REMARK    5  A    between atoms: N_15  and  S_16
REMARK    6  A    between atoms: S_16  and  C_19
REMARK    7  A    between atoms: N_24  and  C_25
REMARK                            x       y       z     vdW  Elec       q    Type
REMARK                         _______ _______ _______ _____ _____    ______ ____
ROOT
ATOM      5  C   UNL     1      13.309   8.119  18.104  0.00  0.00    +0.080 C 
ATOM      6  C   UNL     1      13.313   7.891  17.311  0.00  0.00    +0.131 C 
ATOM      7  N   UNL     1      12.615   7.913  16.872  0.00  0.00    -0.203 NA
ATOM      8  C   UNL     1      11.913   8.161  17.226  0.00  0.00    +0.256 C 
ATOM      9  O   UNL     1      11.214   8.183  16.786  0.00  0.00    -0.272 OA
ATOM     10  C   UNL     1      11.908   8.389  18.019  0.00  0.00    +0.138 C 
ATOM     11  C   UNL     1      11.304   8.657  18.512  0.00  0.00    +0.046 C 
ATOM     12  C   UNL     1      11.629   8.802  19.256  0.00  0.00    +0.115 C 
ATOM     13  C   UNL     1      12.434   8.623  19.223  0.00  0.00    +0.092 C 
ATOM     14  N   UNL     1      12.606   8.368  18.458  0.00  0.00    -0.265 NA
ENDROOT
BRANCH   5   4
ATOM      4  C   UNL     1      14.006   8.098  18.542  0.00  0.00    +0.027 C 
BRANCH   4   3
ATOM      3  C   UNL     1      14.499   7.438  18.503  0.00  0.00    +0.089 C 
BRANCH   3   2
ATOM      1  O   UNL     1      15.540   8.042  19.274  0.00  0.00    -0.273 OA
ATOM      2  C   UNL     1      15.137   7.368  19.022  0.00  0.00    +0.246 C 
ATOM     24  N   UNL     1      15.371   6.623  19.290  0.00  0.00    -0.179 NA
BRANCH  24  25
ATOM     25  C   UNL     1      16.009   6.554  19.809  0.00  0.00    +0.073 A 
ATOM     26  C   UNL     1      16.767   6.420  19.514  0.00  0.00    +0.017 A 
ATOM     27  C   UNL     1      17.405   6.350  20.034  0.00  0.00    +0.001 A 
ATOM     28  C   UNL     1      17.284   6.414  20.846  0.00  0.00    +0.000 A 
ATOM     29  C   UNL     1      16.524   6.548  21.141  0.00  0.00    +0.001 A 
ATOM     30  C   UNL     1      15.888   6.617  20.622  0.00  0.00    +0.017 A 
ENDBRANCH  24  25
ENDBRANCH   3   2
ENDBRANCH   4   3
ENDBRANCH   5   4
BRANCH  12  15
ATOM     15  N   UNL     1      11.221   9.077  19.918  0.00  0.00    -0.077 NA
BRANCH  15  16
ATOM     16  S   UNL     1      11.049   8.564  20.541  0.00  0.00    +0.083 S 
ATOM     17  O   UNL     1      10.361   8.324  20.153  0.00  0.00    -0.151 OA
ATOM     18  O   UNL     1      11.737   8.804  20.928  0.00  0.00    -0.151 OA
BRANCH  16  19
ATOM     19  C   UNL     1      10.877   8.051  21.162  0.00  0.00    +0.153 A 
ATOM     20  C   UNL     1      11.016   7.237  21.172  0.00  0.00    +0.027 A 
ATOM     21  C   UNL     1      10.760   6.944  21.901  0.00  0.00    +0.009 A 
ATOM     22  C   UNL     1      10.464   7.576  22.340  0.00  0.00    +0.037 A 
ATOM     23  S   UNL     1      10.536   8.260  21.885  0.00  0.00    -0.067 S 
ENDBRANCH  16  19
ENDBRANCH  15  16
ENDBRANCH  12  15
TORSDOF 7
ENDMDL
MODEL 9
REMARK VINA RESULT:      -9.1      2.180      3.607
REMARK  Name = 
REMARK  7 active torsions:
REMARK  status: ('A' for Active; 'I' for Inactive)
REMARK    1  A    between atoms: C_2  and  C_3
REMARK    2  A    between atoms: C_3  and  C_4
REMARK    3  A    between atoms: C_4  and  C_5
REMARK    4  A    between atoms: C_12  and  N_15
REMARK    5  A    between atoms: N_15  and  S_16
REMARK    6  A    between atoms: S_16  and  C_19
REMARK    7  A    between atoms: N_24  and  C_25
REMARK                            x       y       z     vdW  Elec       q    Type
REMARK                         _______ _______ _______ _____ _____    ______ ____
ROOT
ATOM      5  C   UNL     1      -0.472   0.447  24.353  0.00  0.00    +0.080 C 
ATOM      6  C   UNL     1       0.045   0.142  23.787  0.00  0.00    +0.131 C 
ATOM      7  N   UNL     1       0.725   0.561  23.579  0.00  0.00    -0.203 NA
ATOM      8  C   UNL     1       0.888   1.285  23.937  0.00  0.00    +0.256 C 
ATOM      9  O   UNL     1       1.568   1.705  23.729  0.00  0.00    -0.272 OA
ATOM     10  C   UNL     1       0.372   1.592  24.504  0.00  0.00    +0.138 C 
ATOM     11  C   UNL     1       0.388   2.287  24.947  0.00  0.00    +0.046 C 
ATOM     12  C   UNL     1      -0.281   2.298  25.428  0.00  0.00    +0.115 C 
ATOM     13  C   UNL     1      -0.712   1.609  25.283  0.00  0.00    +0.092 C 
ATOM     14  N   UNL     1      -0.308   1.173  24.711  0.00  0.00    -0.265 NA
ENDROOT
BRANCH   5   4
ATOM      4  C   UNL     1      -1.151   0.029  24.560  0.00  0.00    +0.027 C 
BRANCH   4   3
ATOM      3  C   UNL     1      -1.105  -0.779  24.721  0.00  0.00    +0.089 C 
BRANCH   3   2
ATOM      1  O   UNL     1      -1.590  -1.855  23.916  0.00  0.00    -0.273 OA
ATOM      2  C   UNL     1      -1.720  -1.280  24.492  0.00  0.00    +0.246 C 
ATOM     24  N   UNL     1      -2.464  -1.204  24.840  0.00  0.00    -0.179 NA
BRANCH  24  25
ATOM     25  C   UNL     1      -3.079  -1.705  24.611  0.00  0.00    +0.073 A 
ATOM     26  C   UNL     1      -3.130  -2.466  24.927  0.00  0.00    +0.017 A 
ATOM     27  C   UNL     1      -3.745  -2.967  24.698  0.00  0.00    +0.001 A 
ATOM     28  C   UNL     1      -4.307  -2.707  24.154  0.00  0.00    +0.000 A 
ATOM     29  C   UNL     1      -4.256  -1.946  23.838  0.00  0.00    +0.001 A 
ATOM     30  C   UNL     1      -3.641  -1.446  24.067  0.00  0.00    +0.017 A 
ENDBRANCH  24  25
ENDBRANCH   3   2
ENDBRANCH   4   3
ENDBRANCH   5   4
BRANCH  12  15
ATOM     15  N   UNL     1      -0.485   2.893  25.962  0.00  0.00    -0.077 NA
BRANCH  15  16
ATOM     16  S   UNL     1      -1.076   3.435  25.770  0.00  0.00    +0.083 S 
ATOM     17  O   UNL     1      -1.620   2.997  26.210  0.00  0.00    -0.151 OA
ATOM     18  O   UNL     1      -0.533   3.873  25.331  0.00  0.00    -0.151 OA
BRANCH  16  19
ATOM     19  C   UNL     1      -1.668   3.977  25.579  0.00  0.00    +0.153 A 
ATOM     20  C   UNL     1      -1.556   4.708  25.213  0.00  0.00    +0.027 A 
ATOM     21  C   UNL     1      -2.296   5.065  25.128  0.00  0.00    +0.009 A 
ATOM     22  C   UNL     1      -2.863   4.556  25.441  0.00  0.00    +0.037 A 
ATOM     23  S   UNL     1      -2.476   3.883  25.720  0.00  0.00    -0.067 S 
ENDBRANCH  16  19
ENDBRANCH  15  16
ENDBRANCH  12  15
TORSDOF 7
ENDMDL
