MODEL 1
REMARK VINA RESULT:     -16.5      0.000      0.000
REMARK  Name = 
REMARK  4 active torsions:
REMARK  status: ('A' for Active; 'I' for Inactive)
REMARK    1  A    between atoms: C_2  and  C_26
REMARK    2  A    between atoms: C_12  and  N_13
REMARK    3  A    between atoms: N_13  and  S_14
REMARK    4  A    between atoms: S_14  and  C_17
REMARK                            x       y       z     vdW  Elec       q    Type
REMARK                         _______ _______ _______ _____ _____    ______ ____
ROOT
ATOM      1  O   UNL     1      -1.683  -0.659  26.236  0.00  0.00    -0.270 OA
ATOM      2  C   UNL     1      -2.262  -0.581  25.582  0.00  0.00    +0.249 C 
ATOM      3  N   UNL     1      -2.636  -1.324  25.386  0.00  0.00    -0.276 N 
ATOM      4  C   UNL     1      -2.730  -2.144  25.515  0.00  0.00    +0.096 C 
ATOM      5  C   UNL     1      -3.411  -2.343  24.828  0.00  0.00    +0.043 C 
ATOM      6  C   UNL     1      -3.960  -2.666  24.320  0.00  0.00    +0.011 C 
ATOM      7  C   UNL     1      -3.680  -2.036  24.448  0.00  0.00    +0.058 C 
ATOM      8  C   UNL     1      -3.021  -1.860  25.116  0.00  0.00    +0.099 C 
ATOM      9  C   UNL     1      -3.712  -1.162  24.165  0.00  0.00    +0.041 A 
ATOM     10  C   UNL     1      -4.092  -0.681  23.614  0.00  0.00    +0.014 A 
ATOM     11  C   UNL     1      -3.916   0.124  23.578  0.00  0.00    +0.024 A 
ATOM     12  C   UNL     1      -3.300   0.390  24.176  0.00  0.00    +0.147 A 
ATOM     22  C   UNL     1      -2.979  -0.033  24.645  0.00  0.00    +0.277 A 
ATOM     23  O   UNL     1      -2.272   0.280  25.328  0.00  0.00    -0.266 OA
ATOM     24  N   UNL     1      -3.155  -0.838  24.681  0.00  0.00    -0.298 N 
ATOM     25  C   UNL     1      -3.438  -1.428  24.539  0.00  0.00    +0.110 C 
ENDROOT
BRANCH   2  26
ATOM     26  C   UNL     1      -2.626   0.054  25.006  0.00  0.00    +0.054 A 
ATOM     27  C   UNL     1      -2.085   0.412  24.497  0.00  0.00    +0.005 A 
ATOM     28  C   UNL     1      -2.340   0.984  23.960  0.00  0.00    +0.000 A 
ATOM     29  C   UNL     1      -3.136   1.197  23.931  0.00  0.00    +0.000 A 
ATOM     30  C   UNL     1      -3.392   1.769  23.394  0.00  0.00    +0.000 A 
ATOM     31  C   UNL     1      -2.850   2.127  22.885  0.00  0.00    +0.000 A 
ATOM     32  C   UNL     1      -2.054   1.914  22.914  0.00  0.00    +0.000 A 
ATOM     33  C   UNL     1      -1.799   1.343  23.451  0.00  0.00    +0.000 A 
ATOM     34  C   UNL     1      -3.678   0.838  24.440  0.00  0.00    +0.000 A 
ATOM     35  C   UNL     1      -3.422   0.266  24.978  0.00  0.00    +0.005 A 
ENDBRANCH   2  26
BRANCH  12  13
ATOM     13  N   UNL     1      -2.929   1.101  24.379  0.00  0.00    -0.091 NA
BRANCH  13  14
ATOM     14  S   UNL     1      -3.989   1.325  24.652  0.00  0.00    +0.099 S 
ATOM     15  O   UNL     1      -3.335   1.935  25.021  0.00  0.00    -0.148 OA
ATOM     16  O   UNL     1      -4.873   0.958  24.483  0.00  0.00    -0.148 OA
BRANCH  14  17
ATOM     17  C   UNL     1      -4.660   1.935  25.161  0.00  0.00    +0.156 A 
ATOM     18  C   UNL     1      -4.651   2.557  25.702  0.00  0.00    +0.027 A 
ATOM     19  C   UNL     1      -5.434   2.768  25.861  0.00  0.00    +0.009 A 
ATOM     20  C   UNL     1      -5.925   2.276  25.417  0.00  0.00    +0.037 A 
ATOM     21  S   UNL     1      -5.447   1.760  24.984  0.00  0.00    -0.066 S 
ENDBRANCH  14  17
ENDBRANCH  13  14
ENDBRANCH  12  13
TORSDOF 4
ENDMDL
MODEL 2
REMARK VINA RESULT:     -15.4      2.099      3.540
REMARK  Name = 
REMARK  4 active torsions:
REMARK  status: ('A' for Active; 'I' for Inactive)
REMARK    1  A    between atoms: C_2  and  C_26
REMARK    2  A    between atoms: C_12  and  N_13
REMARK    3  A    between atoms: N_13  and  S_14
REMARK    4  A    between atoms: S_14  and  C_17
REMARK                            x       y       z     vdW  Elec       q    Type
REMARK                         _______ _______ _______ _____ _____    ______ ____
ROOT
ATOM      1  O   UNL     1      -4.695   4.474  25.024  0.00  0.00    -0.270 OA
ATOM      2  C   UNL     1      -4.515   3.625  24.905  0.00  0.00    +0.249 C 
ATOM      3  N   UNL     1      -5.095   3.113  25.270  0.00  0.00    -0.276 N 
ATOM      4  C   UNL     1      -5.795   3.013  25.714  0.00  0.00    +0.096 C 
ATOM      5  C   UNL     1      -5.838   2.027  25.736  0.00  0.00    +0.043 C 
ATOM      6  C   UNL     1      -6.016   1.239  25.844  0.00  0.00    +0.011 C 
ATOM      7  C   UNL     1      -5.517   1.620  25.530  0.00  0.00    +0.058 C 
ATOM      8  C   UNL     1      -5.490   2.574  25.517  0.00  0.00    +0.099 C 
ATOM      9  C   UNL     1      -4.745   1.533  25.040  0.00  0.00    +0.041 A 
ATOM     10  C   UNL     1      -4.249   0.954  24.723  0.00  0.00    +0.014 A 
ATOM     11  C   UNL     1      -3.577   1.175  24.298  0.00  0.00    +0.024 A 
ATOM     12  C   UNL     1      -3.464   2.063  24.231  0.00  0.00    +0.147 A 
ATOM     22  C   UNL     1      -3.896   2.552  24.507  0.00  0.00    +0.277 A 
ATOM     23  O   UNL     1      -3.758   3.571  24.425  0.00  0.00    -0.266 OA
ATOM     24  N   UNL     1      -4.568   2.331  24.932  0.00  0.00    -0.298 N 
ATOM     25  C   UNL     1      -5.031   1.945  25.223  0.00  0.00    +0.110 C 
ENDROOT
BRANCH   2  26
ATOM     26  C   UNL     1      -3.888   3.064  24.505  0.00  0.00    +0.054 A 
ATOM     27  C   UNL     1      -3.835   3.131  23.685  0.00  0.00    +0.005 A 
ATOM     28  C   UNL     1      -3.300   2.662  23.266  0.00  0.00    +0.000 A 
ATOM     29  C   UNL     1      -2.818   2.128  23.668  0.00  0.00    +0.000 A 
ATOM     30  C   UNL     1      -2.282   1.659  23.250  0.00  0.00    +0.000 A 
ATOM     31  C   UNL     1      -2.229   1.726  22.430  0.00  0.00    +0.000 A 
ATOM     32  C   UNL     1      -2.711   2.261  22.028  0.00  0.00    +0.000 A 
ATOM     33  C   UNL     1      -3.247   2.729  22.445  0.00  0.00    +0.000 A 
ATOM     34  C   UNL     1      -2.871   2.061  24.489  0.00  0.00    +0.000 A 
ATOM     35  C   UNL     1      -3.406   2.529  24.908  0.00  0.00    +0.005 A 
ENDBRANCH   2  26
BRANCH  12  13
ATOM     13  N   UNL     1      -2.912   2.573  23.883  0.00  0.00    -0.091 NA
BRANCH  13  14
ATOM     14  S   UNL     1      -2.289   2.088  24.675  0.00  0.00    +0.099 S 
ATOM     15  O   UNL     1      -1.949   2.933  24.349  0.00  0.00    -0.148 OA
ATOM     16  O   UNL     1      -2.306   1.280  25.215  0.00  0.00    -0.148 OA
BRANCH  14  17
ATOM     17  C   UNL     1      -1.442   2.123  25.278  0.00  0.00    +0.156 A 
ATOM     18  C   UNL     1      -1.032   2.662  25.747  0.00  0.00    +0.027 A 
ATOM     19  C   UNL     1      -0.379   2.274  26.070  0.00  0.00    +0.009 A 
ATOM     20  C   UNL     1      -0.387   1.495  25.799  0.00  0.00    +0.037 A 
ATOM     21  S   UNL     1      -1.044   1.401  25.309  0.00  0.00    -0.066 S 
ENDBRANCH  14  17
ENDBRANCH  13  14
ENDBRANCH  12  13
TORSDOF 4
ENDMDL
MODEL 3
REMARK VINA RESULT:     -15.4      1.053      2.176
REMARK  Name = 
REMARK  4 active torsions:
REMARK  status: ('A' for Active; 'I' for Inactive)
REMARK    1  A    between atoms: C_2  and  C_26
REMARK    2  A    between atoms: C_12  and  N_13
REMARK    3  A    between atoms: N_13  and  S_14
REMARK    4  A    between atoms: S_14  and  C_17
REMARK                            x       y       z     vdW  Elec       q    Type
REMARK                         _______ _______ _______ _____ _____    ______ ____
ROOT
ATOM      1  O   UNL     1      -3.266  -1.388  26.810  0.00  0.00    -0.270 OA
ATOM      2  C   UNL     1      -3.457  -1.155  25.986  0.00  0.00    +0.249 C 
ATOM      3  N   UNL     1      -3.517  -1.828  25.462  0.00  0.00    -0.276 N 
ATOM      4  C   UNL     1      -3.482  -2.653  25.335  0.00  0.00    +0.096 C 
ATOM      5  C   UNL     1      -3.684  -2.680  24.368  0.00  0.00    +0.043 C 
ATOM      6  C   UNL     1      -3.834  -2.871  23.590  0.00  0.00    +0.011 C 
ATOM      7  C   UNL     1      -3.794  -2.291  23.984  0.00  0.00    +0.058 C 
ATOM      8  C   UNL     1      -3.598  -2.281  24.919  0.00  0.00    +0.099 C 
ATOM      9  C   UNL     1      -3.874  -1.378  23.931  0.00  0.00    +0.041 A 
ATOM     10  C   UNL     1      -4.034  -0.779  23.386  0.00  0.00    +0.014 A 
ATOM     11  C   UNL     1      -4.042   0.009  23.630  0.00  0.00    +0.024 A 
ATOM     12  C   UNL     1      -3.866   0.122  24.504  0.00  0.00    +0.147 A 
ATOM     22  C   UNL     1      -3.730  -0.400  24.963  0.00  0.00    +0.277 A 
ATOM     23  O   UNL     1      -3.529  -0.261  25.966  0.00  0.00    -0.266 OA
ATOM     24  N   UNL     1      -3.722  -1.188  24.720  0.00  0.00    -0.298 N 
ATOM     25  C   UNL     1      -3.766  -1.725  24.322  0.00  0.00    +0.110 C 
ENDROOT
BRANCH   2  26
ATOM     26  C   UNL     1      -3.624  -0.402  25.464  0.00  0.00    +0.054 A 
ATOM     27  C   UNL     1      -4.295   0.027  25.678  0.00  0.00    +0.005 A 
ATOM     28  C   UNL     1      -4.501   0.706  25.257  0.00  0.00    +0.000 A 
ATOM     29  C   UNL     1      -4.037   0.955  24.622  0.00  0.00    +0.000 A 
ATOM     30  C   UNL     1      -4.243   1.634  24.201  0.00  0.00    +0.000 A 
ATOM     31  C   UNL     1      -4.914   2.064  24.415  0.00  0.00    +0.000 A 
ATOM     32  C   UNL     1      -5.378   1.815  25.050  0.00  0.00    +0.000 A 
ATOM     33  C   UNL     1      -5.172   1.137  25.471  0.00  0.00    +0.000 A 
ATOM     34  C   UNL     1      -3.366   0.525  24.408  0.00  0.00    +0.000 A 
ATOM     35  C   UNL     1      -3.160  -0.154  24.830  0.00  0.00    +0.005 A 
ENDBRANCH   2  26
BRANCH  12  13
ATOM     13  N   UNL     1      -3.804   0.762  25.025  0.00  0.00    -0.091 NA
BRANCH  13  14
ATOM     14  S   UNL     1      -2.931   0.946  24.353  0.00  0.00    +0.099 S 
ATOM     15  O   UNL     1      -2.879   1.378  25.217  0.00  0.00    -0.148 OA
ATOM     16  O   UNL     1      -2.640   0.697  23.460  0.00  0.00    -0.148 OA
BRANCH  14  17
ATOM     17  C   UNL     1      -2.009   1.405  24.209  0.00  0.00    +0.156 A 
ATOM     18  C   UNL     1      -1.294   1.509  24.607  0.00  0.00    +0.027 A 
ATOM     19  C   UNL     1      -0.796   1.956  24.124  0.00  0.00    +0.009 A 
ATOM     20  C   UNL     1      -1.204   2.127  23.427  0.00  0.00    +0.037 A 
ATOM     21  S   UNL     1      -1.954   1.787  23.479  0.00  0.00    -0.066 S 
ENDBRANCH  14  17
ENDBRANCH  13  14
ENDBRANCH  12  13
TORSDOF 4
ENDMDL
MODEL 4
REMARK VINA RESULT:     -14.9      1.290      3.528
REMARK  Name = 
REMARK  4 active torsions:
REMARK  status: ('A' for Active; 'I' for Inactive)
REMARK    1  A    between atoms: C_2  and  C_26
REMARK    2  A    between atoms: C_12  and  N_13
REMARK    3  A    between atoms: N_13  and  S_14
REMARK    4  A    between atoms: S_14  and  C_17
REMARK                            x       y       z     vdW  Elec       q    Type
REMARK                         _______ _______ _______ _____ _____    ______ ____
ROOT
ATOM      1  O   UNL     1      -2.405   2.046  22.097  0.00  0.00    -0.270 OA
ATOM      2  C   UNL     1      -2.442   1.862  22.953  0.00  0.00    +0.249 C 
ATOM      3  N   UNL     1      -1.709   2.039  23.357  0.00  0.00    -0.276 N 
ATOM      4  C   UNL     1      -0.922   2.319  23.341  0.00  0.00    +0.096 C 
ATOM      5  C   UNL     1      -0.688   2.211  24.295  0.00  0.00    +0.043 C 
ATOM      6  C   UNL     1      -0.345   2.184  25.033  0.00  0.00    +0.011 C 
ATOM      7  C   UNL     1      -0.964   2.025  24.743  0.00  0.00    +0.058 C 
ATOM      8  C   UNL     1      -1.174   2.135  23.818  0.00  0.00    +0.099 C 
ATOM      9  C   UNL     1      -1.794   1.692  24.953  0.00  0.00    +0.041 A 
ATOM     10  C   UNL     1      -2.227   1.411  25.596  0.00  0.00    +0.014 A 
ATOM     11  C   UNL     1      -3.006   1.159  25.490  0.00  0.00    +0.024 A 
ATOM     12  C   UNL     1      -3.298   1.225  24.644  0.00  0.00    +0.147 A 
ATOM     22  C   UNL     1      -2.917   1.468  24.098  0.00  0.00    +0.277 A 
ATOM     23  O   UNL     1      -3.261   1.540  23.128  0.00  0.00    -0.266 OA
ATOM     24  N   UNL     1      -2.139   1.720  24.204  0.00  0.00    -0.298 N 
ATOM     25  C   UNL     1      -1.558   1.864  24.505  0.00  0.00    +0.110 C 
ENDROOT
BRANCH   2  26
ATOM     26  C   UNL     1      -3.023   1.529  23.601  0.00  0.00    +0.054 A 
ATOM     27  C   UNL     1      -3.692   1.991  23.738  0.00  0.00    +0.005 A 
ATOM     28  C   UNL     1      -4.248   1.755  24.300  0.00  0.00    +0.000 A 
ATOM     29  C   UNL     1      -4.135   1.056  24.724  0.00  0.00    +0.000 A 
ATOM     30  C   UNL     1      -4.691   0.819  25.285  0.00  0.00    +0.000 A 
ATOM     31  C   UNL     1      -5.361   1.282  25.422  0.00  0.00    +0.000 A 
ATOM     32  C   UNL     1      -5.474   1.980  24.999  0.00  0.00    +0.000 A 
ATOM     33  C   UNL     1      -4.918   2.217  24.437  0.00  0.00    +0.000 A 
ATOM     34  C   UNL     1      -3.465   0.594  24.586  0.00  0.00    +0.000 A 
ATOM     35  C   UNL     1      -2.909   0.831  24.025  0.00  0.00    +0.005 A 
ENDBRANCH   2  26
BRANCH  12  13
ATOM     13  N   UNL     1      -4.000   1.060  24.237  0.00  0.00    -0.091 NA
BRANCH  13  14
ATOM     14  S   UNL     1      -3.686   0.034  24.551  0.00  0.00    +0.099 S 
ATOM     15  O   UNL     1      -4.327   0.061  23.826  0.00  0.00    -0.148 OA
ATOM     16  O   UNL     1      -3.093  -0.373  25.205  0.00  0.00    -0.148 OA
BRANCH  14  17
ATOM     17  C   UNL     1      -3.767  -0.994  24.417  0.00  0.00    +0.156 A 
ATOM     18  C   UNL     1      -4.020  -1.531  23.845  0.00  0.00    +0.027 A 
ATOM     19  C   UNL     1      -3.913  -2.293  24.145  0.00  0.00    +0.009 A 
ATOM     20  C   UNL     1      -3.593  -2.225  24.902  0.00  0.00    +0.037 A 
ATOM     21  S   UNL     1      -3.502  -1.422  25.071  0.00  0.00    -0.066 S 
ENDBRANCH  14  17
ENDBRANCH  13  14
ENDBRANCH  12  13
TORSDOF 4
ENDMDL
MODEL 5
REMARK VINA RESULT:     -14.8      1.278      3.521
REMARK  Name = 
REMARK  4 active torsions:
REMARK  status: ('A' for Active; 'I' for Inactive)
REMARK    1  A    between atoms: C_2  and  C_26
REMARK    2  A    between atoms: C_12  and  N_13
REMARK    3  A    between atoms: N_13  and  S_14
REMARK    4  A    between atoms: S_14  and  C_17
REMARK                            x       y       z     vdW  Elec       q    Type
REMARK                         _______ _______ _______ _____ _____    ______ ____
ROOT
ATOM      1  O   UNL     1      -2.506   1.958  22.332  0.00  0.00    -0.270 OA
ATOM      2  C   UNL     1      -2.806   1.742  23.127  0.00  0.00    +0.249 C 
ATOM      3  N   UNL     1      -3.411   2.278  23.404  0.00  0.00    -0.276 N 
ATOM      4  C   UNL     1      -3.892   2.951  23.287  0.00  0.00    +0.096 C 
ATOM      5  C   UNL     1      -4.396   2.944  24.137  0.00  0.00    +0.043 C 
ATOM      6  C   UNL     1      -4.887   3.077  24.774  0.00  0.00    +0.011 C 
ATOM      7  C   UNL     1      -4.394   2.614  24.586  0.00  0.00    +0.058 C 
ATOM      8  C   UNL     1      -3.915   2.633  23.760  0.00  0.00    +0.099 C 
ATOM      9  C   UNL     1      -3.960   1.862  24.888  0.00  0.00    +0.041 A 
ATOM     10  C   UNL     1      -3.934   1.354  25.537  0.00  0.00    +0.014 A 
ATOM     11  C   UNL     1      -3.413   0.715  25.540  0.00  0.00    +0.024 A 
ATOM     12  C   UNL     1      -2.913   0.648  24.797  0.00  0.00    +0.147 A 
ATOM     22  C   UNL     1      -2.943   1.091  24.244  0.00  0.00    +0.277 A 
ATOM     23  O   UNL     1      -2.365   1.007  23.394  0.00  0.00    -0.266 OA
ATOM     24  N   UNL     1      -3.465   1.730  24.241  0.00  0.00    -0.298 N 
ATOM     25  C   UNL     1      -3.937   2.159  24.444  0.00  0.00    +0.110 C 
ENDROOT
BRANCH   2  26
ATOM     26  C   UNL     1      -2.691   1.108  23.800  0.00  0.00    +0.054 A 
ATOM     27  C   UNL     1      -1.941   1.099  24.144  0.00  0.00    +0.005 A 
ATOM     28  C   UNL     1      -1.771   0.562  24.747  0.00  0.00    +0.000 A 
ATOM     29  C   UNL     1      -2.350   0.034  25.005  0.00  0.00    +0.000 A 
ATOM     30  C   UNL     1      -2.180  -0.503  25.608  0.00  0.00    +0.000 A 
ATOM     31  C   UNL     1      -1.431  -0.512  25.953  0.00  0.00    +0.000 A 
ATOM     32  C   UNL     1      -0.852   0.016  25.695  0.00  0.00    +0.000 A 
ATOM     33  C   UNL     1      -1.022   0.553  25.092  0.00  0.00    +0.000 A 
ATOM     34  C   UNL     1      -3.100   0.043  24.660  0.00  0.00    +0.000 A 
ATOM     35  C   UNL     1      -3.270   0.580  24.057  0.00  0.00    +0.005 A 
ENDBRANCH   2  26
BRANCH  12  13
ATOM     13  N   UNL     1      -2.326   0.139  24.513  0.00  0.00    -0.091 NA
BRANCH  13  14
ATOM     14  S   UNL     1      -3.202  -0.552  24.570  0.00  0.00    +0.099 S 
ATOM     15  O   UNL     1      -2.506  -0.825  23.955  0.00  0.00    -0.148 OA
ATOM     16  O   UNL     1      -4.047  -0.612  25.046  0.00  0.00    -0.148 OA
BRANCH  14  17
ATOM     17  C   UNL     1      -3.659  -1.428  24.243  0.00  0.00    +0.156 A 
ATOM     18  C   UNL     1      -4.182  -1.678  23.658  0.00  0.00    +0.027 A 
ATOM     19  C   UNL     1      -4.294  -2.491  23.746  0.00  0.00    +0.009 A 
ATOM     20  C   UNL     1      -3.839  -2.742  24.386  0.00  0.00    +0.037 A 
ATOM     21  S   UNL     1      -3.446  -2.085  24.694  0.00  0.00    -0.066 S 
ENDBRANCH  14  17
ENDBRANCH  13  14
ENDBRANCH  12  13
TORSDOF 4
ENDMDL
MODEL 6
REMARK VINA RESULT:     -14.7      1.921      2.850
REMARK  Name = 
REMARK  4 active torsions:
REMARK  status: ('A' for Active; 'I' for Inactive)
REMARK    1  A    between atoms: C_2  and  C_26
REMARK    2  A    between atoms: C_12  and  N_13
REMARK    3  A    between atoms: N_13  and  S_14
REMARK    4  A    between atoms: S_14  and  C_17
REMARK                            x       y       z     vdW  Elec       q    Type
REMARK                         _______ _______ _______ _____ _____    ______ ____
ROOT
ATOM      1  O   UNL     1      -1.492  -0.225  24.738  0.00  0.00    -0.270 OA
ATOM      2  C   UNL     1      -1.635   0.639  24.774  0.00  0.00    +0.249 C 
ATOM      3  N   UNL     1      -1.081   1.040  25.288  0.00  0.00    -0.276 N 
ATOM      4  C   UNL     1      -0.427   1.017  25.808  0.00  0.00    +0.096 C 
ATOM      5  C   UNL     1      -0.358   1.977  26.030  0.00  0.00    +0.043 C 
ATOM      6  C   UNL     1      -0.170   2.719  26.309  0.00  0.00    +0.011 C 
ATOM      7  C   UNL     1      -0.644   2.431  25.879  0.00  0.00    +0.058 C 
ATOM      8  C   UNL     1      -0.698   1.500  25.674  0.00  0.00    +0.099 C 
ATOM      9  C   UNL     1      -1.359   2.651  25.344  0.00  0.00    +0.041 A 
ATOM     10  C   UNL     1      -1.801   3.303  25.103  0.00  0.00    +0.014 A 
ATOM     11  C   UNL     1      -2.431   3.203  24.580  0.00  0.00    +0.024 A 
ATOM     12  C   UNL     1      -2.563   2.352  24.326  0.00  0.00    +0.147 A 
ATOM     22  C   UNL     1      -2.177   1.798  24.540  0.00  0.00    +0.277 A 
ATOM     23  O   UNL     1      -2.335   0.822  24.244  0.00  0.00    -0.266 OA
ATOM     24  N   UNL     1      -1.546   1.898  25.063  0.00  0.00    -0.298 N 
ATOM     25  C   UNL     1      -1.105   2.197  25.469  0.00  0.00    +0.110 C 
ENDROOT
BRANCH   2  26
ATOM     26  C   UNL     1      -2.199   1.298  24.435  0.00  0.00    +0.054 A 
ATOM     27  C   UNL     1      -2.170   1.393  23.617  0.00  0.00    +0.005 A 
ATOM     28  C   UNL     1      -2.645   1.960  23.250  0.00  0.00    +0.000 A 
ATOM     29  C   UNL     1      -3.149   2.430  23.703  0.00  0.00    +0.000 A 
ATOM     30  C   UNL     1      -3.624   2.997  23.337  0.00  0.00    +0.000 A 
ATOM     31  C   UNL     1      -3.595   3.093  22.518  0.00  0.00    +0.000 A 
ATOM     32  C   UNL     1      -3.091   2.623  22.066  0.00  0.00    +0.000 A 
ATOM     33  C   UNL     1      -2.616   2.056  22.431  0.00  0.00    +0.000 A 
ATOM     34  C   UNL     1      -3.179   2.334  24.522  0.00  0.00    +0.000 A 
ATOM     35  C   UNL     1      -2.703   1.767  24.888  0.00  0.00    +0.005 A 
ENDBRANCH   2  26
BRANCH  12  13
ATOM     13  N   UNL     1      -3.091   1.948  23.833  0.00  0.00    -0.091 NA
BRANCH  13  14
ATOM     14  S   UNL     1      -3.779   2.307  24.637  0.00  0.00    +0.099 S 
ATOM     15  O   UNL     1      -4.113   1.562  24.117  0.00  0.00    -0.148 OA
ATOM     16  O   UNL     1      -3.793   2.993  25.325  0.00  0.00    -0.148 OA
BRANCH  14  17
ATOM     17  C   UNL     1      -4.689   2.206  25.130  0.00  0.00    +0.156 A 
ATOM     18  C   UNL     1      -5.211   1.612  25.363  0.00  0.00    +0.027 A 
ATOM     19  C   UNL     1      -5.848   1.969  25.748  0.00  0.00    +0.009 A 
ATOM     20  C   UNL     1      -5.719   2.784  25.753  0.00  0.00    +0.037 A 
ATOM     21  S   UNL     1      -5.002   2.931  25.371  0.00  0.00    -0.066 S 
ENDBRANCH  14  17
ENDBRANCH  13  14
ENDBRANCH  12  13
TORSDOF 4
ENDMDL
MODEL 7
REMARK VINA RESULT:     -14.6      1.229      3.658
REMARK  Name = 
REMARK  4 active torsions:
REMARK  status: ('A' for Active; 'I' for Inactive)
REMARK    1  A    between atoms: C_2  and  C_26
REMARK    2  A    between atoms: C_12  and  N_13
REMARK    3  A    between atoms: N_13  and  S_14
REMARK    4  A    between atoms: S_14  and  C_17
REMARK                            x       y       z     vdW  Elec       q    Type
REMARK                         _______ _______ _______ _____ _____    ______ ____
ROOT
ATOM      1  O   UNL     1      -5.150   1.774  25.926  0.00  0.00    -0.270 OA
ATOM      2  C   UNL     1      -4.622   1.533  25.269  0.00  0.00    +0.249 C 
ATOM      3  N   UNL     1      -4.419   2.187  24.756  0.00  0.00    -0.276 N 
ATOM      4  C   UNL     1      -4.478   2.995  24.556  0.00  0.00    +0.096 C 
ATOM      5  C   UNL     1      -3.907   3.009  23.750  0.00  0.00    +0.043 C 
ATOM      6  C   UNL     1      -3.475   3.185  23.082  0.00  0.00    +0.011 C 
ATOM      7  C   UNL     1      -3.615   2.621  23.476  0.00  0.00    +0.058 C 
ATOM      8  C   UNL     1      -4.169   2.624  24.253  0.00  0.00    +0.099 C 
ATOM      9  C   UNL     1      -3.434   1.722  23.537  0.00  0.00    +0.041 A 
ATOM     10  C   UNL     1      -3.012   1.126  23.153  0.00  0.00    +0.014 A 
ATOM     11  C   UNL     1      -3.029   0.355  23.446  0.00  0.00    +0.024 A 
ATOM     12  C   UNL     1      -3.531   0.256  24.185  0.00  0.00    +0.147 A 
ATOM     22  C   UNL     1      -3.890   0.776  24.506  0.00  0.00    +0.277 A 
ATOM     23  O   UNL     1      -4.464   0.654  25.355  0.00  0.00    -0.266 OA
ATOM     24  N   UNL     1      -3.873   1.547  24.213  0.00  0.00    -0.298 N 
ATOM     25  C   UNL     1      -3.724   2.069  23.822  0.00  0.00    +0.110 C 
ENDROOT
BRANCH   2  26
ATOM     26  C   UNL     1      -4.188   0.785  24.922  0.00  0.00    +0.054 A 
ATOM     27  C   UNL     1      -4.687   0.173  24.686  0.00  0.00    +0.005 A 
ATOM     28  C   UNL     1      -4.368  -0.520  24.369  0.00  0.00    +0.000 A 
ATOM     29  C   UNL     1      -3.552  -0.599  24.288  0.00  0.00    +0.000 A 
ATOM     30  C   UNL     1      -3.233  -1.290  23.972  0.00  0.00    +0.000 A 
ATOM     31  C   UNL     1      -3.732  -1.904  23.735  0.00  0.00    +0.000 A 
ATOM     32  C   UNL     1      -4.549  -1.825  23.816  0.00  0.00    +0.000 A 
ATOM     33  C   UNL     1      -4.867  -1.133  24.133  0.00  0.00    +0.000 A 
ATOM     34  C   UNL     1      -3.052   0.015  24.525  0.00  0.00    +0.000 A 
ATOM     35  C   UNL     1      -3.371   0.707  24.842  0.00  0.00    +0.005 A 
ENDBRANCH   2  26
BRANCH  12  13
ATOM     13  N   UNL     1      -3.737  -0.365  24.691  0.00  0.00    -0.091 NA
BRANCH  13  14
ATOM     14  S   UNL     1      -2.631  -0.315  24.850  0.00  0.00    +0.099 S 
ATOM     15  O   UNL     1      -3.125  -0.765  25.550  0.00  0.00    -0.148 OA
ATOM     16  O   UNL     1      -1.850   0.036  24.391  0.00  0.00    -0.148 OA
BRANCH  14  17
ATOM     17  C   UNL     1      -1.814  -0.546  25.450  0.00  0.00    +0.156 A 
ATOM     18  C   UNL     1      -1.586  -0.496  26.240  0.00  0.00    +0.027 A 
ATOM     19  C   UNL     1      -0.823  -0.803  26.305  0.00  0.00    +0.009 A 
ATOM     20  C   UNL     1      -0.580  -1.043  25.554  0.00  0.00    +0.037 A 
ATOM     21  S   UNL     1      -1.193  -0.884  25.025  0.00  0.00    -0.066 S 
ENDBRANCH  14  17
ENDBRANCH  13  14
ENDBRANCH  12  13
TORSDOF 4
ENDMDL
MODEL 8
REMARK VINA RESULT:     -14.5      1.475      3.869
REMARK  Name = 
REMARK  4 active torsions:
REMARK  status: ('A' for Active; 'I' for Inactive)
REMARK    1  A    between atoms: C_2  and  C_26
REMARK    2  A    between atoms: C_12  and  N_13
REMARK    3  A    between atoms: N_13  and  S_14
REMARK    4  A    between atoms: S_14  and  C_17
REMARK                            x       y       z     vdW  Elec       q    Type
REMARK                         _______ _______ _______ _____ _____    ______ ____
ROOT
ATOM      1  O   UNL     1      -5.564   2.754  24.739  0.00  0.00    -0.270 OA
ATOM      2  C   UNL     1      -4.688   2.750  24.787  0.00  0.00    +0.249 C 
ATOM      3  N   UNL     1      -4.391   3.314  25.357  0.00  0.00    -0.276 N 
ATOM      4  C   UNL     1      -4.528   3.907  25.929  0.00  0.00    +0.096 C 
ATOM      5  C   UNL     1      -3.595   4.111  26.184  0.00  0.00    +0.043 C 
ATOM      6  C   UNL     1      -2.898   4.391  26.500  0.00  0.00    +0.011 C 
ATOM      7  C   UNL     1      -3.098   3.916  26.023  0.00  0.00    +0.058 C 
ATOM      8  C   UNL     1      -4.005   3.731  25.788  0.00  0.00    +0.099 C 
ATOM      9  C   UNL     1      -2.757   3.296  25.437  0.00  0.00    +0.041 A 
ATOM     10  C   UNL     1      -2.038   2.987  25.178  0.00  0.00    +0.014 A 
ATOM     11  C   UNL     1      -2.026   2.397  24.601  0.00  0.00    +0.024 A 
ATOM     12  C   UNL     1      -2.841   2.152  24.313  0.00  0.00    +0.147 A 
ATOM     22  C   UNL     1      -3.453   2.424  24.543  0.00  0.00    +0.277 A 
ATOM     23  O   UNL     1      -4.385   2.137  24.206  0.00  0.00    -0.266 OA
ATOM     24  N   UNL     1      -3.465   3.014  25.119  0.00  0.00    -0.298 N 
ATOM     25  C   UNL     1      -3.248   3.461  25.569  0.00  0.00    +0.110 C 
ENDROOT
BRANCH   2  26
ATOM     26  C   UNL     1      -3.941   2.331  24.422  0.00  0.00    +0.054 A 
ATOM     27  C   UNL     1      -3.829   2.462  23.616  0.00  0.00    +0.005 A 
ATOM     28  C   UNL     1      -3.186   2.119  23.228  0.00  0.00    +0.000 A 
ATOM     29  C   UNL     1      -2.656   1.646  23.646  0.00  0.00    +0.000 A 
ATOM     30  C   UNL     1      -2.014   1.304  23.259  0.00  0.00    +0.000 A 
ATOM     31  C   UNL     1      -1.901   1.435  22.452  0.00  0.00    +0.000 A 
ATOM     32  C   UNL     1      -2.431   1.908  22.033  0.00  0.00    +0.000 A 
ATOM     33  C   UNL     1      -3.074   2.251  22.420  0.00  0.00    +0.000 A 
ATOM     34  C   UNL     1      -2.769   1.515  24.453  0.00  0.00    +0.000 A 
ATOM     35  C   UNL     1      -3.412   1.858  24.841  0.00  0.00    +0.005 A 
ENDBRANCH   2  26
BRANCH  12  13
ATOM     13  N   UNL     1      -3.146   1.611  23.766  0.00  0.00    -0.091 NA
BRANCH  13  14
ATOM     14  S   UNL     1      -2.708   0.922  24.529  0.00  0.00    +0.099 S 
ATOM     15  O   UNL     1      -3.388   0.527  23.965  0.00  0.00    -0.148 OA
ATOM     16  O   UNL     1      -2.040   0.954  25.234  0.00  0.00    -0.148 OA
BRANCH  14  17
ATOM     17  C   UNL     1      -2.688  -0.027  24.953  0.00  0.00    +0.156 A 
ATOM     18  C   UNL     1      -3.213  -0.618  25.187  0.00  0.00    +0.027 A 
ATOM     19  C   UNL     1      -2.771  -1.246  25.491  0.00  0.00    +0.009 A 
ATOM     20  C   UNL     1      -1.974  -1.042  25.445  0.00  0.00    +0.037 A 
ATOM     21  S   UNL     1      -1.921  -0.288  25.112  0.00  0.00    -0.066 S 
ENDBRANCH  14  17
ENDBRANCH  13  14
ENDBRANCH  12  13
TORSDOF 4
ENDMDL
