MODEL 1
REMARK VINA RESULT:     -10.4      0.000      0.000
REMARK  Name = 
REMARK  6 active torsions:
REMARK  status: ('A' for Active; 'I' for Inactive)
REMARK    1  A    between atoms: C_2  and  C_5
REMARK    2  A    between atoms: C_7  and  C_8
REMARK    3  A    between atoms: C_8  and  C_9
REMARK    4  A    between atoms: C_9  and  N_13
REMARK    5  A    between atoms: N_13  and  C_14
REMARK    6  A    between atoms: C_14  and  C_15
REMARK                            x       y       z     vdW  Elec       q    Type
REMARK                         _______ _______ _______ _____ _____    ______ ____
ROOT
ATOM      9  C   UNL     1      -4.612   1.872  24.780  0.00  0.00    +0.119 C 
ATOM     10  C   UNL     1      -5.285   1.581  25.161  0.00  0.00    +0.161 C 
ATOM     11  O   UNL     1      -5.671   2.298  25.024  0.00  0.00    -0.351 OA
ATOM     12  C   UNL     1      -5.000   2.588  24.643  0.00  0.00    +0.161 C 
ENDROOT
BRANCH   9   8
ATOM      8  C   UNL     1      -3.941   2.162  24.399  0.00  0.00    +0.070 C 
BRANCH   8   7
ATOM      5  C   UNL     1      -2.385   3.447  25.097  0.00  0.00    +0.181 A 
ATOM      6  C   UNL     1      -2.688   2.919  24.540  0.00  0.00    +0.056 A 
ATOM      7  C   UNL     1      -3.439   2.687  24.791  0.00  0.00    +0.102 A 
ATOM     21  N   UNL     1      -3.601   3.072  25.502  0.00  0.00    -0.082 NA
ATOM     22  O   UNL     1      -2.950   3.542  25.691  0.00  0.00    -0.356 OA
BRANCH   5   2
ATOM      1  C   UNL     1      -0.911   4.184  25.032  0.00  0.00    +0.041 C 
ATOM      2  C   UNL     1      -1.648   3.816  25.065  0.00  0.00    +0.180 C 
ATOM      3  C   UNL     1      -1.981   4.508  25.366  0.00  0.00    +0.041 C 
ATOM      4  O   UNL     1      -1.316   3.124  24.763  0.00  0.00    -0.218 OA
ENDBRANCH   5   2
ENDBRANCH   8   7
ENDBRANCH   9   8
BRANCH   9  13
ATOM     13  N   UNL     1      -4.226   1.156  24.917  0.00  0.00    -0.215 NA
BRANCH  13  14
ATOM     14  C   UNL     1      -4.622   0.443  24.788  0.00  0.00    +0.089 C 
BRANCH  14  15
ATOM     15  C   UNL     1      -4.210  -0.270  24.830  0.00  0.00    +0.017 C 
ATOM     16  C   UNL     1      -4.138  -0.744  24.158  0.00  0.00    +0.001 C 
ATOM     17  C   UNL     1      -3.726  -1.457  24.198  0.00  0.00    +0.000 C 
ATOM     18  C   UNL     1      -3.386  -1.697  24.911  0.00  0.00    +0.000 C 
ATOM     19  C   UNL     1      -3.459  -1.224  25.583  0.00  0.00    +0.000 C 
ATOM     20  C   UNL     1      -3.871  -0.510  25.542  0.00  0.00    +0.001 C 
ENDBRANCH  14  15
ENDBRANCH  13  14
ENDBRANCH   9  13
TORSDOF 6
ENDMDL
MODEL 2
REMARK VINA RESULT:     -10.1      1.379      4.179
REMARK  Name = 
REMARK  6 active torsions:
REMARK  status: ('A' for Active; 'I' for Inactive)
REMARK    1  A    between atoms: C_2  and  C_5
REMARK    2  A    between atoms: C_7  and  C_8
REMARK    3  A    between atoms: C_8  and  C_9
REMARK    4  A    between atoms: C_9  and  N_13
REMARK    5  A    between atoms: N_13  and  C_14
REMARK    6  A    between atoms: C_14  and  C_15
REMARK                            x       y       z     vdW  Elec       q    Type
REMARK                         _______ _______ _______ _____ _____    ______ ____
ROOT
ATOM      9  C   UNL     1      -4.873   1.950  24.962  0.00  0.00    +0.119 C 
ATOM     10  C   UNL     1      -5.284   2.486  25.438  0.00  0.00    +0.161 C 
ATOM     11  O   UNL     1      -5.995   2.119  25.236  0.00  0.00    -0.351 OA
ATOM     12  C   UNL     1      -5.585   1.584  24.761  0.00  0.00    +0.161 C 
ENDROOT
BRANCH   9   8
ATOM      8  C   UNL     1      -4.463   1.415  24.487  0.00  0.00    +0.070 C 
BRANCH   8   7
ATOM      5  C   UNL     1      -4.064  -0.664  24.765  0.00  0.00    +0.181 A 
ATOM      6  C   UNL     1      -4.134  -0.002  24.277  0.00  0.00    +0.056 A 
ATOM      7  C   UNL     1      -4.338   0.643  24.749  0.00  0.00    +0.102 A 
ATOM     21  N   UNL     1      -4.394   0.381  25.529  0.00  0.00    -0.082 NA
ATOM     22  O   UNL     1      -4.225  -0.427  25.539  0.00  0.00    -0.356 OA
BRANCH   5   2
ATOM      1  C   UNL     1      -3.672  -2.191  24.279  0.00  0.00    +0.041 C 
ATOM      2  C   UNL     1      -3.868  -1.427  24.522  0.00  0.00    +0.180 C 
ATOM      3  C   UNL     1      -3.278  -1.459  25.098  0.00  0.00    +0.041 C 
ATOM      4  O   UNL     1      -4.458  -1.395  23.947  0.00  0.00    -0.218 OA
ENDBRANCH   5   2
ENDBRANCH   8   7
ENDBRANCH   9   8
BRANCH   9  13
ATOM     13  N   UNL     1      -4.162   2.317  25.164  0.00  0.00    -0.215 NA
BRANCH  13  14
ATOM     14  C   UNL     1      -4.057   3.121  25.011  0.00  0.00    +0.089 C 
BRANCH  14  15
ATOM     15  C   UNL     1      -3.339   3.484  25.195  0.00  0.00    +0.017 C 
ATOM     16  C   UNL     1      -3.235   3.842  25.931  0.00  0.00    +0.001 C 
ATOM     17  C   UNL     1      -2.518   4.205  26.116  0.00  0.00    +0.000 C 
ATOM     18  C   UNL     1      -1.904   4.210  25.564  0.00  0.00    +0.000 C 
ATOM     19  C   UNL     1      -2.008   3.852  24.828  0.00  0.00    +0.000 C 
ATOM     20  C   UNL     1      -2.726   3.489  24.644  0.00  0.00    +0.001 C 
ENDBRANCH  14  15
ENDBRANCH  13  14
ENDBRANCH   9  13
TORSDOF 6
ENDMDL
