MODEL 1
REMARK VINA RESULT:      -9.0      0.000      0.000
REMARK  Name = 
REMARK  8 active torsions:
REMARK  status: ('A' for Active; 'I' for Inactive)
REMARK    1  A    between atoms: N_4  and  C_5
REMARK    2  A    between atoms: C_8  and  S_11
REMARK    3  A    between atoms: S_11  and  N_14
REMARK    4  A    between atoms: N_14  and  C_15
REMARK    5  A    between atoms: C_19  and  N_23
REMARK    6  A    between atoms: C_27  and  O_28
REMARK    7  A    between atoms: O_28  and  C_29
REMARK    8  A    between atoms: C_32  and  N_35
REMARK                            x       y       z     vdW  Elec       q    Type
REMARK                         _______ _______ _______ _____ _____    ______ ____
ROOT
ATOM     15  C   UNL     1       0.863   0.016  23.409  0.00  0.00    +0.157 C 
ATOM     16  C   UNL     1       0.450  -0.661  23.182  0.00  0.00    +0.164 C 
ATOM     17  O   UNL     1      -0.242  -0.698  23.629  0.00  0.00    -0.350 OA
ATOM     18  C   UNL     1      -0.257  -0.045  24.131  0.00  0.00    +0.169 C 
ATOM     19  C   UNL     1      -0.693   0.337  24.718  0.00  0.00    +0.170 C 
ATOM     20  C   UNL     1      -0.280   1.014  24.945  0.00  0.00    +0.169 C 
ATOM     21  O   UNL     1       0.412   1.051  24.498  0.00  0.00    -0.350 OA
ATOM     22  C   UNL     1       0.426   0.397  23.995  0.00  0.00    +0.164 C 
ENDROOT
BRANCH  19  23
ATOM     23  N   UNL     1      -1.417   0.086  25.025  0.00  0.00    -0.180 N 
ATOM     24  N   UNL     1      -1.544  -0.595  25.474  0.00  0.00    -0.040 NA
ATOM     25  N   UNL     1      -2.346  -0.631  25.663  0.00  0.00    -0.020 NA
ATOM     26  N   UNL     1      -2.715   0.027  25.331  0.00  0.00    -0.071 NA
ATOM     27  C   UNL     1      -2.141   0.470  24.937  0.00  0.00    +0.343 A 
BRANCH  27  28
ATOM     28  O   UNL     1      -2.270   1.175  24.526  0.00  0.00    -0.421 OA
BRANCH  28  29
ATOM     29  C   UNL     1      -2.913   1.654  24.720  0.00  0.00    +0.149 A 
ATOM     30  C   UNL     1      -3.653   1.503  24.388  0.00  0.00    +0.039 A 
ATOM     31  C   UNL     1      -4.297   1.982  24.581  0.00  0.00    +0.022 A 
ATOM     32  C   UNL     1      -4.200   2.611  25.106  0.00  0.00    +0.085 A 
ATOM     33  C   UNL     1      -3.459   2.762  25.438  0.00  0.00    +0.022 A 
ATOM     34  C   UNL     1      -2.816   2.282  25.244  0.00  0.00    +0.039 A 
BRANCH  32  35
ATOM     35  N   UNL     1      -4.843   3.090  25.300  0.00  0.00    -0.208 N 
ATOM     36  C   UNL     1      -5.540   2.841  25.664  0.00  0.00    +0.202 A 
ATOM     37  N   UNL     1      -6.031   3.499  25.753  0.00  0.00    -0.200 NA
ATOM     38  C   UNL     1      -5.635   4.154  25.445  0.00  0.00    +0.221 A 
ATOM     39  N   UNL     1      -4.902   3.901  25.165  0.00  0.00    -0.141 NA
ENDBRANCH  32  35
ENDBRANCH  28  29
ENDBRANCH  27  28
ENDBRANCH  19  23
BRANCH  15  14
ATOM     14  N   UNL     1       1.587   0.267  23.102  0.00  0.00    -0.074 NA
BRANCH  14  11
ATOM     11  S   UNL     1       1.825   0.022  22.351  0.00  0.00    +0.077 S 
ATOM     12  O   UNL     1       1.036  -0.102  22.142  0.00  0.00    -0.152 OA
ATOM     13  O   UNL     1       2.062  -0.224  21.600  0.00  0.00    -0.152 OA
BRANCH  11   8
ATOM      5  C   UNL     1       4.189   0.394  22.975  0.00  0.00    +0.073 A 
ATOM      6  C   UNL     1       3.890  -0.372  22.939  0.00  0.00    +0.018 A 
ATOM      7  C   UNL     1       3.100  -0.497  22.730  0.00  0.00    +0.021 A 
ATOM      8  C   UNL     1       2.613   0.146  22.559  0.00  0.00    +0.124 A 
ATOM      9  C   UNL     1       2.913   0.913  22.596  0.00  0.00    +0.021 A 
ATOM     10  C   UNL     1       3.702   1.037  22.804  0.00  0.00    +0.018 A 
BRANCH   5   4
ATOM      1  C   UNL     1       6.127   0.160  23.954  0.00  0.00    +0.097 C 
ATOM      2  C   UNL     1       5.338   0.035  23.745  0.00  0.00    +0.246 C 
ATOM      3  O   UNL     1       4.910  -0.575  24.100  0.00  0.00    -0.273 OA
ATOM      4  N   UNL     1       4.978   0.519  23.183  0.00  0.00    -0.179 NA
ENDBRANCH   5   4
ENDBRANCH  11   8
ENDBRANCH  14  11
ENDBRANCH  15  14
TORSDOF 8
ENDMDL
MODEL 2
REMARK VINA RESULT:      -8.0      2.480      6.810
REMARK  Name = 
REMARK  8 active torsions:
REMARK  status: ('A' for Active; 'I' for Inactive)
REMARK    1  A    between atoms: N_4  and  C_5
REMARK    2  A    between atoms: C_8  and  S_11
REMARK    3  A    between atoms: S_11  and  N_14
REMARK    4  A    between atoms: N_14  and  C_15
REMARK    5  A    between atoms: C_19  and  N_23
REMARK    6  A    between atoms: C_27  and  O_28
REMARK    7  A    between atoms: O_28  and  C_29
REMARK    8  A    between atoms: C_32  and  N_35
REMARK                            x       y       z     vdW  Elec       q    Type
REMARK                         _______ _______ _______ _____ _____    ______ ____
ROOT
ATOM     15  C   UNL     1      -4.513   0.451  24.930  0.00  0.00    +0.157 C 
ATOM     16  C   UNL     1      -4.504   0.262  24.127  0.00  0.00    +0.164 C 
ATOM     17  O   UNL     1      -3.961  -0.349  24.015  0.00  0.00    -0.350 OA
ATOM     18  C   UNL     1      -3.634  -0.537  24.748  0.00  0.00    +0.169 C 
ATOM     19  C   UNL     1      -3.097  -1.031  25.133  0.00  0.00    +0.170 C 
ATOM     20  C   UNL     1      -3.105  -0.841  25.936  0.00  0.00    +0.169 C 
ATOM     21  O   UNL     1      -3.648  -0.231  26.047  0.00  0.00    -0.350 OA
ATOM     22  C   UNL     1      -3.975  -0.043  25.313  0.00  0.00    +0.164 C 
ENDROOT
BRANCH  19  23
ATOM     23  N   UNL     1      -2.632  -1.612  24.776  0.00  0.00    -0.180 N 
ATOM     24  N   UNL     1      -2.900  -2.336  24.483  0.00  0.00    -0.040 NA
ATOM     25  N   UNL     1      -2.251  -2.742  24.177  0.00  0.00    -0.020 NA
ATOM     26  N   UNL     1      -1.583  -2.271  24.280  0.00  0.00    -0.071 NA
ATOM     27  C   UNL     1      -1.818  -1.572  24.650  0.00  0.00    +0.343 A 
BRANCH  27  28
ATOM     28  O   UNL     1      -1.325  -0.944  24.859  0.00  0.00    -0.421 OA
BRANCH  28  29
ATOM     29  C   UNL     1      -0.675  -0.754  24.385  0.00  0.00    +0.149 A 
ATOM     30  C   UNL     1       0.001  -1.225  24.407  0.00  0.00    +0.039 A 
ATOM     31  C   UNL     1       0.650  -1.036  23.934  0.00  0.00    +0.022 A 
ATOM     32  C   UNL     1       0.622  -0.376  23.440  0.00  0.00    +0.085 A 
ATOM     33  C   UNL     1      -0.056   0.095  23.418  0.00  0.00    +0.022 A 
ATOM     34  C   UNL     1      -0.704  -0.095  23.892  0.00  0.00    +0.039 A 
BRANCH  32  35
ATOM     35  N   UNL     1       1.271  -0.186  22.967  0.00  0.00    -0.208 N 
ATOM     36  C   UNL     1       1.353  -0.362  22.165  0.00  0.00    +0.202 A 
ATOM     37  N   UNL     1       2.084  -0.072  21.913  0.00  0.00    -0.200 NA
ATOM     38  C   UNL     1       2.452   0.284  22.561  0.00  0.00    +0.221 A 
ATOM     39  N   UNL     1       1.949   0.213  23.211  0.00  0.00    -0.141 NA
ENDBRANCH  32  35
ENDBRANCH  28  29
ENDBRANCH  27  28
ENDBRANCH  19  23
BRANCH  15  14
ATOM     14  N   UNL     1      -4.977   1.032  25.286  0.00  0.00    -0.074 NA
BRANCH  14  11
ATOM     11  S   UNL     1      -5.522   1.458  24.836  0.00  0.00    +0.077 S 
ATOM     12  O   UNL     1      -5.882   0.753  24.604  0.00  0.00    -0.152 OA
ATOM     13  O   UNL     1      -6.068   1.884  24.387  0.00  0.00    -0.152 OA
BRANCH  11   8
ATOM      5  C   UNL     1      -4.447   3.575  25.532  0.00  0.00    +0.073 A 
ATOM      6  C   UNL     1      -4.899   3.147  26.072  0.00  0.00    +0.018 A 
ATOM      7  C   UNL     1      -5.258   2.440  25.840  0.00  0.00    +0.021 A 
ATOM      8  C   UNL     1      -5.164   2.164  25.069  0.00  0.00    +0.124 A 
ATOM      9  C   UNL     1      -4.711   2.593  24.528  0.00  0.00    +0.021 A 
ATOM     10  C   UNL     1      -4.353   3.299  24.760  0.00  0.00    +0.018 A 
BRANCH   5   4
ATOM      1  C   UNL     1      -2.921   5.005  26.160  0.00  0.00    +0.097 C 
ATOM      2  C   UNL     1      -3.280   4.299  25.929  0.00  0.00    +0.246 C 
ATOM      3  O   UNL     1      -2.830   3.610  25.863  0.00  0.00    -0.273 OA
ATOM      4  N   UNL     1      -4.088   4.281  25.763  0.00  0.00    -0.179 NA
ENDBRANCH   5   4
ENDBRANCH  11   8
ENDBRANCH  14  11
ENDBRANCH  15  14
TORSDOF 8
ENDMDL
MODEL 3
REMARK VINA RESULT:      -7.8      1.772      7.255
REMARK  Name = 
REMARK  8 active torsions:
REMARK  status: ('A' for Active; 'I' for Inactive)
REMARK    1  A    between atoms: N_4  and  C_5
REMARK    2  A    between atoms: C_8  and  S_11
REMARK    3  A    between atoms: S_11  and  N_14
REMARK    4  A    between atoms: N_14  and  C_15
REMARK    5  A    between atoms: C_19  and  N_23
REMARK    6  A    between atoms: C_27  and  O_28
REMARK    7  A    between atoms: O_28  and  C_29
REMARK    8  A    between atoms: C_32  and  N_35
REMARK                            x       y       z     vdW  Elec       q    Type
REMARK                         _______ _______ _______ _____ _____    ______ ____
ROOT
ATOM     15  C   UNL     1      -1.678   2.517  24.716  0.00  0.00    +0.157 C 
ATOM     16  C   UNL     1      -1.170   2.374  25.350  0.00  0.00    +0.164 C 
ATOM     17  O   UNL     1      -0.813   1.641  25.229  0.00  0.00    -0.350 OA
ATOM     18  C   UNL     1      -1.099   1.331  24.521  0.00  0.00    +0.169 C 
ATOM     19  C   UNL     1      -1.056   0.686  24.008  0.00  0.00    +0.170 C 
ATOM     20  C   UNL     1      -1.564   0.829  23.374  0.00  0.00    +0.169 C 
ATOM     21  O   UNL     1      -1.921   1.563  23.495  0.00  0.00    -0.350 OA
ATOM     22  C   UNL     1      -1.634   1.873  24.204  0.00  0.00    +0.164 C 
ENDROOT
BRANCH  19  23
ATOM     23  N   UNL     1      -0.587   0.015  24.111  0.00  0.00    -0.180 N 
ATOM     24  N   UNL     1      -0.739  -0.608  24.630  0.00  0.00    -0.040 NA
ATOM     25  N   UNL     1      -0.130  -1.158  24.553  0.00  0.00    -0.020 NA
ATOM     26  N   UNL     1       0.399  -0.876  23.987  0.00  0.00    -0.071 NA
ATOM     27  C   UNL     1       0.116  -0.150  23.714  0.00  0.00    +0.343 A 
BRANCH  27  28
ATOM     28  O   UNL     1       0.475   0.326  23.143  0.00  0.00    -0.421 OA
BRANCH  28  29
ATOM     29  C   UNL     1       1.297   0.335  23.070  0.00  0.00    +0.149 A 
ATOM     30  C   UNL     1       1.742   0.895  23.480  0.00  0.00    +0.039 A 
ATOM     31  C   UNL     1       2.563   0.903  23.407  0.00  0.00    +0.022 A 
ATOM     32  C   UNL     1       2.940   0.351  22.923  0.00  0.00    +0.085 A 
ATOM     33  C   UNL     1       2.495  -0.209  22.512  0.00  0.00    +0.022 A 
ATOM     34  C   UNL     1       1.673  -0.217  22.586  0.00  0.00    +0.039 A 
BRANCH  32  35
ATOM     35  N   UNL     1       3.762   0.359  22.849  0.00  0.00    -0.208 N 
ATOM     36  C   UNL     1       4.196   0.829  22.328  0.00  0.00    +0.202 A 
ATOM     37  N   UNL     1       4.997   0.660  22.439  0.00  0.00    -0.200 NA
ATOM     38  C   UNL     1       5.055   0.086  23.029  0.00  0.00    +0.221 A 
ATOM     39  N   UNL     1       4.292  -0.100  23.282  0.00  0.00    -0.141 NA
ENDBRANCH  32  35
ENDBRANCH  28  29
ENDBRANCH  27  28
ENDBRANCH  19  23
BRANCH  15  14
ATOM     14  N   UNL     1      -2.147   3.188  24.613  0.00  0.00    -0.074 NA
BRANCH  14  11
ATOM     11  S   UNL     1      -2.091   3.817  25.144  0.00  0.00    +0.077 S 
ATOM     12  O   UNL     1      -1.273   3.834  25.038  0.00  0.00    -0.152 OA
ATOM     13  O   UNL     1      -2.034   4.446  25.675  0.00  0.00    -0.152 OA
BRANCH  11   8
ATOM      5  C   UNL     1      -4.544   3.770  25.464  0.00  0.00    +0.073 A 
ATOM      6  C   UNL     1      -4.230   3.867  24.708  0.00  0.00    +0.018 A 
ATOM      7  C   UNL     1      -3.411   3.882  24.601  0.00  0.00    +0.021 A 
ATOM      8  C   UNL     1      -2.909   3.802  25.250  0.00  0.00    +0.124 A 
ATOM      9  C   UNL     1      -3.224   3.705  26.007  0.00  0.00    +0.021 A 
ATOM     10  C   UNL     1      -4.042   3.690  26.113  0.00  0.00    +0.018 A 
BRANCH   5   4
ATOM      1  C   UNL     1      -6.577   3.017  25.722  0.00  0.00    +0.097 C 
ATOM      2  C   UNL     1      -5.759   3.033  25.615  0.00  0.00    +0.246 C 
ATOM      3  O   UNL     1      -5.338   2.326  25.551  0.00  0.00    -0.273 OA
ATOM      4  N   UNL     1      -5.362   3.754  25.571  0.00  0.00    -0.179 NA
ENDBRANCH   5   4
ENDBRANCH  11   8
ENDBRANCH  14  11
ENDBRANCH  15  14
TORSDOF 8
ENDMDL
MODEL 4
REMARK VINA RESULT:      -7.7      3.030      4.690
REMARK  Name = 
REMARK  8 active torsions:
REMARK  status: ('A' for Active; 'I' for Inactive)
REMARK    1  A    between atoms: N_4  and  C_5
REMARK    2  A    between atoms: C_8  and  S_11
REMARK    3  A    between atoms: S_11  and  N_14
REMARK    4  A    between atoms: N_14  and  C_15
REMARK    5  A    between atoms: C_19  and  N_23
REMARK    6  A    between atoms: C_27  and  O_28
REMARK    7  A    between atoms: O_28  and  C_29
REMARK    8  A    between atoms: C_32  and  N_35
REMARK                            x       y       z     vdW  Elec       q    Type
REMARK                         _______ _______ _______ _____ _____    ______ ____
ROOT
ATOM     15  C   UNL     1      -0.911  -0.118  24.916  0.00  0.00    +0.157 C 
ATOM     16  C   UNL     1      -0.972   0.135  25.698  0.00  0.00    +0.164 C 
ATOM     17  O   UNL     1      -0.917   0.957  25.705  0.00  0.00    -0.350 OA
ATOM     18  C   UNL     1      -0.821   1.214  24.928  0.00  0.00    +0.169 C 
ATOM     19  C   UNL     1      -0.727   1.880  24.451  0.00  0.00    +0.170 C 
ATOM     20  C   UNL     1      -0.665   1.628  23.668  0.00  0.00    +0.169 C 
ATOM     21  O   UNL     1      -0.721   0.805  23.661  0.00  0.00    -0.350 OA
ATOM     22  C   UNL     1      -0.817   0.549  24.440  0.00  0.00    +0.164 C 
ENDROOT
BRANCH  19  23
ATOM     23  N   UNL     1      -0.699   2.663  24.711  0.00  0.00    -0.180 N 
ATOM     24  N   UNL     1      -0.118   2.993  25.195  0.00  0.00    -0.040 NA
ATOM     25  N   UNL     1      -0.308   3.786  25.317  0.00  0.00    -0.020 NA
ATOM     26  N   UNL     1      -1.006   3.946  24.908  0.00  0.00    -0.071 NA
ATOM     27  C   UNL     1      -1.248   3.252  24.534  0.00  0.00    +0.343 A 
BRANCH  27  28
ATOM     28  O   UNL     1      -1.921   3.163  24.065  0.00  0.00    -0.421 OA
BRANCH  28  29
ATOM     29  C   UNL     1      -2.670   3.284  24.391  0.00  0.00    +0.149 A 
ATOM     30  C   UNL     1      -2.759   3.771  25.050  0.00  0.00    +0.039 A 
ATOM     31  C   UNL     1      -3.507   3.892  25.376  0.00  0.00    +0.022 A 
ATOM     32  C   UNL     1      -4.167   3.526  25.041  0.00  0.00    +0.085 A 
ATOM     33  C   UNL     1      -4.078   3.039  24.380  0.00  0.00    +0.022 A 
ATOM     34  C   UNL     1      -3.329   2.918  24.055  0.00  0.00    +0.039 A 
BRANCH  32  35
ATOM     35  N   UNL     1      -4.916   3.646  25.365  0.00  0.00    -0.208 N 
ATOM     36  C   UNL     1      -5.368   3.082  25.762  0.00  0.00    +0.202 A 
ATOM     37  N   UNL     1      -6.076   3.438  25.993  0.00  0.00    -0.200 NA
ATOM     38  C   UNL     1      -6.060   4.222  25.738  0.00  0.00    +0.221 A 
ATOM     39  N   UNL     1      -5.343   4.351  25.351  0.00  0.00    -0.141 NA
ENDBRANCH  32  35
ENDBRANCH  28  29
ENDBRANCH  27  28
ENDBRANCH  19  23
BRANCH  15  14
ATOM     14  N   UNL     1      -0.938  -0.900  24.655  0.00  0.00    -0.074 NA
BRANCH  14  11
ATOM     11  S   UNL     1      -0.819  -1.518  25.189  0.00  0.00    +0.077 S 
ATOM     12  O   UNL     1      -0.123  -1.159  25.449  0.00  0.00    -0.152 OA
ATOM     13  O   UNL     1      -0.700  -2.135  25.723  0.00  0.00    -0.152 OA
BRANCH  11   8
ATOM      5  C   UNL     1      -2.905  -2.596  24.410  0.00  0.00    +0.073 A 
ATOM      6  C   UNL     1      -2.893  -2.197  25.131  0.00  0.00    +0.018 A 
ATOM      7  C   UNL     1      -2.196  -1.837  25.391  0.00  0.00    +0.021 A 
ATOM      8  C   UNL     1      -1.515  -1.877  24.930  0.00  0.00    +0.124 A 
ATOM      9  C   UNL     1      -1.527  -2.277  24.208  0.00  0.00    +0.021 A 
ATOM     10  C   UNL     1      -2.222  -2.637  23.948  0.00  0.00    +0.018 A 
BRANCH   5   4
ATOM      1  C   UNL     1      -4.888  -2.864  23.538  0.00  0.00    +0.097 C 
ATOM      2  C   UNL     1      -4.193  -2.504  23.798  0.00  0.00    +0.246 C 
ATOM      3  O   UNL     1      -4.091  -1.690  23.706  0.00  0.00    -0.273 OA
ATOM      4  N   UNL     1      -3.600  -2.956  24.150  0.00  0.00    -0.179 NA
ENDBRANCH   5   4
ENDBRANCH  11   8
ENDBRANCH  14  11
ENDBRANCH  15  14
TORSDOF 8
ENDMDL
MODEL 5
REMARK VINA RESULT:      -7.4      3.081      6.141
REMARK  Name = 
REMARK  8 active torsions:
REMARK  status: ('A' for Active; 'I' for Inactive)
REMARK    1  A    between atoms: N_4  and  C_5
REMARK    2  A    between atoms: C_8  and  S_11
REMARK    3  A    between atoms: S_11  and  N_14
REMARK    4  A    between atoms: N_14  and  C_15
REMARK    5  A    between atoms: C_19  and  N_23
REMARK    6  A    between atoms: C_27  and  O_28
REMARK    7  A    between atoms: O_28  and  C_29
REMARK    8  A    between atoms: C_32  and  N_35
REMARK                            x       y       z     vdW  Elec       q    Type
REMARK                         _______ _______ _______ _____ _____    ______ ____
ROOT
ATOM     15  C   UNL     1      -1.103   3.069  24.989  0.00  0.00    +0.157 C 
ATOM     16  C   UNL     1      -1.123   3.032  24.165  0.00  0.00    +0.164 C 
ATOM     17  O   UNL     1      -0.818   2.301  23.936  0.00  0.00    -0.350 OA
ATOM     18  C   UNL     1      -0.610   1.886  24.617  0.00  0.00    +0.169 C 
ATOM     19  C   UNL     1      -0.293   1.178  24.898  0.00  0.00    +0.170 C 
ATOM     20  C   UNL     1      -0.273   1.215  25.722  0.00  0.00    +0.169 C 
ATOM     21  O   UNL     1      -0.577   1.947  25.951  0.00  0.00    -0.350 OA
ATOM     22  C   UNL     1      -0.786   2.361  25.268  0.00  0.00    +0.164 C 
ENDROOT
BRANCH  19  23
ATOM     23  N   UNL     1      -0.040   0.543  24.435  0.00  0.00    -0.180 N 
ATOM     24  N   UNL     1       0.481   0.585  23.796  0.00  0.00    -0.040 NA
ATOM     25  N   UNL     1       0.579  -0.177  23.496  0.00  0.00    -0.020 NA
ATOM     26  N   UNL     1       0.118  -0.690  23.949  0.00  0.00    -0.071 NA
ATOM     27  C   UNL     1      -0.265  -0.245  24.529  0.00  0.00    +0.343 A 
BRANCH  27  28
ATOM     28  O   UNL     1      -0.781  -0.537  25.102  0.00  0.00    -0.421 OA
BRANCH  28  29
ATOM     29  C   UNL     1      -1.425  -1.003  24.879  0.00  0.00    +0.149 A 
ATOM     30  C   UNL     1      -1.319  -1.807  24.726  0.00  0.00    +0.039 A 
ATOM     31  C   UNL     1      -1.962  -2.272  24.503  0.00  0.00    +0.022 A 
ATOM     32  C   UNL     1      -2.712  -1.934  24.432  0.00  0.00    +0.085 A 
ATOM     33  C   UNL     1      -2.818  -1.130  24.585  0.00  0.00    +0.022 A 
ATOM     34  C   UNL     1      -2.174  -0.665  24.809  0.00  0.00    +0.039 A 
BRANCH  32  35
ATOM     35  N   UNL     1      -3.355  -2.399  24.209  0.00  0.00    -0.208 N 
ATOM     36  C   UNL     1      -3.465  -3.195  24.396  0.00  0.00    +0.202 A 
ATOM     37  N   UNL     1      -4.180  -3.439  24.062  0.00  0.00    -0.200 NA
ATOM     38  C   UNL     1      -4.511  -2.793  23.670  0.00  0.00    +0.221 A 
ATOM     39  N   UNL     1      -4.001  -2.151  23.761  0.00  0.00    -0.141 NA
ENDBRANCH  32  35
ENDBRANCH  28  29
ENDBRANCH  27  28
ENDBRANCH  19  23
BRANCH  15  14
ATOM     14  N   UNL     1      -1.355   3.704  25.452  0.00  0.00    -0.074 NA
BRANCH  14  11
ATOM     11  S   UNL     1      -1.561   4.419  25.095  0.00  0.00    +0.077 S 
ATOM     12  O   UNL     1      -0.771   4.547  24.895  0.00  0.00    -0.152 OA
ATOM     13  O   UNL     1      -1.766   5.134  24.738  0.00  0.00    -0.152 OA
BRANCH  11   8
ATOM      5  C   UNL     1      -3.931   4.039  25.693  0.00  0.00    +0.073 A 
ATOM      6  C   UNL     1      -3.361   4.091  26.285  0.00  0.00    +0.018 A 
ATOM      7  C   UNL     1      -2.569   4.218  26.086  0.00  0.00    +0.021 A 
ATOM      8  C   UNL     1      -2.351   4.292  25.295  0.00  0.00    +0.124 A 
ATOM      9  C   UNL     1      -2.922   4.240  24.701  0.00  0.00    +0.021 A 
ATOM     10  C   UNL     1      -3.712   4.114  24.901  0.00  0.00    +0.018 A 
BRANCH   5   4
ATOM      1  C   UNL     1      -5.855   3.045  25.970  0.00  0.00    +0.097 C 
ATOM      2  C   UNL     1      -5.065   3.172  25.771  0.00  0.00    +0.246 C 
ATOM      3  O   UNL     1      -4.616   2.557  25.451  0.00  0.00    -0.273 OA
ATOM      4  N   UNL     1      -4.722   3.912  25.892  0.00  0.00    -0.179 NA
ENDBRANCH   5   4
ENDBRANCH  11   8
ENDBRANCH  14  11
ENDBRANCH  15  14
TORSDOF 8
ENDMDL
