MODEL 1
REMARK VINA RESULT:     -11.3      0.000      0.000
REMARK  Name = 
REMARK  6 active torsions:
REMARK  status: ('A' for Active; 'I' for Inactive)
REMARK    1  A    between atoms: C_2  and  C_3
REMARK    2  A    between atoms: C_2  and  C_20
REMARK    3  A    between atoms: C_10  and  N_11
REMARK    4  A    between atoms: N_22  and  C_24
REMARK    5  A    between atoms: C_24  and  C_25
REMARK    6  A    between atoms: C_25  and  C_26
REMARK                            x       y       z     vdW  Elec       q    Type
REMARK                         _______ _______ _______ _____ _____    ______ ____
ROOT
ATOM      3  C   UNL     1      -3.542   1.060  24.957  0.00  0.00    +0.039 C 
ATOM      4  C   UNL     1      -2.848   0.983  25.397  0.00  0.00    +0.003 C 
ATOM      5  C   UNL     1      -2.481   0.247  25.461  0.00  0.00    +0.000 C 
ATOM      6  C   UNL     1      -2.806  -0.410  25.086  0.00  0.00    +0.002 C 
ATOM      7  C   UNL     1      -2.114  -0.488  25.525  0.00  0.00    +0.000 C 
ATOM      8  C   UNL     1      -2.439  -1.147  25.150  0.00  0.00    +0.002 C 
ATOM      9  C   UNL     1      -2.765  -1.805  24.774  0.00  0.00    +0.022 C 
ATOM     10  C   UNL     1      -3.459  -1.728  24.333  0.00  0.00    +0.095 C 
ATOM     15  C   UNL     1      -3.826  -0.991  24.269  0.00  0.00    +0.022 C 
ATOM     16  C   UNL     1      -4.520  -0.914  23.829  0.00  0.00    +0.002 C 
ATOM     17  C   UNL     1      -3.501  -0.333  24.645  0.00  0.00    +0.032 C 
ATOM     18  C   UNL     1      -3.868   0.403  24.581  0.00  0.00    +0.152 C 
ATOM     19  O   UNL     1      -4.561   0.480  24.141  0.00  0.00    -0.223 OA
ENDROOT
BRANCH  10  11
ATOM     11  N   UNL     1      -3.784  -2.385  23.958  0.00  0.00    -0.207 NA
ATOM     12  C   UNL     1      -3.763  -3.123  24.325  0.00  0.00    +0.242 C 
ATOM     13  C   UNL     1      -4.089  -3.781  23.950  0.00  0.00    +0.096 C 
ATOM     14  O   UNL     1      -3.415  -3.203  25.070  0.00  0.00    -0.273 OA
ENDBRANCH  10  11
BRANCH   3   2
ATOM      1  C   UNL     1      -4.715   1.871  25.057  0.00  0.00    +0.010 C 
ATOM      2  C   UNL     1      -3.910   1.797  24.893  0.00  0.00    +0.079 C 
BRANCH   2  20
ATOM     20  C   UNL     1      -3.473   2.458  24.666  0.00  0.00    +0.225 C 
ATOM     21  O   UNL     1      -3.069   2.458  23.946  0.00  0.00    -0.275 OA
ATOM     22  N   UNL     1      -3.438   3.119  25.158  0.00  0.00    -0.277 N 
ATOM     23  C   UNL     1      -3.842   3.119  25.877  0.00  0.00    +0.115 C 
BRANCH  22  24
ATOM     24  C   UNL     1      -3.002   3.781  24.931  0.00  0.00    +0.098 C 
BRANCH  24  25
ATOM     25  C   UNL     1      -2.544   4.184  25.486  0.00  0.00    +0.048 C 
BRANCH  25  26
ATOM     26  C   UNL     1      -1.891   4.625  25.242  0.00  0.00    -0.020 A 
ATOM     27  C   UNL     1      -1.973   5.429  25.078  0.00  0.00    -0.004 A 
ATOM     28  C   UNL     1      -1.321   5.870  24.834  0.00  0.00    -0.000 A 
ATOM     29  C   UNL     1      -0.584   5.505  24.752  0.00  0.00    -0.000 A 
ATOM     30  C   UNL     1      -0.501   4.701  24.915  0.00  0.00    -0.000 A 
ATOM     31  C   UNL     1      -1.154   4.260  25.160  0.00  0.00    -0.004 A 
ENDBRANCH  25  26
ENDBRANCH  24  25
ENDBRANCH  22  24
ENDBRANCH   2  20
ENDBRANCH   3   2
TORSDOF 6
ENDMDL
MODEL 2
REMARK VINA RESULT:     -11.3      1.293      2.003
REMARK  Name = 
REMARK  6 active torsions:
REMARK  status: ('A' for Active; 'I' for Inactive)
REMARK    1  A    between atoms: C_2  and  C_3
REMARK    2  A    between atoms: C_2  and  C_20
REMARK    3  A    between atoms: C_10  and  N_11
REMARK    4  A    between atoms: N_22  and  C_24
REMARK    5  A    between atoms: C_24  and  C_25
REMARK    6  A    between atoms: C_25  and  C_26
REMARK                            x       y       z     vdW  Elec       q    Type
REMARK                         _______ _______ _______ _____ _____    ______ ____
ROOT
ATOM      3  C   UNL     1      -1.855   0.425  24.868  0.00  0.00    +0.039 C 
ATOM      4  C   UNL     1      -2.544   0.854  25.026  0.00  0.00    +0.003 C 
ATOM      5  C   UNL     1      -3.273   0.470  25.044  0.00  0.00    +0.000 C 
ATOM      6  C   UNL     1      -3.315  -0.342  24.904  0.00  0.00    +0.002 C 
ATOM      7  C   UNL     1      -4.002   0.086  25.062  0.00  0.00    +0.000 C 
ATOM      8  C   UNL     1      -4.045  -0.726  24.922  0.00  0.00    +0.002 C 
ATOM      9  C   UNL     1      -4.088  -1.539  24.782  0.00  0.00    +0.022 C 
ATOM     10  C   UNL     1      -3.400  -1.967  24.624  0.00  0.00    +0.095 C 
ATOM     15  C   UNL     1      -2.670  -1.582  24.606  0.00  0.00    +0.022 C 
ATOM     16  C   UNL     1      -1.983  -2.010  24.448  0.00  0.00    +0.002 C 
ATOM     17  C   UNL     1      -2.627  -0.770  24.746  0.00  0.00    +0.032 C 
ATOM     18  C   UNL     1      -1.898  -0.386  24.728  0.00  0.00    +0.152 C 
ATOM     19  O   UNL     1      -1.210  -0.814  24.570  0.00  0.00    -0.223 OA
ENDROOT
BRANCH  10  11
ATOM     11  N   UNL     1      -3.443  -2.778  24.484  0.00  0.00    -0.207 NA
ATOM     12  C   UNL     1      -4.008  -3.078  23.964  0.00  0.00    +0.242 C 
ATOM     13  C   UNL     1      -4.051  -3.890  23.824  0.00  0.00    +0.096 C 
ATOM     14  O   UNL     1      -4.531  -2.566  23.583  0.00  0.00    -0.273 OA
ENDBRANCH  10  11
BRANCH   3   2
ATOM      1  C   UNL     1      -0.442   0.407  25.077  0.00  0.00    +0.010 C 
ATOM      2  C   UNL     1      -1.125   0.810  24.850  0.00  0.00    +0.079 C 
BRANCH   2  20
ATOM     20  C   UNL     1      -1.079   1.596  24.605  0.00  0.00    +0.225 C 
ATOM     21  O   UNL     1      -1.355   1.813  23.857  0.00  0.00    -0.275 OA
ATOM     22  N   UNL     1      -0.757   2.166  25.107  0.00  0.00    -0.277 N 
ATOM     23  C   UNL     1      -0.481   1.950  25.854  0.00  0.00    +0.115 C 
BRANCH  22  24
ATOM     24  C   UNL     1      -0.710   2.952  24.862  0.00  0.00    +0.098 C 
BRANCH  24  25
ATOM     25  C   UNL     1      -0.679   3.558  25.422  0.00  0.00    +0.048 C 
BRANCH  25  26
ATOM     26  C   UNL     1      -0.984   4.302  25.242  0.00  0.00    -0.020 A 
ATOM     27  C   UNL     1      -0.520   4.854  24.842  0.00  0.00    -0.004 A 
ATOM     28  C   UNL     1      -0.826   5.599  24.662  0.00  0.00    -0.000 A 
ATOM     29  C   UNL     1      -1.598   5.792  24.884  0.00  0.00    -0.000 A 
ATOM     30  C   UNL     1      -2.062   5.241  25.284  0.00  0.00    -0.000 A 
ATOM     31  C   UNL     1      -1.756   4.496  25.464  0.00  0.00    -0.004 A 
ENDBRANCH  25  26
ENDBRANCH  24  25
ENDBRANCH  22  24
ENDBRANCH   2  20
ENDBRANCH   3   2
TORSDOF 6
ENDMDL
MODEL 3
REMARK VINA RESULT:     -11.2      1.342      5.761
REMARK  Name = 
REMARK  6 active torsions:
REMARK  status: ('A' for Active; 'I' for Inactive)
REMARK    1  A    between atoms: C_2  and  C_3
REMARK    2  A    between atoms: C_2  and  C_20
REMARK    3  A    between atoms: C_10  and  N_11
REMARK    4  A    between atoms: N_22  and  C_24
REMARK    5  A    between atoms: C_24  and  C_25
REMARK    6  A    between atoms: C_25  and  C_26
REMARK                            x       y       z     vdW  Elec       q    Type
REMARK                         _______ _______ _______ _____ _____    ______ ____
ROOT
ATOM      3  C   UNL     1      -3.158   1.899  24.805  0.00  0.00    +0.039 C 
ATOM      4  C   UNL     1      -2.516   1.451  25.070  0.00  0.00    +0.003 C 
ATOM      5  C   UNL     1      -1.823   1.827  25.311  0.00  0.00    +0.000 C 
ATOM      6  C   UNL     1      -1.770   2.649  25.287  0.00  0.00    +0.002 C 
ATOM      7  C   UNL     1      -1.129   2.202  25.551  0.00  0.00    +0.000 C 
ATOM      8  C   UNL     1      -1.076   3.026  25.527  0.00  0.00    +0.002 C 
ATOM      9  C   UNL     1      -1.022   3.849  25.504  0.00  0.00    +0.022 C 
ATOM     10  C   UNL     1      -1.664   4.296  25.239  0.00  0.00    +0.095 C 
ATOM     15  C   UNL     1      -2.357   3.920  24.998  0.00  0.00    +0.022 C 
ATOM     16  C   UNL     1      -2.998   4.367  24.733  0.00  0.00    +0.002 C 
ATOM     17  C   UNL     1      -2.411   3.097  25.022  0.00  0.00    +0.032 C 
ATOM     18  C   UNL     1      -3.104   2.721  24.781  0.00  0.00    +0.152 C 
ATOM     19  O   UNL     1      -3.745   3.168  24.517  0.00  0.00    -0.223 OA
ENDROOT
BRANCH  10  11
ATOM     11  N   UNL     1      -1.610   5.119  25.215  0.00  0.00    -0.207 NA
ATOM     12  C   UNL     1      -0.959   5.480  24.862  0.00  0.00    +0.242 C 
ATOM     13  C   UNL     1      -0.905   6.303  24.837  0.00  0.00    +0.096 C 
ATOM     14  O   UNL     1      -0.359   5.017  24.532  0.00  0.00    -0.273 OA
ENDBRANCH  10  11
BRANCH   3   2
ATOM      1  C   UNL     1      -4.580   1.895  24.669  0.00  0.00    +0.010 C 
ATOM      2  C   UNL     1      -3.851   1.522  24.565  0.00  0.00    +0.079 C 
BRANCH   2  20
ATOM     20  C   UNL     1      -3.817   0.774  24.221  0.00  0.00    +0.225 C 
ATOM     21  O   UNL     1      -3.360   0.651  23.544  0.00  0.00    -0.275 OA
ATOM     22  N   UNL     1      -4.239   0.147  24.552  0.00  0.00    -0.277 N 
ATOM     23  C   UNL     1      -4.696   0.270  25.228  0.00  0.00    +0.115 C 
BRANCH  22  24
ATOM     24  C   UNL     1      -4.205  -0.601  24.209  0.00  0.00    +0.098 C 
BRANCH  24  25
ATOM     25  C   UNL     1      -4.364  -1.272  24.662  0.00  0.00    +0.048 C 
BRANCH  25  26
ATOM     26  C   UNL     1      -4.004  -1.990  24.477  0.00  0.00    -0.020 A 
ATOM     27  C   UNL     1      -3.391  -2.278  24.948  0.00  0.00    -0.004 A 
ATOM     28  C   UNL     1      -3.031  -2.997  24.763  0.00  0.00    -0.000 A 
ATOM     29  C   UNL     1      -3.284  -3.429  24.107  0.00  0.00    -0.000 A 
ATOM     30  C   UNL     1      -3.897  -3.141  23.636  0.00  0.00    -0.000 A 
ATOM     31  C   UNL     1      -4.258  -2.422  23.821  0.00  0.00    -0.004 A 
ENDBRANCH  25  26
ENDBRANCH  24  25
ENDBRANCH  22  24
ENDBRANCH   2  20
ENDBRANCH   3   2
TORSDOF 6
ENDMDL
MODEL 4
REMARK VINA RESULT:     -10.4      1.754      5.981
REMARK  Name = 
REMARK  6 active torsions:
REMARK  status: ('A' for Active; 'I' for Inactive)
REMARK    1  A    between atoms: C_2  and  C_3
REMARK    2  A    between atoms: C_2  and  C_20
REMARK    3  A    between atoms: C_10  and  N_11
REMARK    4  A    between atoms: N_22  and  C_24
REMARK    5  A    between atoms: C_24  and  C_25
REMARK    6  A    between atoms: C_25  and  C_26
REMARK                            x       y       z     vdW  Elec       q    Type
REMARK                         _______ _______ _______ _____ _____    ______ ____
ROOT
ATOM      3  C   UNL     1      -0.741   1.110  25.175  0.00  0.00    +0.039 C 
ATOM      4  C   UNL     1      -0.065   1.193  24.709  0.00  0.00    +0.003 C 
ATOM      5  C   UNL     1       0.142   1.933  24.411  0.00  0.00    +0.000 C 
ATOM      6  C   UNL     1      -0.326   2.590  24.577  0.00  0.00    +0.002 C 
ATOM      7  C   UNL     1       0.349   2.673  24.112  0.00  0.00    +0.000 C 
ATOM      8  C   UNL     1      -0.120   3.331  24.279  0.00  0.00    +0.002 C 
ATOM      9  C   UNL     1      -0.589   3.990  24.446  0.00  0.00    +0.022 C 
ATOM     10  C   UNL     1      -1.265   3.907  24.912  0.00  0.00    +0.095 C 
ATOM     15  C   UNL     1      -1.472   3.166  25.210  0.00  0.00    +0.022 C 
ATOM     16  C   UNL     1      -2.148   3.083  25.676  0.00  0.00    +0.002 C 
ATOM     17  C   UNL     1      -1.003   2.507  25.043  0.00  0.00    +0.032 C 
ATOM     18  C   UNL     1      -1.210   1.767  25.342  0.00  0.00    +0.152 C 
ATOM     19  O   UNL     1      -1.886   1.684  25.807  0.00  0.00    -0.223 OA
ENDROOT
BRANCH  10  11
ATOM     11  N   UNL     1      -1.734   4.564  25.078  0.00  0.00    -0.207 NA
ATOM     12  C   UNL     1      -1.409   5.321  25.046  0.00  0.00    +0.242 C 
ATOM     13  C   UNL     1      -1.878   5.980  25.213  0.00  0.00    +0.096 C 
ATOM     14  O   UNL     1      -0.614   5.421  24.846  0.00  0.00    -0.273 OA
ENDBRANCH  10  11
BRANCH   3   2
ATOM      1  C   UNL     1      -0.734   0.160  26.242  0.00  0.00    +0.010 C 
ATOM      2  C   UNL     1      -0.948   0.369  25.473  0.00  0.00    +0.079 C 
BRANCH   2  20
ATOM     20  C   UNL     1      -1.368  -0.163  25.004  0.00  0.00    +0.225 C 
ATOM     21  O   UNL     1      -1.333  -0.103  24.181  0.00  0.00    -0.275 OA
ATOM     22  N   UNL     1      -1.822  -0.756  25.356  0.00  0.00    -0.277 N 
ATOM     23  C   UNL     1      -1.856  -0.816  26.178  0.00  0.00    +0.115 C 
BRANCH  22  24
ATOM     24  C   UNL     1      -2.242  -1.288  24.886  0.00  0.00    +0.098 C 
BRANCH  24  25
ATOM     25  C   UNL     1      -2.936  -1.631  25.170  0.00  0.00    +0.048 C 
BRANCH  25  26
ATOM     26  C   UNL     1      -3.449  -2.015  24.651  0.00  0.00    -0.020 A 
ATOM     27  C   UNL     1      -3.390  -2.830  24.539  0.00  0.00    -0.004 A 
ATOM     28  C   UNL     1      -3.903  -3.214  24.020  0.00  0.00    -0.000 A 
ATOM     29  C   UNL     1      -4.477  -2.782  23.612  0.00  0.00    -0.000 A 
ATOM     30  C   UNL     1      -4.537  -1.968  23.724  0.00  0.00    -0.000 A 
ATOM     31  C   UNL     1      -4.023  -1.583  24.243  0.00  0.00    -0.004 A 
ENDBRANCH  25  26
ENDBRANCH  24  25
ENDBRANCH  22  24
ENDBRANCH   2  20
ENDBRANCH   3   2
TORSDOF 6
ENDMDL
MODEL 5
REMARK VINA RESULT:     -10.4      2.913      4.844
REMARK  Name = 
REMARK  6 active torsions:
REMARK  status: ('A' for Active; 'I' for Inactive)
REMARK    1  A    between atoms: C_2  and  C_3
REMARK    2  A    between atoms: C_2  and  C_20
REMARK    3  A    between atoms: C_10  and  N_11
REMARK    4  A    between atoms: N_22  and  C_24
REMARK    5  A    between atoms: C_24  and  C_25
REMARK    6  A    between atoms: C_25  and  C_26
REMARK                            x       y       z     vdW  Elec       q    Type
REMARK                         _______ _______ _______ _____ _____    ______ ____
ROOT
ATOM      3  C   UNL     1      -2.116   0.991  24.769  0.00  0.00    +0.039 C 
ATOM      4  C   UNL     1      -2.578   0.370  24.483  0.00  0.00    +0.003 C 
ATOM      5  C   UNL     1      -3.389   0.473  24.378  0.00  0.00    +0.000 C 
ATOM      6  C   UNL     1      -3.739   1.197  24.559  0.00  0.00    +0.002 C 
ATOM      7  C   UNL     1      -4.200   0.577  24.273  0.00  0.00    +0.000 C 
ATOM      8  C   UNL     1      -4.551   1.302  24.454  0.00  0.00    +0.002 C 
ATOM      9  C   UNL     1      -4.902   2.026  24.635  0.00  0.00    +0.022 C 
ATOM     10  C   UNL     1      -4.440   2.648  24.922  0.00  0.00    +0.095 C 
ATOM     15  C   UNL     1      -3.628   2.544  25.027  0.00  0.00    +0.022 C 
ATOM     16  C   UNL     1      -3.167   3.165  25.313  0.00  0.00    +0.002 C 
ATOM     17  C   UNL     1      -3.277   1.819  24.845  0.00  0.00    +0.032 C 
ATOM     18  C   UNL     1      -2.466   1.715  24.950  0.00  0.00    +0.152 C 
ATOM     19  O   UNL     1      -2.005   2.337  25.237  0.00  0.00    -0.223 OA
ENDROOT
BRANCH  10  11
ATOM     11  N   UNL     1      -4.790   3.372  25.103  0.00  0.00    -0.207 NA
ATOM     12  C   UNL     1      -5.501   3.394  25.519  0.00  0.00    +0.242 C 
ATOM     13  C   UNL     1      -5.852   4.118  25.700  0.00  0.00    +0.096 C 
ATOM     14  O   UNL     1      -5.863   2.690  25.755  0.00  0.00    -0.273 OA
ENDBRANCH  10  11
BRANCH   3   2
ATOM      1  C   UNL     1      -0.997   0.780  25.633  0.00  0.00    +0.010 C 
ATOM      2  C   UNL     1      -1.304   0.887  24.874  0.00  0.00    +0.079 C 
BRANCH   2  20
ATOM     20  C   UNL     1      -0.800   0.890  24.222  0.00  0.00    +0.225 C 
ATOM     21  O   UNL     1      -0.826   1.514  23.682  0.00  0.00    -0.275 OA
ATOM     22  N   UNL     1      -0.268   0.269  24.109  0.00  0.00    -0.277 N 
ATOM     23  C   UNL     1      -0.241  -0.355  24.648  0.00  0.00    +0.115 C 
BRANCH  22  24
ATOM     24  C   UNL     1       0.236   0.272  23.457  0.00  0.00    +0.098 C 
BRANCH  24  25
ATOM     25  C   UNL     1       0.854  -0.273  23.410  0.00  0.00    +0.048 C 
BRANCH  25  26
ATOM     26  C   UNL     1       1.470  -0.155  22.874  0.00  0.00    -0.020 A 
ATOM     27  C   UNL     1       1.395  -0.412  22.094  0.00  0.00    -0.004 A 
ATOM     28  C   UNL     1       2.010  -0.294  21.559  0.00  0.00    -0.000 A 
ATOM     29  C   UNL     1       2.703   0.084  21.804  0.00  0.00    -0.000 A 
ATOM     30  C   UNL     1       2.779   0.341  22.583  0.00  0.00    -0.000 A 
ATOM     31  C   UNL     1       2.163   0.223  23.119  0.00  0.00    -0.004 A 
ENDBRANCH  25  26
ENDBRANCH  24  25
ENDBRANCH  22  24
ENDBRANCH   2  20
ENDBRANCH   3   2
TORSDOF 6
ENDMDL
MODEL 6
REMARK VINA RESULT:     -10.3      3.080      5.018
REMARK  Name = 
REMARK  6 active torsions:
REMARK  status: ('A' for Active; 'I' for Inactive)
REMARK    1  A    between atoms: C_2  and  C_3
REMARK    2  A    between atoms: C_2  and  C_20
REMARK    3  A    between atoms: C_10  and  N_11
REMARK    4  A    between atoms: N_22  and  C_24
REMARK    5  A    between atoms: C_24  and  C_25
REMARK    6  A    between atoms: C_25  and  C_26
REMARK                            x       y       z     vdW  Elec       q    Type
REMARK                         _______ _______ _______ _____ _____    ______ ____
ROOT
ATOM      3  C   UNL     1      -1.700   1.593  24.684  0.00  0.00    +0.039 C 
ATOM      4  C   UNL     1      -1.218   2.082  25.144  0.00  0.00    +0.003 C 
ATOM      5  C   UNL     1      -1.529   2.766  25.483  0.00  0.00    +0.000 C 
ATOM      6  C   UNL     1      -2.321   2.963  25.362  0.00  0.00    +0.002 C 
ATOM      7  C   UNL     1      -1.840   3.451  25.821  0.00  0.00    +0.000 C 
ATOM      8  C   UNL     1      -2.632   3.648  25.701  0.00  0.00    +0.002 C 
ATOM      9  C   UNL     1      -3.424   3.846  25.581  0.00  0.00    +0.022 C 
ATOM     10  C   UNL     1      -3.906   3.357  25.121  0.00  0.00    +0.095 C 
ATOM     15  C   UNL     1      -3.594   2.672  24.782  0.00  0.00    +0.022 C 
ATOM     16  C   UNL     1      -4.076   2.184  24.323  0.00  0.00    +0.002 C 
ATOM     17  C   UNL     1      -2.802   2.475  24.902  0.00  0.00    +0.032 C 
ATOM     18  C   UNL     1      -2.491   1.790  24.564  0.00  0.00    +0.152 C 
ATOM     19  O   UNL     1      -2.973   1.302  24.104  0.00  0.00    -0.223 OA
ENDROOT
BRANCH  10  11
ATOM     11  N   UNL     1      -4.697   3.554  25.001  0.00  0.00    -0.207 NA
ATOM     12  C   UNL     1      -5.194   3.681  25.647  0.00  0.00    +0.242 C 
ATOM     13  C   UNL     1      -5.986   3.878  25.527  0.00  0.00    +0.096 C 
ATOM     14  O   UNL     1      -4.898   3.610  26.415  0.00  0.00    -0.273 OA
ENDBRANCH  10  11
BRANCH   3   2
ATOM      1  C   UNL     1      -1.699   0.171  24.547  0.00  0.00    +0.010 C 
ATOM      2  C   UNL     1      -1.388   0.908  24.345  0.00  0.00    +0.079 C 
BRANCH   2  20
ATOM     20  C   UNL     1      -0.767   0.960  23.806  0.00  0.00    +0.225 C 
ATOM     21  O   UNL     1      -0.746   1.580  23.259  0.00  0.00    -0.275 OA
ATOM     22  N   UNL     1      -0.167   0.394  23.811  0.00  0.00    -0.277 N 
ATOM     23  C   UNL     1      -0.189  -0.224  24.356  0.00  0.00    +0.115 C 
BRANCH  22  24
ATOM     24  C   UNL     1       0.454   0.446  23.271  0.00  0.00    +0.098 C 
BRANCH  24  25
ATOM     25  C   UNL     1       1.068  -0.105  23.294  0.00  0.00    +0.048 C 
BRANCH  25  26
ATOM     26  C   UNL     1       1.764   0.035  22.874  0.00  0.00    -0.020 A 
ATOM     27  C   UNL     1       2.383   0.450  23.227  0.00  0.00    -0.004 A 
ATOM     28  C   UNL     1       3.079   0.590  22.807  0.00  0.00    -0.000 A 
ATOM     29  C   UNL     1       3.156   0.314  22.032  0.00  0.00    -0.000 A 
ATOM     30  C   UNL     1       2.537  -0.100  21.679  0.00  0.00    -0.000 A 
ATOM     31  C   UNL     1       1.840  -0.240  22.099  0.00  0.00    -0.004 A 
ENDBRANCH  25  26
ENDBRANCH  24  25
ENDBRANCH  22  24
ENDBRANCH   2  20
ENDBRANCH   3   2
TORSDOF 6
ENDMDL
MODEL 7
REMARK VINA RESULT:      -9.9      1.774      5.557
REMARK  Name = 
REMARK  6 active torsions:
REMARK  status: ('A' for Active; 'I' for Inactive)
REMARK    1  A    between atoms: C_2  and  C_3
REMARK    2  A    between atoms: C_2  and  C_20
REMARK    3  A    between atoms: C_10  and  N_11
REMARK    4  A    between atoms: N_22  and  C_24
REMARK    5  A    between atoms: C_24  and  C_25
REMARK    6  A    between atoms: C_25  and  C_26
REMARK                            x       y       z     vdW  Elec       q    Type
REMARK                         _______ _______ _______ _____ _____    ______ ____
ROOT
ATOM      3  C   UNL     1      -0.936   1.616  25.025  0.00  0.00    +0.039 C 
ATOM      4  C   UNL     1      -0.524   2.024  25.612  0.00  0.00    +0.003 C 
ATOM      5  C   UNL     1      -0.831   2.724  25.921  0.00  0.00    +0.000 C 
ATOM      6  C   UNL     1      -1.550   3.017  25.643  0.00  0.00    +0.002 C 
ATOM      7  C   UNL     1      -1.138   3.424  26.230  0.00  0.00    +0.000 C 
ATOM      8  C   UNL     1      -1.858   3.717  25.952  0.00  0.00    +0.002 C 
ATOM      9  C   UNL     1      -2.578   4.011  25.675  0.00  0.00    +0.022 C 
ATOM     10  C   UNL     1      -2.990   3.602  25.087  0.00  0.00    +0.095 C 
ATOM     15  C   UNL     1      -2.682   2.902  24.779  0.00  0.00    +0.022 C 
ATOM     16  C   UNL     1      -3.095   2.494  24.192  0.00  0.00    +0.002 C 
ATOM     17  C   UNL     1      -1.963   2.608  25.056  0.00  0.00    +0.032 C 
ATOM     18  C   UNL     1      -1.655   1.909  24.747  0.00  0.00    +0.152 C 
ATOM     19  O   UNL     1      -2.068   1.501  24.161  0.00  0.00    -0.223 OA
ENDROOT
BRANCH  10  11
ATOM     11  N   UNL     1      -3.709   3.895  24.810  0.00  0.00    -0.207 NA
ATOM     12  C   UNL     1      -4.347   3.981  25.326  0.00  0.00    +0.242 C 
ATOM     13  C   UNL     1      -5.067   4.273  25.049  0.00  0.00    +0.096 C 
ATOM     14  O   UNL     1      -4.264   3.773  26.121  0.00  0.00    -0.273 OA
ENDBRANCH  10  11
BRANCH   3   2
ATOM      1  C   UNL     1      -0.044   0.943  24.135  0.00  0.00    +0.010 C 
ATOM      2  C   UNL     1      -0.628   0.915  24.716  0.00  0.00    +0.079 C 
BRANCH   2  20
ATOM     20  C   UNL     1      -0.905   0.188  24.988  0.00  0.00    +0.225 C 
ATOM     21  O   UNL     1      -1.191   0.117  25.759  0.00  0.00    -0.275 OA
ATOM     22  N   UNL     1      -0.895  -0.470  24.490  0.00  0.00    -0.277 N 
ATOM     23  C   UNL     1      -0.609  -0.399  23.719  0.00  0.00    +0.115 C 
BRANCH  22  24
ATOM     24  C   UNL     1      -1.172  -1.198  24.761  0.00  0.00    +0.098 C 
BRANCH  24  25
ATOM     25  C   UNL     1      -1.519  -1.730  24.236  0.00  0.00    +0.048 C 
BRANCH  25  26
ATOM     26  C   UNL     1      -2.215  -2.121  24.443  0.00  0.00    -0.020 A 
ATOM     27  C   UNL     1      -2.194  -2.741  24.988  0.00  0.00    -0.004 A 
ATOM     28  C   UNL     1      -2.890  -3.132  25.195  0.00  0.00    -0.000 A 
ATOM     29  C   UNL     1      -3.608  -2.903  24.858  0.00  0.00    -0.000 A 
ATOM     30  C   UNL     1      -3.629  -2.283  24.314  0.00  0.00    -0.000 A 
ATOM     31  C   UNL     1      -2.933  -1.892  24.106  0.00  0.00    -0.004 A 
ENDBRANCH  25  26
ENDBRANCH  24  25
ENDBRANCH  22  24
ENDBRANCH   2  20
ENDBRANCH   3   2
TORSDOF 6
ENDMDL
