MODEL 1
REMARK VINA RESULT:     -11.1      0.000      0.000
REMARK  Name = 
REMARK  4 active torsions:
REMARK  status: ('A' for Active; 'I' for Inactive)
REMARK    1  A    between atoms: O_2  and  C_3
REMARK    2  A    between atoms: C_6  and  C_9
REMARK    3  A    between atoms: C_12  and  C_14
REMARK    4  A    between atoms: N_18  and  C_19
REMARK                            x       y       z     vdW  Elec       q    Type
REMARK                         _______ _______ _______ _____ _____    ______ ____
ROOT
ATOM      9  C   UNL     1      -4.186   0.790  24.471  0.00  0.00    +0.205 A 
ATOM     10  N   UNL     1      -3.719   0.805  23.792  0.00  0.00    -0.056 NA
ATOM     11  O   UNL     1      -3.492   0.032  23.621  0.00  0.00    -0.336 OA
ATOM     12  C   UNL     1      -3.820  -0.463  24.195  0.00  0.00    +0.251 A 
ATOM     13  N   UNL     1      -4.248   0.007  24.720  0.00  0.00    -0.190 NA
ENDROOT
BRANCH   9   6
ATOM      3  C   UNL     1      -5.221   2.752  25.569  0.00  0.00    +0.225 A 
ATOM      4  N   UNL     1      -4.419   2.762  25.378  0.00  0.00    -0.210 NA
ATOM      5  C   UNL     1      -4.074   2.108  25.012  0.00  0.00    +0.105 A 
ATOM      6  C   UNL     1      -4.531   1.444  24.837  0.00  0.00    +0.058 A 
ATOM      7  C   UNL     1      -5.334   1.434  25.029  0.00  0.00    +0.010 A 
ATOM      8  C   UNL     1      -5.679   2.089  25.395  0.00  0.00    +0.058 A 
BRANCH   3   2
ATOM      1  C   UNL     1      -5.617   4.126  25.532  0.00  0.00    +0.254 C 
ATOM      2  O   UNL     1      -5.566   3.406  25.935  0.00  0.00    -0.456 OA
ENDBRANCH   3   2
ENDBRANCH   9   6
BRANCH  12  14
ATOM     14  C   UNL     1      -3.733  -1.282  24.236  0.00  0.00    +0.138 C 
ATOM     15  C   UNL     1      -4.264  -1.842  23.945  0.00  0.00    +0.027 C 
ATOM     16  C   UNL     1      -3.957  -2.591  24.105  0.00  0.00    +0.019 C 
ATOM     17  C   UNL     1      -3.236  -2.494  24.494  0.00  0.00    +0.072 C 
ATOM     18  N   UNL     1      -3.097  -1.686  24.575  0.00  0.00    -0.268 NA
BRANCH  18  19
ATOM     19  C   UNL     1      -2.439  -1.340  24.932  0.00  0.00    +0.058 C 
ATOM     20  C   UNL     1      -1.764  -1.179  24.484  0.00  0.00    +0.016 C 
ATOM     21  C   UNL     1      -1.106  -0.832  24.841  0.00  0.00    +0.001 C 
ATOM     22  C   UNL     1      -1.121  -0.647  25.645  0.00  0.00    +0.000 C 
ATOM     23  C   UNL     1      -1.795  -0.808  26.092  0.00  0.00    +0.001 C 
ATOM     24  C   UNL     1      -2.454  -1.154  25.735  0.00  0.00    +0.016 C 
ENDBRANCH  18  19
ENDBRANCH  12  14
TORSDOF 4
ENDMDL
MODEL 2
REMARK VINA RESULT:     -10.7      1.474      4.458
REMARK  Name = 
REMARK  4 active torsions:
REMARK  status: ('A' for Active; 'I' for Inactive)
REMARK    1  A    between atoms: O_2  and  C_3
REMARK    2  A    between atoms: C_6  and  C_9
REMARK    3  A    between atoms: C_12  and  C_14
REMARK    4  A    between atoms: N_18  and  C_19
REMARK                            x       y       z     vdW  Elec       q    Type
REMARK                         _______ _______ _______ _____ _____    ______ ____
ROOT
ATOM      9  C   UNL     1      -3.707   0.843  24.359  0.00  0.00    +0.205 A 
ATOM     10  N   UNL     1      -3.592   1.321  23.696  0.00  0.00    -0.056 NA
ATOM     11  O   UNL     1      -3.899   2.067  23.863  0.00  0.00    -0.336 OA
ATOM     12  C   UNL     1      -4.203   2.051  24.631  0.00  0.00    +0.251 A 
ATOM     13  N   UNL     1      -4.084   1.295  24.936  0.00  0.00    -0.190 NA
ENDROOT
BRANCH   9   6
ATOM      3  C   UNL     1      -3.035  -1.529  24.576  0.00  0.00    +0.225 A 
ATOM      4  N   UNL     1      -2.486  -0.931  24.719  0.00  0.00    -0.210 NA
ATOM      5  C   UNL     1      -2.710  -0.140  24.647  0.00  0.00    +0.105 A 
ATOM      6  C   UNL     1      -3.483   0.052  24.431  0.00  0.00    +0.058 A 
ATOM      7  C   UNL     1      -4.032  -0.547  24.288  0.00  0.00    +0.010 A 
ATOM      8  C   UNL     1      -3.808  -1.338  24.360  0.00  0.00    +0.058 A 
BRANCH   3   2
ATOM      1  C   UNL     1      -3.382  -2.916  24.611  0.00  0.00    +0.254 C 
ATOM      2  O   UNL     1      -2.811  -2.320  24.649  0.00  0.00    -0.456 OA
ENDBRANCH   3   2
ENDBRANCH   9   6
BRANCH  12  14
ATOM     14  C   UNL     1      -4.563   2.682  25.022  0.00  0.00    +0.138 C 
ATOM     15  C   UNL     1      -5.370   2.770  25.162  0.00  0.00    +0.027 C 
ATOM     16  C   UNL     1      -5.483   3.479  25.569  0.00  0.00    +0.019 C 
ATOM     17  C   UNL     1      -4.745   3.829  25.680  0.00  0.00    +0.072 C 
ATOM     18  N   UNL     1      -4.176   3.338  25.342  0.00  0.00    -0.268 NA
BRANCH  18  19
ATOM     19  C   UNL     1      -3.362   3.476  25.326  0.00  0.00    +0.058 C 
ATOM     20  C   UNL     1      -2.892   3.235  25.961  0.00  0.00    +0.016 C 
ATOM     21  C   UNL     1      -2.078   3.372  25.946  0.00  0.00    +0.001 C 
ATOM     22  C   UNL     1      -1.735   3.750  25.296  0.00  0.00    +0.000 C 
ATOM     23  C   UNL     1      -2.206   3.990  24.663  0.00  0.00    +0.001 C 
ATOM     24  C   UNL     1      -3.020   3.852  24.678  0.00  0.00    +0.016 C 
ENDBRANCH  18  19
ENDBRANCH  12  14
TORSDOF 4
ENDMDL
MODEL 3
REMARK VINA RESULT:     -10.7      1.868      4.727
REMARK  Name = 
REMARK  4 active torsions:
REMARK  status: ('A' for Active; 'I' for Inactive)
REMARK    1  A    between atoms: O_2  and  C_3
REMARK    2  A    between atoms: C_6  and  C_9
REMARK    3  A    between atoms: C_12  and  C_14
REMARK    4  A    between atoms: N_18  and  C_19
REMARK                            x       y       z     vdW  Elec       q    Type
REMARK                         _______ _______ _______ _____ _____    ______ ____
ROOT
ATOM      9  C   UNL     1      -2.626   0.879  24.513  0.00  0.00    +0.205 A 
ATOM     10  N   UNL     1      -2.622   1.200  23.754  0.00  0.00    -0.056 NA
ATOM     11  O   UNL     1      -2.353   1.977  23.806  0.00  0.00    -0.336 OA
ATOM     12  C   UNL     1      -2.189   2.137  24.599  0.00  0.00    +0.251 A 
ATOM     13  N   UNL     1      -2.358   1.458  25.035  0.00  0.00    -0.190 NA
ENDROOT
BRANCH   9   6
ATOM      3  C   UNL     1      -3.317  -1.419  25.119  0.00  0.00    +0.225 A 
ATOM      4  N   UNL     1      -2.525  -1.198  25.180  0.00  0.00    -0.210 NA
ATOM      5  C   UNL     1      -2.295  -0.432  24.978  0.00  0.00    +0.105 A 
ATOM      6  C   UNL     1      -2.856   0.113  24.715  0.00  0.00    +0.058 A 
ATOM      7  C   UNL     1      -3.649  -0.109  24.655  0.00  0.00    +0.010 A 
ATOM      8  C   UNL     1      -3.880  -0.875  24.857  0.00  0.00    +0.058 A 
BRANCH   3   2
ATOM      1  C   UNL     1      -3.511  -2.789  24.759  0.00  0.00    +0.254 C 
ATOM      2  O   UNL     1      -3.548  -2.185  25.321  0.00  0.00    -0.456 OA
ENDBRANCH   3   2
ENDBRANCH   9   6
BRANCH  12  14
ATOM     14  C   UNL     1      -1.907   2.851  24.901  0.00  0.00    +0.138 C 
ATOM     15  C   UNL     1      -1.115   3.046  25.025  0.00  0.00    +0.027 C 
ATOM     16  C   UNL     1      -1.087   3.812  25.332  0.00  0.00    +0.019 C 
ATOM     17  C   UNL     1      -1.861   4.089  25.398  0.00  0.00    +0.072 C 
ATOM     18  N   UNL     1      -2.368   3.496  25.131  0.00  0.00    -0.268 NA
BRANCH  18  19
ATOM     19  C   UNL     1      -3.191   3.538  25.100  0.00  0.00    +0.058 C 
ATOM     20  C   UNL     1      -3.638   3.359  25.771  0.00  0.00    +0.016 C 
ATOM     21  C   UNL     1      -4.462   3.400  25.740  0.00  0.00    +0.001 C 
ATOM     22  C   UNL     1      -4.838   3.622  25.040  0.00  0.00    +0.000 C 
ATOM     23  C   UNL     1      -4.391   3.801  24.370  0.00  0.00    +0.001 C 
ATOM     24  C   UNL     1      -3.567   3.759  24.401  0.00  0.00    +0.016 C 
ENDBRANCH  18  19
ENDBRANCH  12  14
TORSDOF 4
ENDMDL
MODEL 4
REMARK VINA RESULT:     -10.6      2.275      3.722
REMARK  Name = 
REMARK  4 active torsions:
REMARK  status: ('A' for Active; 'I' for Inactive)
REMARK    1  A    between atoms: O_2  and  C_3
REMARK    2  A    between atoms: C_6  and  C_9
REMARK    3  A    between atoms: C_12  and  C_14
REMARK    4  A    between atoms: N_18  and  C_19
REMARK                            x       y       z     vdW  Elec       q    Type
REMARK                         _______ _______ _______ _____ _____    ______ ____
ROOT
ATOM      9  C   UNL     1      -2.275   1.960  24.758  0.00  0.00    +0.205 A 
ATOM     10  N   UNL     1      -2.396   1.854  23.949  0.00  0.00    -0.056 NA
ATOM     11  O   UNL     1      -3.198   1.708  23.828  0.00  0.00    -0.336 OA
ATOM     12  C   UNL     1      -3.574   1.724  24.564  0.00  0.00    +0.251 A 
ATOM     13  N   UNL     1      -3.003   1.880  25.137  0.00  0.00    -0.190 NA
ENDROOT
BRANCH   9   6
ATOM      3  C   UNL     1      -0.108   2.435  25.855  0.00  0.00    +0.225 A 
ATOM      4  N   UNL     1      -0.238   1.702  25.501  0.00  0.00    -0.210 NA
ATOM      5  C   UNL     1      -0.961   1.544  25.135  0.00  0.00    +0.105 A 
ATOM      6  C   UNL     1      -1.553   2.118  25.124  0.00  0.00    +0.058 A 
ATOM      7  C   UNL     1      -1.421   2.852  25.478  0.00  0.00    +0.010 A 
ATOM      8  C   UNL     1      -0.699   3.011  25.844  0.00  0.00    +0.058 A 
BRANCH   3   2
ATOM      1  C   UNL     1       0.669   2.594  27.044  0.00  0.00    +0.254 C 
ATOM      2  O   UNL     1       0.615   2.594  26.221  0.00  0.00    -0.456 OA
ENDBRANCH   3   2
ENDBRANCH   9   6
BRANCH  12  14
ATOM     14  C   UNL     1      -4.379   1.606  24.698  0.00  0.00    +0.138 C 
ATOM     15  C   UNL     1      -4.954   2.194  24.751  0.00  0.00    +0.027 C 
ATOM     16  C   UNL     1      -5.681   1.828  24.889  0.00  0.00    +0.019 C 
ATOM     17  C   UNL     1      -5.554   1.014  24.923  0.00  0.00    +0.072 C 
ATOM     18  N   UNL     1      -4.750   0.876  24.805  0.00  0.00    -0.268 NA
BRANCH  18  19
ATOM     19  C   UNL     1      -4.380   0.139  24.794  0.00  0.00    +0.058 C 
ATOM     20  C   UNL     1      -4.099  -0.190  25.497  0.00  0.00    +0.016 C 
ATOM     21  C   UNL     1      -3.728  -0.928  25.488  0.00  0.00    +0.001 C 
ATOM     22  C   UNL     1      -3.639  -1.336  24.776  0.00  0.00    +0.000 C 
ATOM     23  C   UNL     1      -3.921  -1.007  24.074  0.00  0.00    +0.001 C 
ATOM     24  C   UNL     1      -4.291  -0.269  24.084  0.00  0.00    +0.016 C 
ENDBRANCH  18  19
ENDBRANCH  12  14
TORSDOF 4
ENDMDL
MODEL 5
REMARK VINA RESULT:     -10.4      2.143      3.021
REMARK  Name = 
REMARK  4 active torsions:
REMARK  status: ('A' for Active; 'I' for Inactive)
REMARK    1  A    between atoms: O_2  and  C_3
REMARK    2  A    between atoms: C_6  and  C_9
REMARK    3  A    between atoms: C_12  and  C_14
REMARK    4  A    between atoms: N_18  and  C_19
REMARK                            x       y       z     vdW  Elec       q    Type
REMARK                         _______ _______ _______ _____ _____    ______ ____
ROOT
ATOM      9  C   UNL     1      -1.564   1.632  24.533  0.00  0.00    +0.205 A 
ATOM     10  N   UNL     1      -1.597   1.369  23.752  0.00  0.00    -0.056 NA
ATOM     11  O   UNL     1      -1.509   0.550  23.754  0.00  0.00    -0.336 OA
ATOM     12  C   UNL     1      -1.421   0.305  24.538  0.00  0.00    +0.251 A 
ATOM     13  N   UNL     1      -1.455   0.974  25.018  0.00  0.00    -0.190 NA
ENDROOT
BRANCH   9   6
ATOM      3  C   UNL     1      -1.756   3.981  25.289  0.00  0.00    +0.225 A 
ATOM      4  N   UNL     1      -2.396   3.612  24.924  0.00  0.00    -0.210 NA
ATOM      5  C   UNL     1      -2.332   2.829  24.672  0.00  0.00    +0.105 A 
ATOM      6  C   UNL     1      -1.628   2.415  24.785  0.00  0.00    +0.058 A 
ATOM      7  C   UNL     1      -0.986   2.785  25.151  0.00  0.00    +0.010 A 
ATOM      8  C   UNL     1      -1.050   3.568  25.403  0.00  0.00    +0.058 A 
BRANCH   3   2
ATOM      1  C   UNL     1      -1.453   5.367  25.112  0.00  0.00    +0.254 C 
ATOM      2  O   UNL     1      -1.820   4.764  25.541  0.00  0.00    -0.456 OA
ENDBRANCH   3   2
ENDBRANCH   9   6
BRANCH  12  14
ATOM     14  C   UNL     1      -1.317  -0.472  24.793  0.00  0.00    +0.138 C 
ATOM     15  C   UNL     1      -0.596  -0.837  24.957  0.00  0.00    +0.027 C 
ATOM     16  C   UNL     1      -0.752  -1.612  25.195  0.00  0.00    +0.019 C 
ATOM     17  C   UNL     1      -1.568  -1.726  25.177  0.00  0.00    +0.072 C 
ATOM     18  N   UNL     1      -1.919  -1.022  24.929  0.00  0.00    -0.268 NA
BRANCH  18  19
ATOM     19  C   UNL     1      -2.727  -0.889  24.832  0.00  0.00    +0.058 C 
ATOM     20  C   UNL     1      -3.180  -0.628  25.472  0.00  0.00    +0.016 C 
ATOM     21  C   UNL     1      -3.989  -0.495  25.376  0.00  0.00    +0.001 C 
ATOM     22  C   UNL     1      -4.344  -0.622  24.642  0.00  0.00    +0.000 C 
ATOM     23  C   UNL     1      -3.891  -0.882  24.004  0.00  0.00    +0.001 C 
ATOM     24  C   UNL     1      -3.082  -1.016  24.100  0.00  0.00    +0.016 C 
ENDBRANCH  18  19
ENDBRANCH  12  14
TORSDOF 4
ENDMDL
