MODEL 1
REMARK VINA RESULT:     -10.7      0.000      0.000
REMARK  Name = 
REMARK  7 active torsions:
REMARK  status: ('A' for Active; 'I' for Inactive)
REMARK    1  A    between atoms: O_2  and  C_3
REMARK    2  A    between atoms: C_3  and  C_4
REMARK    3  A    between atoms: C_9  and  C_11
REMARK    4  A    between atoms: C_11  and  C_13
REMARK    5  A    between atoms: C_20  and  N_21
REMARK    6  A    between atoms: C_22  and  C_24
REMARK    7  A    between atoms: C_27  and  O_28
REMARK                            x       y       z     vdW  Elec       q    Type
REMARK                         _______ _______ _______ _____ _____    ______ ____
ROOT
ATOM     13  C   UNL     1      -3.213   1.247  24.613  0.00  0.00    +0.039 C 
ATOM     14  C   UNL     1      -3.305   0.597  25.113  0.00  0.00    +0.003 C 
ATOM     15  C   UNL     1      -2.673   0.082  25.240  0.00  0.00    +0.000 C 
ATOM     16  C   UNL     1      -1.950   0.217  24.868  0.00  0.00    +0.002 C 
ATOM     17  C   UNL     1      -2.041  -0.432  25.367  0.00  0.00    +0.000 C 
ATOM     18  C   UNL     1      -1.318  -0.297  24.994  0.00  0.00    +0.002 C 
ATOM     19  C   UNL     1      -0.595  -0.162  24.622  0.00  0.00    +0.022 C 
ATOM     20  C   UNL     1      -0.503   0.489  24.121  0.00  0.00    +0.096 C 
ATOM     32  C   UNL     1      -1.135   1.003  23.995  0.00  0.00    +0.022 C 
ATOM     33  C   UNL     1      -1.044   1.653  23.495  0.00  0.00    +0.002 C 
ATOM     34  C   UNL     1      -1.859   0.868  24.367  0.00  0.00    +0.032 C 
ATOM     35  C   UNL     1      -2.490   1.382  24.240  0.00  0.00    +0.152 C 
ATOM     36  O   UNL     1      -2.399   2.032  23.740  0.00  0.00    -0.223 OA
ENDROOT
BRANCH  20  21
ATOM     21  N   UNL     1       0.221   0.623  23.749  0.00  0.00    -0.203 NA
ATOM     22  C   UNL     1       0.674  -0.013  23.485  0.00  0.00    +0.265 C 
ATOM     23  O   UNL     1       0.404  -0.785  23.594  0.00  0.00    -0.268 OA
BRANCH  22  24
ATOM     24  C   UNL     1       1.398   0.122  23.113  0.00  0.00    +0.055 A 
ATOM     25  C   UNL     1       1.564  -0.239  22.391  0.00  0.00    +0.008 A 
ATOM     26  C   UNL     1       2.288  -0.105  22.018  0.00  0.00    +0.037 A 
ATOM     27  C   UNL     1       2.846   0.392  22.369  0.00  0.00    +0.139 A 
ATOM     30  C   UNL     1       2.679   0.754  23.092  0.00  0.00    +0.037 A 
ATOM     31  C   UNL     1       1.955   0.619  23.463  0.00  0.00    +0.008 A 
BRANCH  27  28
ATOM     28  O   UNL     1       3.570   0.528  21.997  0.00  0.00    -0.471 OA
ATOM     29  C   UNL     1       4.248   0.653  22.451  0.00  0.00    +0.252 C 
ENDBRANCH  27  28
ENDBRANCH  22  24
ENDBRANCH  20  21
BRANCH  13  11
ATOM     11  C   UNL     1      -3.846   1.762  24.486  0.00  0.00    +0.079 C 
ATOM     12  C   UNL     1      -3.703   2.543  24.263  0.00  0.00    +0.010 C 
BRANCH  11   9
ATOM      4  C   UNL     1      -4.995   2.644  25.418  0.00  0.00    +0.105 C 
ATOM      5  C   UNL     1      -5.685   2.888  25.800  0.00  0.00    +0.024 C 
ATOM      6  C   UNL     1      -6.272   2.326  25.650  0.00  0.00    +0.023 C 
ATOM      7  C   UNL     1      -5.944   1.737  25.175  0.00  0.00    +0.093 C 
ATOM      8  N   UNL     1      -5.156   1.933  25.032  0.00  0.00    -0.279 N 
ATOM      9  C   UNL     1      -4.621   1.496  24.582  0.00  0.00    +0.225 C 
ATOM     10  O   UNL     1      -4.862   0.790  24.226  0.00  0.00    -0.275 OA
BRANCH   4   3
ATOM      3  C   UNL     1      -4.273   3.042  25.422  0.00  0.00    +0.162 C 
BRANCH   3   2
ATOM      1  C   UNL     1      -3.542   4.017  26.168  0.00  0.00    +0.174 C 
ATOM      2  O   UNL     1      -4.219   3.796  25.751  0.00  0.00    -0.349 OA
ENDBRANCH   3   2
ENDBRANCH   4   3
ENDBRANCH  11   9
ENDBRANCH  13  11
TORSDOF 7
ENDMDL
MODEL 2
REMARK VINA RESULT:      -8.7      1.252      1.945
REMARK  Name = 
REMARK  7 active torsions:
REMARK  status: ('A' for Active; 'I' for Inactive)
REMARK    1  A    between atoms: O_2  and  C_3
REMARK    2  A    between atoms: C_3  and  C_4
REMARK    3  A    between atoms: C_9  and  C_11
REMARK    4  A    between atoms: C_11  and  C_13
REMARK    5  A    between atoms: C_20  and  N_21
REMARK    6  A    between atoms: C_22  and  C_24
REMARK    7  A    between atoms: C_27  and  O_28
REMARK                            x       y       z     vdW  Elec       q    Type
REMARK                         _______ _______ _______ _____ _____    ______ ____
ROOT
ATOM     13  C   UNL     1      -2.938   2.845  24.770  0.00  0.00    +0.039 C 
ATOM     14  C   UNL     1      -2.745   3.111  25.528  0.00  0.00    +0.003 C 
ATOM     15  C   UNL     1      -1.964   3.076  25.790  0.00  0.00    +0.000 C 
ATOM     16  C   UNL     1      -1.376   2.775  25.296  0.00  0.00    +0.002 C 
ATOM     17  C   UNL     1      -1.183   3.041  26.052  0.00  0.00    +0.000 C 
ATOM     18  C   UNL     1      -0.594   2.740  25.558  0.00  0.00    +0.002 C 
ATOM     19  C   UNL     1      -0.007   2.440  25.065  0.00  0.00    +0.022 C 
ATOM     20  C   UNL     1      -0.200   2.174  24.307  0.00  0.00    +0.096 C 
ATOM     32  C   UNL     1      -0.981   2.209  24.045  0.00  0.00    +0.022 C 
ATOM     33  C   UNL     1      -1.174   1.943  23.288  0.00  0.00    +0.002 C 
ATOM     34  C   UNL     1      -1.570   2.509  24.539  0.00  0.00    +0.032 C 
ATOM     35  C   UNL     1      -2.350   2.544  24.277  0.00  0.00    +0.152 C 
ATOM     36  O   UNL     1      -2.544   2.278  23.520  0.00  0.00    -0.223 OA
ENDROOT
BRANCH  20  21
ATOM     21  N   UNL     1       0.389   1.873  23.813  0.00  0.00    -0.203 NA
ATOM     22  C   UNL     1       0.758   1.159  23.998  0.00  0.00    +0.265 C 
ATOM     23  O   UNL     1       0.539   0.745  24.678  0.00  0.00    -0.268 OA
BRANCH  22  24
ATOM     24  C   UNL     1       1.347   0.859  23.504  0.00  0.00    +0.055 A 
ATOM     25  C   UNL     1       2.084   1.226  23.469  0.00  0.00    +0.008 A 
ATOM     26  C   UNL     1       2.673   0.926  22.975  0.00  0.00    +0.037 A 
ATOM     27  C   UNL     1       2.523   0.257  22.516  0.00  0.00    +0.139 A 
ATOM     30  C   UNL     1       1.785  -0.112  22.551  0.00  0.00    +0.037 A 
ATOM     31  C   UNL     1       1.197   0.190  23.045  0.00  0.00    +0.008 A 
BRANCH  27  28
ATOM     28  O   UNL     1       3.111  -0.045  22.022  0.00  0.00    -0.471 OA
ATOM     29  C   UNL     1       3.862   0.298  22.018  0.00  0.00    +0.252 C 
ENDBRANCH  27  28
ENDBRANCH  22  24
ENDBRANCH  20  21
BRANCH  13  11
ATOM     11  C   UNL     1      -3.720   2.880  24.508  0.00  0.00    +0.079 C 
ATOM     12  C   UNL     1      -3.974   2.380  23.903  0.00  0.00    +0.010 C 
BRANCH  11   9
ATOM      4  C   UNL     1      -5.207   2.360  25.205  0.00  0.00    +0.105 C 
ATOM      5  C   UNL     1      -5.942   2.341  25.581  0.00  0.00    +0.024 C 
ATOM      6  C   UNL     1      -6.142   3.115  25.787  0.00  0.00    +0.023 C 
ATOM      7  C   UNL     1      -5.532   3.611  25.538  0.00  0.00    +0.093 C 
ATOM      8  N   UNL     1      -4.954   3.144  25.179  0.00  0.00    -0.279 N 
ATOM      9  C   UNL     1      -4.247   3.414  24.851  0.00  0.00    +0.225 C 
ATOM     10  O   UNL     1      -4.067   4.220  24.865  0.00  0.00    -0.275 OA
BRANCH   4   3
ATOM      3  C   UNL     1      -4.798   1.708  24.908  0.00  0.00    +0.162 C 
BRANCH   3   2
ATOM      1  C   UNL     1      -4.722   0.287  25.033  0.00  0.00    +0.174 C 
ATOM      2  O   UNL     1      -5.163   0.968  24.885  0.00  0.00    -0.349 OA
ENDBRANCH   3   2
ENDBRANCH   4   3
ENDBRANCH  11   9
ENDBRANCH  13  11
TORSDOF 7
ENDMDL
MODEL 3
REMARK VINA RESULT:      -8.0      2.542      4.946
REMARK  Name = 
REMARK  7 active torsions:
REMARK  status: ('A' for Active; 'I' for Inactive)
REMARK    1  A    between atoms: O_2  and  C_3
REMARK    2  A    between atoms: C_3  and  C_4
REMARK    3  A    between atoms: C_9  and  C_11
REMARK    4  A    between atoms: C_11  and  C_13
REMARK    5  A    between atoms: C_20  and  N_21
REMARK    6  A    between atoms: C_22  and  C_24
REMARK    7  A    between atoms: C_27  and  O_28
REMARK                            x       y       z     vdW  Elec       q    Type
REMARK                         _______ _______ _______ _____ _____    ______ ____
ROOT
ATOM     13  C   UNL     1      -2.740   3.230  25.333  0.00  0.00    +0.039 C 
ATOM     14  C   UNL     1      -3.484   3.576  25.239  0.00  0.00    +0.003 C 
ATOM     15  C   UNL     1      -4.121   3.120  24.980  0.00  0.00    +0.000 C 
ATOM     16  C   UNL     1      -4.014   2.319  24.816  0.00  0.00    +0.002 C 
ATOM     17  C   UNL     1      -4.757   2.664  24.722  0.00  0.00    +0.000 C 
ATOM     18  C   UNL     1      -4.651   1.863  24.557  0.00  0.00    +0.002 C 
ATOM     19  C   UNL     1      -4.545   1.062  24.392  0.00  0.00    +0.022 C 
ATOM     20  C   UNL     1      -3.800   0.716  24.486  0.00  0.00    +0.096 C 
ATOM     32  C   UNL     1      -3.164   1.172  24.745  0.00  0.00    +0.022 C 
ATOM     33  C   UNL     1      -2.421   0.827  24.839  0.00  0.00    +0.002 C 
ATOM     34  C   UNL     1      -3.270   1.974  24.910  0.00  0.00    +0.032 C 
ATOM     35  C   UNL     1      -2.634   2.430  25.169  0.00  0.00    +0.152 C 
ATOM     36  O   UNL     1      -1.890   2.085  25.263  0.00  0.00    -0.223 OA
ENDROOT
BRANCH  20  21
ATOM     21  N   UNL     1      -3.694  -0.085  24.321  0.00  0.00    -0.203 NA
ATOM     22  C   UNL     1      -4.095  -0.654  24.763  0.00  0.00    +0.265 C 
ATOM     23  O   UNL     1      -4.603  -0.422  25.371  0.00  0.00    -0.268 OA
BRANCH  22  24
ATOM     24  C   UNL     1      -3.989  -1.456  24.598  0.00  0.00    +0.055 A 
ATOM     25  C   UNL     1      -3.562  -1.932  25.118  0.00  0.00    +0.008 A 
ATOM     26  C   UNL     1      -3.456  -2.733  24.953  0.00  0.00    +0.037 A 
ATOM     27  C   UNL     1      -3.778  -3.059  24.267  0.00  0.00    +0.139 A 
ATOM     30  C   UNL     1      -4.207  -2.582  23.746  0.00  0.00    +0.037 A 
ATOM     31  C   UNL     1      -4.312  -1.781  23.912  0.00  0.00    +0.008 A 
BRANCH  27  28
ATOM     28  O   UNL     1      -3.673  -3.860  24.101  0.00  0.00    -0.471 OA
ATOM     29  C   UNL     1      -3.084  -4.097  23.574  0.00  0.00    +0.252 C 
ENDBRANCH  27  28
ENDBRANCH  22  24
ENDBRANCH  20  21
BRANCH  13  11
ATOM     11  C   UNL     1      -2.103   3.687  25.592  0.00  0.00    +0.079 C 
ATOM     12  C   UNL     1      -1.394   3.323  25.803  0.00  0.00    +0.010 C 
BRANCH  11   9
ATOM      4  C   UNL     1      -0.992   4.739  24.801  0.00  0.00    +0.105 C 
ATOM      5  C   UNL     1      -0.597   5.407  24.520  0.00  0.00    +0.024 C 
ATOM      6  C   UNL     1      -0.995   6.074  24.799  0.00  0.00    +0.023 C 
ATOM      7  C   UNL     1      -1.635   5.819  25.252  0.00  0.00    +0.093 C 
ATOM      8  N   UNL     1      -1.632   4.993  25.254  0.00  0.00    -0.279 N 
ATOM      9  C   UNL     1      -2.175   4.508  25.640  0.00  0.00    +0.225 C 
ATOM     10  O   UNL     1      -2.792   4.843  26.075  0.00  0.00    -0.275 OA
BRANCH   4   3
ATOM      3  C   UNL     1      -0.781   3.955  24.656  0.00  0.00    +0.162 C 
BRANCH   3   2
ATOM      1  C   UNL     1       0.287   3.160  24.137  0.00  0.00    +0.174 C 
ATOM      2  O   UNL     1      -0.256   3.775  24.046  0.00  0.00    -0.349 OA
ENDBRANCH   3   2
ENDBRANCH   4   3
ENDBRANCH  11   9
ENDBRANCH  13  11
TORSDOF 7
ENDMDL
MODEL 4
REMARK VINA RESULT:      -7.2      2.977      4.896
REMARK  Name = 
REMARK  7 active torsions:
REMARK  status: ('A' for Active; 'I' for Inactive)
REMARK    1  A    between atoms: O_2  and  C_3
REMARK    2  A    between atoms: C_3  and  C_4
REMARK    3  A    between atoms: C_9  and  C_11
REMARK    4  A    between atoms: C_11  and  C_13
REMARK    5  A    between atoms: C_20  and  N_21
REMARK    6  A    between atoms: C_22  and  C_24
REMARK    7  A    between atoms: C_27  and  O_28
REMARK                            x       y       z     vdW  Elec       q    Type
REMARK                         _______ _______ _______ _____ _____    ______ ____
ROOT
ATOM     13  C   UNL     1      -3.789  -0.362  24.269  0.00  0.00    +0.039 C 
ATOM     14  C   UNL     1      -4.509  -0.318  24.672  0.00  0.00    +0.003 C 
ATOM     15  C   UNL     1      -4.764   0.402  24.982  0.00  0.00    +0.000 C 
ATOM     16  C   UNL     1      -4.300   1.078  24.891  0.00  0.00    +0.002 C 
ATOM     17  C   UNL     1      -5.018   1.122  25.292  0.00  0.00    +0.000 C 
ATOM     18  C   UNL     1      -4.555   1.799  25.201  0.00  0.00    +0.002 C 
ATOM     19  C   UNL     1      -4.092   2.474  25.110  0.00  0.00    +0.022 C 
ATOM     20  C   UNL     1      -3.372   2.430  24.707  0.00  0.00    +0.096 C 
ATOM     32  C   UNL     1      -3.117   1.710  24.397  0.00  0.00    +0.022 C 
ATOM     33  C   UNL     1      -2.398   1.666  23.995  0.00  0.00    +0.002 C 
ATOM     34  C   UNL     1      -3.580   1.033  24.488  0.00  0.00    +0.032 C 
ATOM     35  C   UNL     1      -3.326   0.313  24.178  0.00  0.00    +0.152 C 
ATOM     36  O   UNL     1      -2.607   0.269  23.776  0.00  0.00    -0.223 OA
ENDROOT
BRANCH  20  21
ATOM     21  N   UNL     1      -2.908   3.107  24.615  0.00  0.00    -0.203 NA
ATOM     22  C   UNL     1      -2.599   3.488  25.278  0.00  0.00    +0.265 C 
ATOM     23  O   UNL     1      -2.752   3.192  26.034  0.00  0.00    -0.268 OA
BRANCH  22  24
ATOM     24  C   UNL     1      -2.135   4.164  25.186  0.00  0.00    +0.055 A 
ATOM     25  C   UNL     1      -2.478   4.911  25.250  0.00  0.00    +0.008 A 
ATOM     26  C   UNL     1      -2.015   5.588  25.158  0.00  0.00    +0.037 A 
ATOM     27  C   UNL     1      -1.207   5.516  25.003  0.00  0.00    +0.139 A 
ATOM     30  C   UNL     1      -0.864   4.768  24.940  0.00  0.00    +0.037 A 
ATOM     31  C   UNL     1      -1.328   4.093  25.031  0.00  0.00    +0.008 A 
BRANCH  27  28
ATOM     28  O   UNL     1      -0.743   6.192  24.912  0.00  0.00    -0.471 OA
ATOM     29  C   UNL     1      -0.025   6.147  24.506  0.00  0.00    +0.252 C 
ENDBRANCH  27  28
ENDBRANCH  22  24
ENDBRANCH  20  21
BRANCH  13  11
ATOM     11  C   UNL     1      -3.534  -1.083  23.959  0.00  0.00    +0.079 C 
ATOM     12  C   UNL     1      -2.747  -1.179  23.731  0.00  0.00    +0.010 C 
BRANCH  11   9
ATOM      4  C   UNL     1      -3.135  -2.681  24.466  0.00  0.00    +0.105 C 
ATOM      5  C   UNL     1      -3.161  -3.489  24.629  0.00  0.00    +0.024 C 
ATOM      6  C   UNL     1      -3.897  -3.774  24.389  0.00  0.00    +0.023 C 
ATOM      7  C   UNL     1      -4.326  -3.142  24.078  0.00  0.00    +0.093 C 
ATOM      8  N   UNL     1      -3.854  -2.466  24.126  0.00  0.00    -0.279 N 
ATOM      9  C   UNL     1      -4.066  -1.709  23.877  0.00  0.00    +0.225 C 
ATOM     10  O   UNL     1      -4.810  -1.577  23.544  0.00  0.00    -0.275 OA
BRANCH   4   3
ATOM      3  C   UNL     1      -2.500  -2.176  24.617  0.00  0.00    +0.162 C 
BRANCH   3   2
ATOM      1  C   UNL     1      -1.236  -2.015  25.263  0.00  0.00    +0.174 C 
ATOM      2  O   UNL     1      -1.773  -2.487  24.851  0.00  0.00    -0.349 OA
ENDBRANCH   3   2
ENDBRANCH   4   3
ENDBRANCH  11   9
ENDBRANCH  13  11
TORSDOF 7
ENDMDL
