MODEL 1
REMARK VINA RESULT:      -8.1      0.000      0.000
REMARK  Name = 
REMARK  6 active torsions:
REMARK  status: ('A' for Active; 'I' for Inactive)
REMARK    1  A    between atoms: C_2  and  N_4
REMARK    2  A    between atoms: N_7  and  C_8
REMARK    3  A    between atoms: C_8  and  C_9
REMARK    4  A    between atoms: C_13  and  C_14
REMARK    5  A    between atoms: C_14  and  C_15
REMARK    6  A    between atoms: C_27  and  C_28
REMARK                            x       y       z     vdW  Elec       q    Type
REMARK                         _______ _______ _______ _____ _____    ______ ____
ROOT
ATOM      9  C   UNL     1       0.254   1.022  23.910  0.00  0.00    +0.043 C 
ATOM     10  C   UNL     1       0.242   1.848  23.904  0.00  0.00    -0.033 C 
ATOM     11  C   UNL     1      -0.449   2.251  24.106  0.00  0.00    -0.048 C 
ATOM     12  C   UNL     1      -0.462   3.076  24.100  0.00  0.00    +0.026 C 
ATOM     13  C   UNL     1      -1.126   1.830  24.314  0.00  0.00    +0.027 C 
ATOM     26  C   UNL     1      -1.115   1.005  24.320  0.00  0.00    +0.005 C 
ATOM     27  C   UNL     1      -0.423   0.601  24.118  0.00  0.00    +0.006 C 
ENDROOT
BRANCH  27  28
ATOM     28  C   UNL     1      -0.412  -0.223  24.124  0.00  0.00    +0.000 C 
ATOM     29  C   UNL     1      -0.341  -0.629  24.840  0.00  0.00    +0.000 C 
ATOM     30  C   UNL     1      -0.470  -0.643  23.416  0.00  0.00    +0.000 C 
ENDBRANCH  27  28
BRANCH   9   8
ATOM      8  C   UNL     1       0.945   0.619  23.708  0.00  0.00    +0.121 C 
BRANCH   8   7
ATOM      4  N   UNL     1       2.994   1.095  23.126  0.00  0.00    -0.189 NA
ATOM      5  C   UNL     1       2.289   0.679  23.226  0.00  0.00    +0.339 C 
ATOM      6  O   UNL     1       2.222  -0.094  22.945  0.00  0.00    -0.249 OA
ATOM      7  N   UNL     1       1.650   1.036  23.607  0.00  0.00    -0.187 NA
BRANCH   4   2
ATOM      1  C   UNL     1       4.313   0.545  23.171  0.00  0.00    +0.023 C 
ATOM      2  C   UNL     1       3.633   0.738  22.744  0.00  0.00    +0.097 C 
ATOM      3  C   UNL     1       3.592   0.573  21.937  0.00  0.00    +0.023 C 
ENDBRANCH   4   2
ENDBRANCH   8   7
ENDBRANCH   9   8
BRANCH  13  14
ATOM     14  C   UNL     1      -1.818   2.234  24.516  0.00  0.00    +0.089 C 
BRANCH  14  15
ATOM     15  C   UNL     1      -2.521   2.073  24.116  0.00  0.00    +0.226 C 
ATOM     16  O   UNL     1      -2.499   1.771  23.349  0.00  0.00    -0.275 OA
ATOM     17  N   UNL     1      -3.246   2.215  24.483  0.00  0.00    -0.276 N 
ATOM     18  C   UNL     1      -3.949   2.054  24.083  0.00  0.00    +0.115 C 
ATOM     19  C   UNL     1      -4.674   2.196  24.450  0.00  0.00    +0.115 C 
ATOM     20  N   UNL     1      -4.695   2.498  25.218  0.00  0.00    -0.276 N 
ATOM     21  C   UNL     1      -3.992   2.659  25.617  0.00  0.00    +0.115 C 
ATOM     22  C   UNL     1      -3.268   2.517  25.251  0.00  0.00    +0.115 C 
ATOM     23  C   UNL     1      -5.421   2.640  25.584  0.00  0.00    +0.226 C 
ATOM     24  C   UNL     1      -6.125   2.480  25.185  0.00  0.00    +0.095 C 
ATOM     25  O   UNL     1      -5.443   2.942  26.352  0.00  0.00    -0.275 OA
ENDBRANCH  14  15
ENDBRANCH  13  14
TORSDOF 6
ENDMDL
MODEL 2
REMARK VINA RESULT:      -8.1      1.296      6.230
REMARK  Name = 
REMARK  6 active torsions:
REMARK  status: ('A' for Active; 'I' for Inactive)
REMARK    1  A    between atoms: C_2  and  N_4
REMARK    2  A    between atoms: N_7  and  C_8
REMARK    3  A    between atoms: C_8  and  C_9
REMARK    4  A    between atoms: C_13  and  C_14
REMARK    5  A    between atoms: C_14  and  C_15
REMARK    6  A    between atoms: C_27  and  C_28
REMARK                            x       y       z     vdW  Elec       q    Type
REMARK                         _______ _______ _______ _____ _____    ______ ____
ROOT
ATOM      9  C   UNL     1      -2.553   0.707  24.610  0.00  0.00    +0.043 C 
ATOM     10  C   UNL     1      -2.233   1.418  24.336  0.00  0.00    -0.033 C 
ATOM     11  C   UNL     1      -1.431   1.464  24.151  0.00  0.00    -0.048 C 
ATOM     12  C   UNL     1      -1.111   2.174  23.877  0.00  0.00    +0.026 C 
ATOM     13  C   UNL     1      -0.948   0.802  24.240  0.00  0.00    +0.027 C 
ATOM     26  C   UNL     1      -1.266   0.092  24.514  0.00  0.00    +0.005 C 
ATOM     27  C   UNL     1      -2.070   0.045  24.699  0.00  0.00    +0.006 C 
ENDROOT
BRANCH  27  28
ATOM     28  C   UNL     1      -2.389  -0.664  24.973  0.00  0.00    +0.000 C 
ATOM     29  C   UNL     1      -2.777  -1.171  24.449  0.00  0.00    +0.000 C 
ATOM     30  C   UNL     1      -2.319  -0.868  25.769  0.00  0.00    +0.000 C 
ENDBRANCH  27  28
BRANCH   9   8
ATOM      8  C   UNL     1      -3.355   0.661  24.794  0.00  0.00    +0.121 C 
BRANCH   8   7
ATOM      4  N   UNL     1      -5.095   1.977  24.713  0.00  0.00    -0.189 NA
ATOM      5  C   UNL     1      -4.582   1.377  24.953  0.00  0.00    +0.339 C 
ATOM      6  O   UNL     1      -4.783   0.892  25.589  0.00  0.00    -0.249 OA
ATOM      7  N   UNL     1      -3.869   1.262  24.555  0.00  0.00    -0.187 NA
BRANCH   4   2
ATOM      1  C   UNL     1      -5.842   2.606  25.756  0.00  0.00    +0.023 C 
ATOM      2  C   UNL     1      -5.809   2.092  25.111  0.00  0.00    +0.097 C 
ATOM      3  C   UNL     1      -6.488   1.694  24.864  0.00  0.00    +0.023 C 
ENDBRANCH   4   2
ENDBRANCH   8   7
ENDBRANCH   9   8
BRANCH  13  14
ATOM     14  C   UNL     1      -0.144   0.849  24.056  0.00  0.00    +0.089 C 
BRANCH  14  15
ATOM     15  C   UNL     1       0.175   0.354  23.478  0.00  0.00    +0.226 C 
ATOM     16  O   UNL     1      -0.299  -0.210  23.111  0.00  0.00    -0.275 OA
ATOM     17  N   UNL     1       0.971   0.425  23.269  0.00  0.00    -0.276 N 
ATOM     18  C   UNL     1       1.290  -0.070  22.692  0.00  0.00    +0.115 C 
ATOM     19  C   UNL     1       2.085   0.001  22.483  0.00  0.00    +0.115 C 
ATOM     20  N   UNL     1       2.560   0.566  22.851  0.00  0.00    -0.276 N 
ATOM     21  C   UNL     1       2.240   1.060  23.428  0.00  0.00    +0.115 C 
ATOM     22  C   UNL     1       1.445   0.990  23.637  0.00  0.00    +0.115 C 
ATOM     23  C   UNL     1       3.355   0.636  22.642  0.00  0.00    +0.226 C 
ATOM     24  C   UNL     1       3.675   0.141  22.064  0.00  0.00    +0.095 C 
ATOM     25  O   UNL     1       3.830   1.201  23.010  0.00  0.00    -0.275 OA
ENDBRANCH  14  15
ENDBRANCH  13  14
TORSDOF 6
ENDMDL
