MODEL 1
REMARK VINA RESULT:     -11.6      0.000      0.000
REMARK  Name = 
REMARK  7 active torsions:
REMARK  status: ('A' for Active; 'I' for Inactive)
REMARK    1  A    between atoms: O_2  and  C_3
REMARK    2  A    between atoms: C_8  and  N_9
REMARK    3  A    between atoms: C_15  and  C_17
REMARK    4  A    between atoms: C_17  and  C_18
REMARK    5  A    between atoms: C_20  and  C_21
REMARK    6  A    between atoms: C_21  and  N_22
REMARK    7  A    between atoms: C_23  and  C_25
REMARK                            x       y       z     vdW  Elec       q    Type
REMARK                         _______ _______ _______ _____ _____    ______ ____
ROOT
ATOM     17  C   UNL     1      -5.008   1.349  25.154  0.00  0.00    +0.117 C 
ENDROOT
BRANCH  17  15
ATOM      9  N   UNL     1      -3.473  -1.118  24.511  0.00  0.00    -0.302 N 
ATOM     10  C   UNL     1      -3.860  -0.844  25.187  0.00  0.00    +0.112 C 
ATOM     11  C   UNL     1      -4.243  -0.113  25.176  0.00  0.00    +0.115 C 
ATOM     12  N   UNL     1      -4.238   0.344  24.490  0.00  0.00    -0.276 N 
ATOM     13  C   UNL     1      -3.852   0.072  23.814  0.00  0.00    +0.115 C 
ATOM     14  C   UNL     1      -3.469  -0.659  23.825  0.00  0.00    +0.112 C 
ATOM     15  C   UNL     1      -4.621   1.075  24.479  0.00  0.00    +0.228 C 
ATOM     16  O   UNL     1      -4.617   1.533  23.792  0.00  0.00    -0.275 OA
BRANCH   9   8
ATOM      3  C   UNL     1      -2.279  -1.887  24.667  0.00  0.00    +0.152 A 
ATOM      4  C   UNL     1      -1.897  -2.617  24.678  0.00  0.00    +0.038 A 
ATOM      5  C   UNL     1      -2.326  -3.310  24.544  0.00  0.00    +0.003 A 
ATOM      6  C   UNL     1      -3.137  -3.271  24.400  0.00  0.00    +0.001 A 
ATOM      7  C   UNL     1      -3.519  -2.540  24.389  0.00  0.00    +0.018 A 
ATOM      8  C   UNL     1      -3.091  -1.848  24.522  0.00  0.00    +0.082 A 
BRANCH   3   2
ATOM      1  C   UNL     1      -1.044  -1.235  24.969  0.00  0.00    +0.253 C 
ATOM      2  O   UNL     1      -1.850  -1.195  24.800  0.00  0.00    -0.470 OA
ENDBRANCH   3   2
ENDBRANCH   9   8
ENDBRANCH  17  15
BRANCH  17  18
ATOM     18  C   UNL     1      -4.966   2.147  25.359  0.00  0.00    +0.157 C 
ATOM     19  O   UNL     1      -4.275   2.590  25.445  0.00  0.00    -0.351 OA
ATOM     20  C   UNL     1      -4.490   3.358  25.653  0.00  0.00    +0.170 C 
ATOM     31  C   UNL     1      -5.314   3.390  25.695  0.00  0.00    +0.213 C 
ATOM     32  O   UNL     1      -5.764   4.055  25.886  0.00  0.00    -0.218 OA
ATOM     33  C   UNL     1      -5.608   2.642  25.514  0.00  0.00    +0.212 C 
ATOM     34  O   UNL     1      -6.404   2.425  25.491  0.00  0.00    -0.218 OA
BRANCH  20  21
ATOM     21  C   UNL     1      -3.973   3.986  25.794  0.00  0.00    +0.148 C 
BRANCH  21  22
ATOM     22  N   UNL     1      -3.213   3.973  25.474  0.00  0.00    -0.199 NA
ATOM     23  C   UNL     1      -2.632   4.480  25.769  0.00  0.00    +0.265 C 
ATOM     24  O   UNL     1      -2.812   4.999  26.384  0.00  0.00    -0.268 OA
BRANCH  23  25
ATOM     25  C   UNL     1      -1.873   4.467  25.449  0.00  0.00    +0.055 A 
ATOM     26  C   UNL     1      -1.563   5.146  25.096  0.00  0.00    +0.005 A 
ATOM     27  C   UNL     1      -0.804   5.135  24.775  0.00  0.00    +0.000 A 
ATOM     28  C   UNL     1      -0.352   4.444  24.807  0.00  0.00    +0.000 A 
ATOM     29  C   UNL     1      -0.663   3.765  25.159  0.00  0.00    +0.000 A 
ATOM     30  C   UNL     1      -1.422   3.778  25.480  0.00  0.00    +0.005 A 
ENDBRANCH  23  25
ENDBRANCH  21  22
ENDBRANCH  20  21
ENDBRANCH  17  18
TORSDOF 7
ENDMDL
MODEL 2
REMARK VINA RESULT:     -10.9      1.525      3.580
REMARK  Name = 
REMARK  7 active torsions:
REMARK  status: ('A' for Active; 'I' for Inactive)
REMARK    1  A    between atoms: O_2  and  C_3
REMARK    2  A    between atoms: C_8  and  N_9
REMARK    3  A    between atoms: C_15  and  C_17
REMARK    4  A    between atoms: C_17  and  C_18
REMARK    5  A    between atoms: C_20  and  C_21
REMARK    6  A    between atoms: C_21  and  N_22
REMARK    7  A    between atoms: C_23  and  C_25
REMARK                            x       y       z     vdW  Elec       q    Type
REMARK                         _______ _______ _______ _____ _____    ______ ____
ROOT
ATOM     17  C   UNL     1      -0.679   2.406  24.992  0.00  0.00    +0.117 C 
ENDROOT
BRANCH  17  15
ATOM      9  N   UNL     1      -1.381  -0.484  24.980  0.00  0.00    -0.302 N 
ATOM     10  C   UNL     1      -1.402   0.112  24.411  0.00  0.00    +0.112 C 
ATOM     11  C   UNL     1      -1.161   0.877  24.605  0.00  0.00    +0.115 C 
ATOM     12  N   UNL     1      -0.899   1.045  25.368  0.00  0.00    -0.276 N 
ATOM     13  C   UNL     1      -0.877   0.449  25.938  0.00  0.00    +0.115 C 
ATOM     14  C   UNL     1      -1.118  -0.316  25.744  0.00  0.00    +0.112 C 
ATOM     15  C   UNL     1      -0.657   1.810  25.562  0.00  0.00    +0.228 C 
ATOM     16  O   UNL     1      -0.395   1.979  26.326  0.00  0.00    -0.275 OA
BRANCH   9   8
ATOM      3  C   UNL     1      -2.413  -1.466  24.874  0.00  0.00    +0.152 A 
ATOM      4  C   UNL     1      -2.654  -2.231  24.680  0.00  0.00    +0.038 A 
ATOM      5  C   UNL     1      -2.104  -2.779  24.398  0.00  0.00    +0.003 A 
ATOM      6  C   UNL     1      -1.314  -2.560  24.311  0.00  0.00    +0.001 A 
ATOM      7  C   UNL     1      -1.073  -1.796  24.505  0.00  0.00    +0.018 A 
ATOM      8  C   UNL     1      -1.622  -1.249  24.786  0.00  0.00    +0.082 A 
BRANCH   3   2
ATOM      1  C   UNL     1      -3.752  -1.140  25.253  0.00  0.00    +0.253 C 
ATOM      2  O   UNL     1      -2.963  -0.920  25.155  0.00  0.00    -0.470 OA
ENDBRANCH   3   2
ENDBRANCH   9   8
ENDBRANCH  17  15
BRANCH  17  18
ATOM     18  C   UNL     1      -1.201   3.040  25.077  0.00  0.00    +0.157 C 
ATOM     19  O   UNL     1      -2.017   2.984  25.187  0.00  0.00    -0.351 OA
ATOM     20  C   UNL     1      -2.319   3.749  25.244  0.00  0.00    +0.170 C 
ATOM     31  C   UNL     1      -1.690   4.278  25.169  0.00  0.00    +0.213 C 
ATOM     32  O   UNL     1      -1.743   5.101  25.193  0.00  0.00    -0.218 OA
ATOM     33  C   UNL     1      -0.999   3.839  25.066  0.00  0.00    +0.212 C 
ATOM     34  O   UNL     1      -0.239   4.146  24.968  0.00  0.00    -0.218 OA
BRANCH  20  21
ATOM     21  C   UNL     1      -3.111   3.951  25.357  0.00  0.00    +0.148 C 
BRANCH  21  22
ATOM     22  N   UNL     1      -3.687   3.361  25.379  0.00  0.00    -0.199 NA
ATOM     23  C   UNL     1      -4.487   3.566  25.365  0.00  0.00    +0.265 C 
ATOM     24  O   UNL     1      -4.709   4.359  25.329  0.00  0.00    -0.268 OA
BRANCH  23  25
ATOM     25  C   UNL     1      -5.063   2.976  25.387  0.00  0.00    +0.055 A 
ATOM     26  C   UNL     1      -5.527   2.878  26.063  0.00  0.00    +0.005 A 
ATOM     27  C   UNL     1      -6.103   2.289  26.086  0.00  0.00    +0.000 A 
ATOM     28  C   UNL     1      -6.217   1.797  25.434  0.00  0.00    +0.000 A 
ATOM     29  C   UNL     1      -5.753   1.895  24.758  0.00  0.00    +0.000 A 
ATOM     30  C   UNL     1      -5.177   2.484  24.736  0.00  0.00    +0.005 A 
ENDBRANCH  23  25
ENDBRANCH  21  22
ENDBRANCH  20  21
ENDBRANCH  17  18
TORSDOF 7
ENDMDL
MODEL 3
REMARK VINA RESULT:     -10.4      1.805      5.885
REMARK  Name = 
REMARK  7 active torsions:
REMARK  status: ('A' for Active; 'I' for Inactive)
REMARK    1  A    between atoms: O_2  and  C_3
REMARK    2  A    between atoms: C_8  and  N_9
REMARK    3  A    between atoms: C_15  and  C_17
REMARK    4  A    between atoms: C_17  and  C_18
REMARK    5  A    between atoms: C_20  and  C_21
REMARK    6  A    between atoms: C_21  and  N_22
REMARK    7  A    between atoms: C_23  and  C_25
REMARK                            x       y       z     vdW  Elec       q    Type
REMARK                         _______ _______ _______ _____ _____    ______ ____
ROOT
ATOM     17  C   UNL     1      -0.982   1.996  24.023  0.00  0.00    +0.117 C 
ENDROOT
BRANCH  17  15
ATOM      9  N   UNL     1      -3.763   2.842  24.655  0.00  0.00    -0.302 N 
ATOM     10  C   UNL     1      -3.084   2.722  25.108  0.00  0.00    +0.112 C 
ATOM     11  C   UNL     1      -2.383   2.480  24.746  0.00  0.00    +0.115 C 
ATOM     12  N   UNL     1      -2.361   2.358  23.932  0.00  0.00    -0.276 N 
ATOM     13  C   UNL     1      -3.039   2.478  23.477  0.00  0.00    +0.115 C 
ATOM     14  C   UNL     1      -3.740   2.720  23.839  0.00  0.00    +0.112 C 
ATOM     15  C   UNL     1      -1.660   2.116  23.570  0.00  0.00    +0.228 C 
ATOM     16  O   UNL     1      -1.638   1.994  22.753  0.00  0.00    -0.275 OA
BRANCH   9   8
ATOM      3  C   UNL     1      -5.027   2.524  25.239  0.00  0.00    +0.152 A 
ATOM      4  C   UNL     1      -5.728   2.766  25.601  0.00  0.00    +0.038 A 
ATOM      5  C   UNL     1      -5.865   3.569  25.741  0.00  0.00    +0.003 A 
ATOM      6  C   UNL     1      -5.300   4.127  25.519  0.00  0.00    +0.001 A 
ATOM      7  C   UNL     1      -4.599   3.885  25.157  0.00  0.00    +0.018 A 
ATOM      8  C   UNL     1      -4.463   3.084  25.017  0.00  0.00    +0.082 A 
BRANCH   3   2
ATOM      1  C   UNL     1      -5.458   1.164  25.316  0.00  0.00    +0.253 C 
ATOM      2  O   UNL     1      -4.891   1.723  25.099  0.00  0.00    -0.470 OA
ENDBRANCH   3   2
ENDBRANCH   9   8
ENDBRANCH  17  15
BRANCH  17  18
ATOM     18  C   UNL     1      -0.628   1.251  24.048  0.00  0.00    +0.157 C 
ATOM     19  O   UNL     1      -1.007   0.540  24.226  0.00  0.00    -0.351 OA
ATOM     20  C   UNL     1      -0.447  -0.064  24.187  0.00  0.00    +0.170 C 
ATOM     31  C   UNL     1       0.278   0.274  23.985  0.00  0.00    +0.213 C 
ATOM     32  O   UNL     1       0.991  -0.131  23.886  0.00  0.00    -0.218 OA
ATOM     33  C   UNL     1       0.166   1.086  23.899  0.00  0.00    +0.212 C 
ATOM     34  O   UNL     1       0.747   1.637  23.699  0.00  0.00    -0.218 OA
BRANCH  20  21
ATOM     21  C   UNL     1      -0.587  -0.865  24.326  0.00  0.00    +0.148 C 
BRANCH  21  22
ATOM     22  N   UNL     1      -1.361  -1.148  24.360  0.00  0.00    -0.199 NA
ATOM     23  C   UNL     1      -1.515  -1.890  24.689  0.00  0.00    +0.265 C 
ATOM     24  O   UNL     1      -0.895  -2.347  24.982  0.00  0.00    -0.268 OA
BRANCH  23  25
ATOM     25  C   UNL     1      -2.288  -2.173  24.723  0.00  0.00    +0.055 A 
ATOM     26  C   UNL     1      -2.521  -2.797  24.236  0.00  0.00    +0.005 A 
ATOM     27  C   UNL     1      -3.294  -3.081  24.269  0.00  0.00    +0.000 A 
ATOM     28  C   UNL     1      -3.837  -2.741  24.790  0.00  0.00    +0.000 A 
ATOM     29  C   UNL     1      -3.604  -2.117  25.278  0.00  0.00    +0.000 A 
ATOM     30  C   UNL     1      -2.830  -1.833  25.243  0.00  0.00    +0.005 A 
ENDBRANCH  23  25
ENDBRANCH  21  22
ENDBRANCH  20  21
ENDBRANCH  17  18
TORSDOF 7
ENDMDL
