MODEL 1
REMARK VINA RESULT:     -14.7      0.000      0.000
REMARK  Name = 
REMARK  4 active torsions:
REMARK  status: ('A' for Active; 'I' for Inactive)
REMARK    1  A    between atoms: N_4  and  C_5
REMARK    2  A    between atoms: C_8  and  C_11
REMARK    3  A    between atoms: N_17  and  S_19
REMARK    4  A    between atoms: S_19  and  C_22
REMARK                            x       y       z     vdW  Elec       q    Type
REMARK                         _______ _______ _______ _____ _____    ______ ____
ROOT
ATOM     11  C   UNL     1      -3.384   1.114  24.786  0.00  0.00    +0.012 A 
ATOM     12  C   UNL     1      -3.975   1.675  24.907  0.00  0.00    +0.041 A 
ATOM     13  C   UNL     1      -4.890   1.749  24.959  0.00  0.00    +0.056 C 
ATOM     14  C   UNL     1      -5.476   1.365  24.919  0.00  0.00    +0.011 C 
ATOM     15  C   UNL     1      -5.274   2.144  25.043  0.00  0.00    +0.041 C 
ATOM     16  C   UNL     1      -5.233   3.118  25.208  0.00  0.00    +0.098 C 
ATOM     17  N   UNL     1      -4.405   3.228  25.191  0.00  0.00    -0.155 NA
ATOM     18  C   UNL     1      -4.867   2.690  25.119  0.00  0.00    +0.102 C 
ATOM     27  C   UNL     1      -4.318   2.077  24.991  0.00  0.00    +0.110 C 
ATOM     28  N   UNL     1      -3.774   2.466  25.034  0.00  0.00    -0.299 N 
ATOM     29  C   UNL     1      -2.982   2.694  25.039  0.00  0.00    +0.261 A 
ATOM     30  O   UNL     1      -2.781   3.485  25.165  0.00  0.00    -0.267 OA
ATOM     31  C   UNL     1      -2.390   2.133  24.917  0.00  0.00    +0.061 A 
ATOM     32  C   UNL     1      -2.591   1.342  24.791  0.00  0.00    +0.006 A 
ENDROOT
BRANCH  11   8
ATOM      5  C   UNL     1      -3.987  -1.257  24.407  0.00  0.00    +0.073 A 
ATOM      6  C   UNL     1      -3.913  -0.743  23.767  0.00  0.00    +0.017 A 
ATOM      7  C   UNL     1      -3.712   0.047  23.893  0.00  0.00    +0.001 A 
ATOM      8  C   UNL     1      -3.585   0.323  24.660  0.00  0.00    +0.001 A 
ATOM      9  C   UNL     1      -3.659  -0.191  25.300  0.00  0.00    +0.001 A 
ATOM     10  C   UNL     1      -3.860  -0.981  25.174  0.00  0.00    +0.017 A 
BRANCH   5   4
ATOM      1  C   UNL     1      -3.798  -3.411  24.115  0.00  0.00    +0.097 C 
ATOM      2  C   UNL     1      -3.597  -2.622  24.241  0.00  0.00    +0.246 C 
ATOM      3  O   UNL     1      -2.806  -2.406  24.328  0.00  0.00    -0.273 OA
ATOM      4  N   UNL     1      -4.188  -2.046  24.281  0.00  0.00    -0.179 NA
ENDBRANCH   5   4
ENDBRANCH  11   8
BRANCH  17  19
ATOM     19  S   UNL     1      -3.680   3.620  25.227  0.00  0.00    +0.069 S 
ATOM     20  O   UNL     1      -3.650   3.491  26.042  0.00  0.00    -0.152 OA
ATOM     21  O   UNL     1      -3.709   3.748  24.412  0.00  0.00    -0.152 OA
BRANCH  19  22
ATOM     22  C   UNL     1      -2.954   4.012  25.263  0.00  0.00    +0.152 A 
ATOM     23  C   UNL     1      -2.489   4.111  25.936  0.00  0.00    +0.027 A 
ATOM     24  C   UNL     1      -1.815   4.534  25.721  0.00  0.00    +0.009 A 
ATOM     25  C   UNL     1      -1.863   4.697  24.914  0.00  0.00    +0.037 A 
ATOM     26  S   UNL     1      -2.568   4.375  24.630  0.00  0.00    -0.067 S 
ENDBRANCH  19  22
ENDBRANCH  17  19
TORSDOF 4
ENDMDL
MODEL 2
REMARK VINA RESULT:     -14.0      1.842      4.690
REMARK  Name = 
REMARK  4 active torsions:
REMARK  status: ('A' for Active; 'I' for Inactive)
REMARK    1  A    between atoms: N_4  and  C_5
REMARK    2  A    between atoms: C_8  and  C_11
REMARK    3  A    between atoms: N_17  and  S_19
REMARK    4  A    between atoms: S_19  and  C_22
REMARK                            x       y       z     vdW  Elec       q    Type
REMARK                         _______ _______ _______ _____ _____    ______ ____
ROOT
ATOM     11  C   UNL     1      -2.219   1.098  24.769  0.00  0.00    +0.012 A 
ATOM     12  C   UNL     1      -3.043   1.052  24.791  0.00  0.00    +0.041 A 
ATOM     13  C   UNL     1      -3.787   1.591  24.822  0.00  0.00    +0.056 C 
ATOM     14  C   UNL     1      -3.977   2.266  24.840  0.00  0.00    +0.011 C 
ATOM     15  C   UNL     1      -4.342   1.538  24.836  0.00  0.00    +0.041 C 
ATOM     16  C   UNL     1      -4.958   0.765  24.838  0.00  0.00    +0.098 C 
ATOM     17  N   UNL     1      -4.401   0.143  24.811  0.00  0.00    -0.155 NA
ATOM     18  C   UNL     1      -4.395   0.855  24.824  0.00  0.00    +0.102 C 
ATOM     27  C   UNL     1      -3.570   0.967  24.804  0.00  0.00    +0.110 C 
ATOM     28  N   UNL     1      -3.415   0.316  24.787  0.00  0.00    -0.299 N 
ATOM     29  C   UNL     1      -2.965  -0.374  24.761  0.00  0.00    +0.261 A 
ATOM     30  O   UNL     1      -3.338  -1.110  24.757  0.00  0.00    -0.267 OA
ATOM     31  C   UNL     1      -2.142  -0.329  24.739  0.00  0.00    +0.061 A 
ATOM     32  C   UNL     1      -1.769   0.407  24.743  0.00  0.00    +0.006 A 
ENDROOT
BRANCH  11   8
ATOM      5  C   UNL     1      -1.101   3.306  24.781  0.00  0.00    +0.073 A 
ATOM      6  C   UNL     1      -1.252   2.916  25.492  0.00  0.00    +0.017 A 
ATOM      7  C   UNL     1      -1.624   2.180  25.488  0.00  0.00    +0.001 A 
ATOM      8  C   UNL     1      -1.847   1.834  24.773  0.00  0.00    +0.001 A 
ATOM      9  C   UNL     1      -1.696   2.224  24.062  0.00  0.00    +0.001 A 
ATOM     10  C   UNL     1      -1.323   2.960  24.066  0.00  0.00    +0.017 A 
BRANCH   5   4
ATOM      1  C   UNL     1      -0.793   5.460  24.941  0.00  0.00    +0.097 C 
ATOM      2  C   UNL     1      -1.166   4.725  24.937  0.00  0.00    +0.246 C 
ATOM      3  O   UNL     1      -1.975   4.672  25.085  0.00  0.00    -0.273 OA
ATOM      4  N   UNL     1      -0.729   4.042  24.785  0.00  0.00    -0.179 NA
ENDBRANCH   5   4
ENDBRANCH  11   8
BRANCH  17  19
ATOM     19  S   UNL     1      -4.111  -0.630  24.788  0.00  0.00    +0.069 S 
ATOM     20  O   UNL     1      -4.149  -0.619  23.963  0.00  0.00    -0.152 OA
ATOM     21  O   UNL     1      -4.073  -0.640  25.612  0.00  0.00    -0.152 OA
BRANCH  19  22
ATOM     22  C   UNL     1      -3.821  -1.402  24.765  0.00  0.00    +0.152 A 
ATOM     23  C   UNL     1      -3.534  -1.832  25.407  0.00  0.00    +0.027 A 
ATOM     24  C   UNL     1      -3.302  -2.574  25.135  0.00  0.00    +0.009 A 
ATOM     25  C   UNL     1      -3.446  -2.604  24.323  0.00  0.00    +0.037 A 
ATOM     26  S   UNL     1      -3.767  -1.880  24.094  0.00  0.00    -0.067 S 
ENDBRANCH  19  22
ENDBRANCH  17  19
TORSDOF 4
ENDMDL
MODEL 3
REMARK VINA RESULT:     -13.5      1.406      2.340
REMARK  Name = 
REMARK  4 active torsions:
REMARK  status: ('A' for Active; 'I' for Inactive)
REMARK    1  A    between atoms: N_4  and  C_5
REMARK    2  A    between atoms: C_8  and  C_11
REMARK    3  A    between atoms: N_17  and  S_19
REMARK    4  A    between atoms: S_19  and  C_22
REMARK                            x       y       z     vdW  Elec       q    Type
REMARK                         _______ _______ _______ _____ _____    ______ ____
ROOT
ATOM     11  C   UNL     1      -2.850   1.497  24.645  0.00  0.00    +0.012 A 
ATOM     12  C   UNL     1      -2.097   1.504  24.980  0.00  0.00    +0.041 A 
ATOM     13  C   UNL     1      -1.445   0.931  25.283  0.00  0.00    +0.056 C 
ATOM     14  C   UNL     1      -1.305   0.248  25.359  0.00  0.00    +0.011 C 
ATOM     15  C   UNL     1      -0.936   0.958  25.509  0.00  0.00    +0.041 C 
ATOM     16  C   UNL     1      -0.335   1.701  25.761  0.00  0.00    +0.098 C 
ATOM     17  N   UNL     1      -0.812   2.349  25.536  0.00  0.00    -0.155 NA
ATOM     18  C   UNL     1      -0.853   1.638  25.532  0.00  0.00    +0.102 C 
ATOM     27  C   UNL     1      -1.611   1.564  25.196  0.00  0.00    +0.110 C 
ATOM     28  N   UNL     1      -1.720   2.222  25.134  0.00  0.00    -0.299 N 
ATOM     29  C   UNL     1      -2.096   2.933  24.951  0.00  0.00    +0.261 A 
ATOM     30  O   UNL     1      -1.720   3.651  25.105  0.00  0.00    -0.267 OA
ATOM     31  C   UNL     1      -2.850   2.926  24.616  0.00  0.00    +0.061 A 
ATOM     32  C   UNL     1      -3.227   2.208  24.462  0.00  0.00    +0.006 A 
ENDROOT
BRANCH  11   8
ATOM      5  C   UNL     1      -3.980  -0.657  24.185  0.00  0.00    +0.073 A 
ATOM      6  C   UNL     1      -4.051  -0.304  24.927  0.00  0.00    +0.017 A 
ATOM      7  C   UNL     1      -3.675   0.414  25.080  0.00  0.00    +0.001 A 
ATOM      8  C   UNL     1      -3.227   0.779  24.492  0.00  0.00    +0.001 A 
ATOM      9  C   UNL     1      -3.155   0.426  23.749  0.00  0.00    +0.001 A 
ATOM     10  C   UNL     1      -3.532  -0.292  23.596  0.00  0.00    +0.017 A 
BRANCH   5   4
ATOM      1  C   UNL     1      -4.310  -2.798  23.927  0.00  0.00    +0.097 C 
ATOM      2  C   UNL     1      -3.933  -2.081  24.080  0.00  0.00    +0.246 C 
ATOM      3  O   UNL     1      -3.134  -2.069  24.281  0.00  0.00    -0.273 OA
ATOM      4  N   UNL     1      -4.356  -1.374  24.032  0.00  0.00    -0.179 NA
ENDBRANCH   5   4
ENDBRANCH  11   8
BRANCH  17  19
ATOM     19  S   UNL     1      -1.038   3.134  25.419  0.00  0.00    +0.069 S 
ATOM     20  O   UNL     1      -0.704   3.118  24.664  0.00  0.00    -0.152 OA
ATOM     21  O   UNL     1      -1.372   3.150  26.173  0.00  0.00    -0.152 OA
BRANCH  19  22
ATOM     22  C   UNL     1      -1.265   3.919  25.302  0.00  0.00    +0.152 A 
ATOM     23  C   UNL     1      -1.830   4.331  25.738  0.00  0.00    +0.027 A 
ATOM     24  C   UNL     1      -1.880   5.096  25.435  0.00  0.00    +0.009 A 
ATOM     25  C   UNL     1      -1.345   5.157  24.809  0.00  0.00    +0.037 A 
ATOM     26  S   UNL     1      -0.964   4.430  24.727  0.00  0.00    -0.067 S 
ENDBRANCH  19  22
ENDBRANCH  17  19
TORSDOF 4
ENDMDL
MODEL 4
REMARK VINA RESULT:     -12.7      2.101      5.143
REMARK  Name = 
REMARK  4 active torsions:
REMARK  status: ('A' for Active; 'I' for Inactive)
REMARK    1  A    between atoms: N_4  and  C_5
REMARK    2  A    between atoms: C_8  and  C_11
REMARK    3  A    between atoms: N_17  and  S_19
REMARK    4  A    between atoms: S_19  and  C_22
REMARK                            x       y       z     vdW  Elec       q    Type
REMARK                         _______ _______ _______ _____ _____    ______ ____
ROOT
ATOM     11  C   UNL     1      -2.698   0.980  24.677  0.00  0.00    +0.012 A 
ATOM     12  C   UNL     1      -2.124   0.482  24.998  0.00  0.00    +0.041 A 
ATOM     13  C   UNL     1      -1.306   0.512  25.416  0.00  0.00    +0.056 C 
ATOM     14  C   UNL     1      -0.819   0.965  25.640  0.00  0.00    +0.011 C 
ATOM     15  C   UNL     1      -0.931   0.158  25.627  0.00  0.00    +0.041 C 
ATOM     16  C   UNL     1      -0.884  -0.826  25.706  0.00  0.00    +0.098 C 
ATOM     17  N   UNL     1      -1.610  -1.030  25.346  0.00  0.00    -0.155 NA
ATOM     18  C   UNL     1      -1.246  -0.437  25.499  0.00  0.00    +0.102 C 
ATOM     27  C   UNL     1      -1.786   0.117  25.192  0.00  0.00    +0.110 C 
ATOM     28  N   UNL     1      -2.235  -0.335  24.987  0.00  0.00    -0.299 N 
ATOM     29  C   UNL     1      -2.919  -0.655  24.655  0.00  0.00    +0.261 A 
ATOM     30  O   UNL     1      -3.030  -1.473  24.644  0.00  0.00    -0.267 OA
ATOM     31  C   UNL     1      -3.492  -0.157  24.333  0.00  0.00    +0.061 A 
ATOM     32  C   UNL     1      -3.382   0.661  24.344  0.00  0.00    +0.006 A 
ENDROOT
BRANCH  11   8
ATOM      5  C   UNL     1      -2.366   3.433  24.710  0.00  0.00    +0.073 A 
ATOM      6  C   UNL     1      -2.070   2.985  24.084  0.00  0.00    +0.017 A 
ATOM      7  C   UNL     1      -2.181   2.168  24.073  0.00  0.00    +0.001 A 
ATOM      8  C   UNL     1      -2.587   1.798  24.688  0.00  0.00    +0.001 A 
ATOM      9  C   UNL     1      -2.884   2.246  25.314  0.00  0.00    +0.001 A 
ATOM     10  C   UNL     1      -2.773   3.063  25.325  0.00  0.00    +0.017 A 
BRANCH   5   4
ATOM      1  C   UNL     1      -1.475   5.388  25.089  0.00  0.00    +0.097 C 
ATOM      2  C   UNL     1      -1.585   4.572  25.079  0.00  0.00    +0.246 C 
ATOM      3  O   UNL     1      -1.026   4.075  25.425  0.00  0.00    -0.273 OA
ATOM      4  N   UNL     1      -2.256   4.250  24.721  0.00  0.00    -0.179 NA
ENDBRANCH   5   4
ENDBRANCH  11   8
BRANCH  17  19
ATOM     19  S   UNL     1      -2.220  -1.507  25.060  0.00  0.00    +0.069 S 
ATOM     20  O   UNL     1      -2.610  -1.442  25.785  0.00  0.00    -0.152 OA
ATOM     21  O   UNL     1      -1.830  -1.572  24.336  0.00  0.00    -0.152 OA
BRANCH  19  22
ATOM     22  C   UNL     1      -2.830  -1.984  24.775  0.00  0.00    +0.152 A 
ATOM     23  C   UNL     1      -3.530  -2.165  25.171  0.00  0.00    +0.027 A 
ATOM     24  C   UNL     1      -3.979  -2.656  24.684  0.00  0.00    +0.009 A 
ATOM     25  C   UNL     1      -3.557  -2.778  23.986  0.00  0.00    +0.037 A 
ATOM     26  S   UNL     1      -2.846  -2.363  24.042  0.00  0.00    -0.067 S 
ENDBRANCH  19  22
ENDBRANCH  17  19
TORSDOF 4
ENDMDL
MODEL 5
REMARK VINA RESULT:     -12.4      1.068      1.896
REMARK  Name = 
REMARK  4 active torsions:
REMARK  status: ('A' for Active; 'I' for Inactive)
REMARK    1  A    between atoms: N_4  and  C_5
REMARK    2  A    between atoms: C_8  and  C_11
REMARK    3  A    between atoms: N_17  and  S_19
REMARK    4  A    between atoms: S_19  and  C_22
REMARK                            x       y       z     vdW  Elec       q    Type
REMARK                         _______ _______ _______ _____ _____    ______ ____
ROOT
ATOM     11  C   UNL     1      -4.100   0.549  24.850  0.00  0.00    +0.012 A 
ATOM     12  C   UNL     1      -3.503   1.071  24.624  0.00  0.00    +0.041 A 
ATOM     13  C   UNL     1      -2.659   1.076  24.261  0.00  0.00    +0.056 C 
ATOM     14  C   UNL     1      -2.161   0.644  24.021  0.00  0.00    +0.011 C 
ATOM     15  C   UNL     1      -2.268   1.446  24.115  0.00  0.00    +0.041 C 
ATOM     16  C   UNL     1      -2.210   2.431  24.148  0.00  0.00    +0.098 C 
ATOM     17  N   UNL     1      -2.957   2.605  24.479  0.00  0.00    -0.155 NA
ATOM     18  C   UNL     1      -2.587   2.028  24.286  0.00  0.00    +0.102 C 
ATOM     27  C   UNL     1      -3.150   1.451  24.494  0.00  0.00    +0.110 C 
ATOM     28  N   UNL     1      -3.609   1.884  24.717  0.00  0.00    -0.299 N 
ATOM     29  C   UNL     1      -4.312   2.175  25.037  0.00  0.00    +0.261 A 
ATOM     30  O   UNL     1      -4.418   2.988  25.130  0.00  0.00    -0.267 OA
ATOM     31  C   UNL     1      -4.909   1.652  25.263  0.00  0.00    +0.061 A 
ATOM     32  C   UNL     1      -4.803   0.839  25.169  0.00  0.00    +0.006 A 
ENDROOT
BRANCH  11   8
ATOM      5  C   UNL     1      -3.783  -1.890  24.570  0.00  0.00    +0.073 A 
ATOM      6  C   UNL     1      -4.094  -1.441  23.952  0.00  0.00    +0.017 A 
ATOM      7  C   UNL     1      -4.200  -0.628  24.045  0.00  0.00    +0.001 A 
ATOM      8  C   UNL     1      -3.995  -0.264  24.757  0.00  0.00    +0.001 A 
ATOM      9  C   UNL     1      -3.683  -0.713  25.374  0.00  0.00    +0.001 A 
ATOM     10  C   UNL     1      -3.578  -1.526  25.281  0.00  0.00    +0.017 A 
BRANCH   5   4
ATOM      1  C   UNL     1      -2.826  -3.816  24.199  0.00  0.00    +0.097 C 
ATOM      2  C   UNL     1      -2.931  -3.004  24.292  0.00  0.00    +0.246 C 
ATOM      3  O   UNL     1      -2.291  -2.491  24.202  0.00  0.00    -0.273 OA
ATOM      4  N   UNL     1      -3.678  -2.702  24.476  0.00  0.00    -0.179 NA
ENDBRANCH   5   4
ENDBRANCH  11   8
BRANCH  17  19
ATOM     19  S   UNL     1      -3.582   3.056  24.775  0.00  0.00    +0.069 S 
ATOM     20  O   UNL     1      -3.251   3.019  25.530  0.00  0.00    -0.152 OA
ATOM     21  O   UNL     1      -3.912   3.093  24.019  0.00  0.00    -0.152 OA
BRANCH  19  22
ATOM     22  C   UNL     1      -4.207   3.507  25.070  0.00  0.00    +0.152 A 
ATOM     23  C   UNL     1      -4.863   3.765  24.643  0.00  0.00    +0.027 A 
ATOM     24  C   UNL     1      -5.347   4.196  25.153  0.00  0.00    +0.009 A 
ATOM     25  C   UNL     1      -4.988   4.205  25.896  0.00  0.00    +0.037 A 
ATOM     26  S   UNL     1      -4.284   3.779  25.845  0.00  0.00    -0.067 S 
ENDBRANCH  19  22
ENDBRANCH  17  19
TORSDOF 4
ENDMDL
MODEL 6
REMARK VINA RESULT:     -11.8      1.890      3.312
REMARK  Name = 
REMARK  4 active torsions:
REMARK  status: ('A' for Active; 'I' for Inactive)
REMARK    1  A    between atoms: N_4  and  C_5
REMARK    2  A    between atoms: C_8  and  C_11
REMARK    3  A    between atoms: N_17  and  S_19
REMARK    4  A    between atoms: S_19  and  C_22
REMARK                            x       y       z     vdW  Elec       q    Type
REMARK                         _______ _______ _______ _____ _____    ______ ____
ROOT
ATOM     11  C   UNL     1      -2.553   1.611  24.544  0.00  0.00    +0.012 A 
ATOM     12  C   UNL     1      -2.726   2.378  24.795  0.00  0.00    +0.041 A 
ATOM     13  C   UNL     1      -2.319   3.189  24.943  0.00  0.00    +0.056 C 
ATOM     14  C   UNL     1      -1.694   3.506  24.909  0.00  0.00    +0.011 C 
ATOM     15  C   UNL     1      -2.457   3.701  25.115  0.00  0.00    +0.041 C 
ATOM     16  C   UNL     1      -3.303   4.124  25.402  0.00  0.00    +0.098 C 
ATOM     17  N   UNL     1      -3.820   3.473  25.321  0.00  0.00    -0.155 NA
ATOM     18  C   UNL     1      -3.128   3.612  25.223  0.00  0.00    +0.102 C 
ATOM     27  C   UNL     1      -2.891   2.858  24.963  0.00  0.00    +0.110 C 
ATOM     28  N   UNL     1      -3.498   2.579  25.005  0.00  0.00    -0.299 N 
ATOM     29  C   UNL     1      -4.098   2.014  24.964  0.00  0.00    +0.261 A 
ATOM     30  O   UNL     1      -4.870   2.216  25.174  0.00  0.00    -0.267 OA
ATOM     31  C   UNL     1      -3.925   1.248  24.713  0.00  0.00    +0.061 A 
ATOM     32  C   UNL     1      -3.153   1.046  24.503  0.00  0.00    +0.006 A 
ENDROOT
BRANCH  11   8
ATOM      5  C   UNL     1      -0.237   1.007  23.914  0.00  0.00    +0.073 A 
ATOM      6  C   UNL     1      -0.495   0.898  24.689  0.00  0.00    +0.017 A 
ATOM      7  C   UNL     1      -1.267   1.099  24.899  0.00  0.00    +0.001 A 
ATOM      8  C   UNL     1      -1.781   1.410  24.334  0.00  0.00    +0.001 A 
ATOM      9  C   UNL     1      -1.523   1.519  23.558  0.00  0.00    +0.001 A 
ATOM     10  C   UNL     1      -0.751   1.318  23.348  0.00  0.00    +0.017 A 
BRANCH   5   4
ATOM      1  C   UNL     1       1.467  -0.142  23.182  0.00  0.00    +0.097 C 
ATOM      2  C   UNL     1       0.696   0.059  23.392  0.00  0.00    +0.246 C 
ATOM      3  O   UNL     1       0.085  -0.486  23.290  0.00  0.00    -0.273 OA
ATOM      4  N   UNL     1       0.534   0.806  23.704  0.00  0.00    -0.179 NA
ENDBRANCH   5   4
ENDBRANCH  11   8
BRANCH  17  19
ATOM     19  S   UNL     1      -4.524   3.042  25.339  0.00  0.00    +0.069 S 
ATOM     20  O   UNL     1      -4.669   3.248  24.553  0.00  0.00    -0.152 OA
ATOM     21  O   UNL     1      -4.378   2.837  26.125  0.00  0.00    -0.152 OA
BRANCH  19  22
ATOM     22  C   UNL     1      -5.228   2.612  25.357  0.00  0.00    +0.152 A 
ATOM     23  C   UNL     1      -5.695   2.418  24.705  0.00  0.00    +0.027 A 
ATOM     24  C   UNL     1      -6.343   1.986  24.975  0.00  0.00    +0.009 A 
ATOM     25  C   UNL     1      -6.277   1.912  25.794  0.00  0.00    +0.037 A 
ATOM     26  S   UNL     1      -5.587   2.299  26.030  0.00  0.00    -0.067 S 
ENDBRANCH  19  22
ENDBRANCH  17  19
TORSDOF 4
ENDMDL
