MODEL 1
REMARK VINA RESULT:     -10.8      0.000      0.000
REMARK  Name = 
REMARK  4 active torsions:
REMARK  status: ('A' for Active; 'I' for Inactive)
REMARK    1  A    between atoms: C_1  and  N_2
REMARK    2  A    between atoms: C_1  and  C_16
REMARK    3  A    between atoms: C_7  and  O_9
REMARK    4  A    between atoms: O_9  and  C_10
REMARK                            x       y       z     vdW  Elec       q    Type
REMARK                         _______ _______ _______ _____ _____    ______ ____
ROOT
ATOM      2  N   UNL     1      -3.460   1.376  24.458  0.00  0.00    -0.262 NA
ATOM      3  C   UNL     1      -2.677   1.633  24.427  0.00  0.00    +0.105 C 
ATOM      4  C   UNL     1      -1.998   1.245  24.692  0.00  0.00    +0.160 C 
ATOM      5  O   UNL     1      -1.935   0.507  25.053  0.00  0.00    -0.348 OA
ATOM      6  C   UNL     1      -2.535  -0.028  25.239  0.00  0.00    +0.187 C 
ATOM      7  C   UNL     1      -3.346   0.044  25.109  0.00  0.00    +0.211 C 
ATOM      8  C   UNL     1      -3.759   0.669  24.761  0.00  0.00    +0.119 C 
ENDROOT
BRANCH   2   1
ATOM      1  C   UNL     1      -4.019   1.894  24.144  0.00  0.00    +0.119 C 
BRANCH   1  16
ATOM     16  C   UNL     1      -4.446   2.393  24.643  0.00  0.00    +0.075 A 
ATOM     17  N   UNL     1      -4.096   3.078  24.940  0.00  0.00    -0.247 NA
ATOM     18  C   UNL     1      -4.523   3.577  25.440  0.00  0.00    +0.098 A 
ATOM     19  C   UNL     1      -5.301   3.390  25.642  0.00  0.00    +0.021 A 
ATOM     20  C   UNL     1      -5.651   2.705  25.345  0.00  0.00    +0.003 A 
ATOM     21  C   UNL     1      -5.224   2.206  24.846  0.00  0.00    +0.016 A 
ENDBRANCH   1  16
ENDBRANCH   2   1
BRANCH   7   9
ATOM      9  O   UNL     1      -3.807  -0.593  25.360  0.00  0.00    -0.475 OA
BRANCH   9  10
ATOM     10  C   UNL     1      -3.794  -1.303  24.939  0.00  0.00    +0.139 A 
ATOM     11  C   UNL     1      -4.225  -1.376  24.240  0.00  0.00    +0.037 A 
ATOM     12  C   UNL     1      -4.212  -2.086  23.819  0.00  0.00    +0.003 A 
ATOM     13  C   UNL     1      -3.766  -2.723  24.099  0.00  0.00    +0.000 A 
ATOM     14  C   UNL     1      -3.336  -2.649  24.798  0.00  0.00    +0.003 A 
ATOM     15  C   UNL     1      -3.349  -1.939  25.219  0.00  0.00    +0.037 A 
ENDBRANCH   9  10
ENDBRANCH   7   9
TORSDOF 4
ENDMDL
MODEL 2
REMARK VINA RESULT:     -10.4      1.041      4.160
REMARK  Name = 
REMARK  4 active torsions:
REMARK  status: ('A' for Active; 'I' for Inactive)
REMARK    1  A    between atoms: C_1  and  N_2
REMARK    2  A    between atoms: C_1  and  C_16
REMARK    3  A    between atoms: C_7  and  O_9
REMARK    4  A    between atoms: O_9  and  C_10
REMARK                            x       y       z     vdW  Elec       q    Type
REMARK                         _______ _______ _______ _____ _____    ______ ____
ROOT
ATOM      2  N   UNL     1      -3.358   0.021  25.082  0.00  0.00    -0.262 NA
ATOM      3  C   UNL     1      -2.537   0.006  25.169  0.00  0.00    +0.105 C 
ATOM      4  C   UNL     1      -1.986   0.574  24.937  0.00  0.00    +0.160 C 
ATOM      5  O   UNL     1      -2.117   1.296  24.559  0.00  0.00    -0.348 OA
ATOM      6  C   UNL     1      -2.834   1.628  24.321  0.00  0.00    +0.187 C 
ATOM      7  C   UNL     1      -3.595   1.321  24.401  0.00  0.00    +0.211 C 
ATOM      8  C   UNL     1      -3.829   0.605  24.740  0.00  0.00    +0.119 C 
ENDROOT
BRANCH   2   1
ATOM      1  C   UNL     1      -3.760  -0.637  25.374  0.00  0.00    +0.119 C 
BRANCH   1  16
ATOM     16  C   UNL     1      -3.770  -1.340  24.944  0.00  0.00    +0.075 A 
ATOM     17  N   UNL     1      -4.233  -1.402  24.264  0.00  0.00    -0.247 NA
ATOM     18  C   UNL     1      -4.243  -2.105  23.833  0.00  0.00    +0.098 A 
ATOM     19  C   UNL     1      -3.789  -2.747  24.083  0.00  0.00    +0.021 A 
ATOM     20  C   UNL     1      -3.326  -2.686  24.762  0.00  0.00    +0.003 A 
ATOM     21  C   UNL     1      -3.316  -1.982  25.193  0.00  0.00    +0.016 A 
ENDBRANCH   1  16
ENDBRANCH   2   1
BRANCH   7   9
ATOM      9  O   UNL     1      -4.204   1.792  24.103  0.00  0.00    -0.475 OA
BRANCH   9  10
ATOM     10  C   UNL     1      -4.568   2.352  24.588  0.00  0.00    +0.139 A 
ATOM     11  C   UNL     1      -5.279   2.170  24.965  0.00  0.00    +0.037 A 
ATOM     12  C   UNL     1      -5.643   2.730  25.450  0.00  0.00    +0.003 A 
ATOM     13  C   UNL     1      -5.295   3.471  25.558  0.00  0.00    +0.000 A 
ATOM     14  C   UNL     1      -4.584   3.651  25.180  0.00  0.00    +0.003 A 
ATOM     15  C   UNL     1      -4.221   3.092  24.696  0.00  0.00    +0.037 A 
ENDBRANCH   9  10
ENDBRANCH   7   9
TORSDOF 4
ENDMDL
MODEL 3
REMARK VINA RESULT:     -10.4      2.025      4.578
REMARK  Name = 
REMARK  4 active torsions:
REMARK  status: ('A' for Active; 'I' for Inactive)
REMARK    1  A    between atoms: C_1  and  N_2
REMARK    2  A    between atoms: C_1  and  C_16
REMARK    3  A    between atoms: C_7  and  O_9
REMARK    4  A    between atoms: O_9  and  C_10
REMARK                            x       y       z     vdW  Elec       q    Type
REMARK                         _______ _______ _______ _____ _____    ______ ____
ROOT
ATOM      2  N   UNL     1      -3.428   1.822  24.391  0.00  0.00    -0.262 NA
ATOM      3  C   UNL     1      -4.199   2.013  24.168  0.00  0.00    +0.105 C 
ATOM      4  C   UNL     1      -4.654   2.663  24.396  0.00  0.00    +0.160 C 
ATOM      5  O   UNL     1      -4.451   3.282  24.902  0.00  0.00    -0.348 OA
ATOM      6  C   UNL     1      -3.742   3.403  25.307  0.00  0.00    +0.187 C 
ATOM      7  C   UNL     1      -3.062   2.936  25.304  0.00  0.00    +0.211 C 
ATOM      8  C   UNL     1      -2.922   2.232  24.897  0.00  0.00    +0.119 C 
ENDROOT
BRANCH   2   1
ATOM      1  C   UNL     1      -3.123   1.128  24.066  0.00  0.00    +0.119 C 
BRANCH   1  16
ATOM     16  C   UNL     1      -3.324   0.397  24.391  0.00  0.00    +0.075 A 
ATOM     17  N   UNL     1      -2.919   0.113  25.051  0.00  0.00    -0.247 NA
ATOM     18  C   UNL     1      -3.119  -0.618  25.376  0.00  0.00    +0.098 A 
ATOM     19  C   UNL     1      -3.726  -1.066  25.040  0.00  0.00    +0.021 A 
ATOM     20  C   UNL     1      -4.131  -0.782  24.380  0.00  0.00    +0.003 A 
ATOM     21  C   UNL     1      -3.930  -0.051  24.055  0.00  0.00    +0.016 A 
ENDBRANCH   1  16
ENDBRANCH   2   1
BRANCH   7   9
ATOM      9  O   UNL     1      -2.438   3.210  25.771  0.00  0.00    -0.475 OA
BRANCH   9  10
ATOM     10  C   UNL     1      -1.917   3.776  25.474  0.00  0.00    +0.139 A 
ATOM     11  C   UNL     1      -1.196   3.542  25.149  0.00  0.00    +0.037 A 
ATOM     12  C   UNL     1      -0.675   4.109  24.851  0.00  0.00    +0.003 A 
ATOM     13  C   UNL     1      -0.876   4.909  24.879  0.00  0.00    +0.000 A 
ATOM     14  C   UNL     1      -1.597   5.142  25.203  0.00  0.00    +0.003 A 
ATOM     15  C   UNL     1      -2.118   4.575  25.501  0.00  0.00    +0.037 A 
ENDBRANCH   9  10
ENDBRANCH   7   9
TORSDOF 4
ENDMDL
MODEL 4
REMARK VINA RESULT:     -10.2      1.650      2.360
REMARK  Name = 
REMARK  4 active torsions:
REMARK  status: ('A' for Active; 'I' for Inactive)
REMARK    1  A    between atoms: C_1  and  N_2
REMARK    2  A    between atoms: C_1  and  C_16
REMARK    3  A    between atoms: C_7  and  O_9
REMARK    4  A    between atoms: O_9  and  C_10
REMARK                            x       y       z     vdW  Elec       q    Type
REMARK                         _______ _______ _______ _____ _____    ______ ____
ROOT
ATOM      2  N   UNL     1      -2.123   1.947  24.516  0.00  0.00    -0.262 NA
ATOM      3  C   UNL     1      -1.912   2.119  23.737  0.00  0.00    +0.105 C 
ATOM      4  C   UNL     1      -2.260   1.852  23.038  0.00  0.00    +0.160 C 
ATOM      5  O   UNL     1      -2.906   1.347  22.946  0.00  0.00    -0.348 OA
ATOM      6  C   UNL     1      -3.363   0.984  23.530  0.00  0.00    +0.187 C 
ATOM      7  C   UNL     1      -3.287   1.037  24.349  0.00  0.00    +0.211 C 
ATOM      8  C   UNL     1      -2.735   1.466  24.788  0.00  0.00    +0.119 C 
ENDROOT
BRANCH   2   1
ATOM      1  C   UNL     1      -1.662   2.304  25.099  0.00  0.00    +0.119 C 
BRANCH   1  16
ATOM     16  C   UNL     1      -1.711   3.118  25.224  0.00  0.00    +0.075 A 
ATOM     17  N   UNL     1      -2.367   3.437  25.608  0.00  0.00    -0.247 NA
ATOM     18  C   UNL     1      -2.416   4.251  25.733  0.00  0.00    +0.098 A 
ATOM     19  C   UNL     1      -1.809   4.745  25.473  0.00  0.00    +0.021 A 
ATOM     20  C   UNL     1      -1.153   4.426  25.089  0.00  0.00    +0.003 A 
ATOM     21  C   UNL     1      -1.104   3.612  24.963  0.00  0.00    +0.016 A 
ENDBRANCH   1  16
ENDBRANCH   2   1
BRANCH   7   9
ATOM      9  O   UNL     1      -3.835   0.604  24.788  0.00  0.00    -0.475 OA
BRANCH   9  10
ATOM     10  C   UNL     1      -3.774  -0.218  24.830  0.00  0.00    +0.139 A 
ATOM     11  C   UNL     1      -3.350  -0.568  25.445  0.00  0.00    +0.037 A 
ATOM     12  C   UNL     1      -3.288  -1.390  25.488  0.00  0.00    +0.003 A 
ATOM     13  C   UNL     1      -3.650  -1.861  24.914  0.00  0.00    +0.000 A 
ATOM     14  C   UNL     1      -4.073  -1.510  24.300  0.00  0.00    +0.003 A 
ATOM     15  C   UNL     1      -4.135  -0.688  24.258  0.00  0.00    +0.037 A 
ENDBRANCH   9  10
ENDBRANCH   7   9
TORSDOF 4
ENDMDL
MODEL 5
REMARK VINA RESULT:     -10.1      2.258      2.767
REMARK  Name = 
REMARK  4 active torsions:
REMARK  status: ('A' for Active; 'I' for Inactive)
REMARK    1  A    between atoms: C_1  and  N_2
REMARK    2  A    between atoms: C_1  and  C_16
REMARK    3  A    between atoms: C_7  and  O_9
REMARK    4  A    between atoms: O_9  and  C_10
REMARK                            x       y       z     vdW  Elec       q    Type
REMARK                         _______ _______ _______ _____ _____    ______ ____
ROOT
ATOM      2  N   UNL     1      -1.120   0.417  24.398  0.00  0.00    -0.262 NA
ATOM      3  C   UNL     1      -0.391   0.084  24.204  0.00  0.00    +0.105 C 
ATOM      4  C   UNL     1      -0.140  -0.696  24.302  0.00  0.00    +0.160 C 
ATOM      5  O   UNL     1      -0.555  -1.336  24.617  0.00  0.00    -0.348 OA
ATOM      6  C   UNL     1      -1.326  -1.352  24.913  0.00  0.00    +0.187 C 
ATOM      7  C   UNL     1      -1.869  -0.735  24.967  0.00  0.00    +0.211 C 
ATOM      8  C   UNL     1      -1.778   0.053  24.738  0.00  0.00    +0.119 C 
ENDROOT
BRANCH   2   1
ATOM      1  C   UNL     1      -1.202   1.220  24.231  0.00  0.00    +0.119 C 
BRANCH   1  16
ATOM     16  C   UNL     1      -1.001   1.783  24.799  0.00  0.00    +0.075 A 
ATOM     17  N   UNL     1      -0.209   1.911  24.991  0.00  0.00    -0.247 NA
ATOM     18  C   UNL     1      -0.007   2.474  25.559  0.00  0.00    +0.098 A 
ATOM     19  C   UNL     1      -0.598   2.908  25.936  0.00  0.00    +0.021 A 
ATOM     20  C   UNL     1      -1.390   2.781  25.745  0.00  0.00    +0.003 A 
ATOM     21  C   UNL     1      -1.592   2.218  25.176  0.00  0.00    +0.016 A 
ENDBRANCH   1  16
ENDBRANCH   2   1
BRANCH   7   9
ATOM      9  O   UNL     1      -2.602  -0.931  25.293  0.00  0.00    -0.475 OA
BRANCH   9  10
ATOM     10  C   UNL     1      -3.149  -1.362  24.850  0.00  0.00    +0.139 A 
ATOM     11  C   UNL     1      -3.154  -2.186  24.891  0.00  0.00    +0.037 A 
ATOM     12  C   UNL     1      -3.701  -2.617  24.448  0.00  0.00    +0.003 A 
ATOM     13  C   UNL     1      -4.242  -2.224  23.965  0.00  0.00    +0.000 A 
ATOM     14  C   UNL     1      -4.236  -1.400  23.925  0.00  0.00    +0.003 A 
ATOM     15  C   UNL     1      -3.689  -0.969  24.367  0.00  0.00    +0.037 A 
ENDBRANCH   9  10
ENDBRANCH   7   9
TORSDOF 4
ENDMDL
