MODEL 1
REMARK VINA RESULT:     -12.8      0.000      0.000
REMARK  Name = 
REMARK  4 active torsions:
REMARK  status: ('A' for Active; 'I' for Inactive)
REMARK    1  A    between atoms: C_2  and  C_4
REMARK    2  A    between atoms: C_7  and  C_8
REMARK    3  A    between atoms: C_8  and  N_9
REMARK    4  A    between atoms: C_12  and  C_14
REMARK                            x       y       z     vdW  Elec       q    Type
REMARK                         _______ _______ _______ _____ _____    ______ ____
ROOT
ATOM      9  N   UNL     1      -4.185   1.076  24.864  0.00  0.00    -0.269 NA
ATOM     10  C   UNL     1      -4.422   1.412  24.149  0.00  0.00    +0.073 C 
ATOM     11  C   UNL     1      -3.967   2.089  24.022  0.00  0.00    +0.026 C 
ATOM     12  C   UNL     1      -3.448   2.170  24.659  0.00  0.00    +0.076 C 
ATOM     13  C   UNL     1      -3.583   1.544  25.179  0.00  0.00    +0.080 C 
ENDROOT
BRANCH  12  14
ATOM     14  C   UNL     1      -2.892   2.772  24.758  0.00  0.00    +0.140 A 
ATOM     15  N   UNL     1      -3.055   3.554  24.960  0.00  0.00    -0.229 NA
ATOM     16  C   UNL     1      -2.340   3.962  24.999  0.00  0.00    +0.102 A 
ATOM     17  C   UNL     1      -1.734   3.432  24.821  0.00  0.00    +0.100 A 
ATOM     18  N   UNL     1      -2.075   2.696  24.672  0.00  0.00    -0.229 NA
ATOM     19  C   UNL     1      -0.950   3.688  24.818  0.00  0.00    +0.023 A 
ATOM     20  C   UNL     1      -0.771   4.474  24.993  0.00  0.00    +0.031 A 
ATOM     21  C   UNL     1      -1.378   5.004  25.170  0.00  0.00    +0.142 A 
ATOM     22  F   UNL     1      -1.200   5.791  25.345  0.00  0.00    -0.204 F 
ATOM     23  C   UNL     1      -2.162   4.749  25.174  0.00  0.00    +0.050 A 
ENDBRANCH  12  14
BRANCH   9   8
ATOM      8  C   UNL     1      -4.495   0.391  25.204  0.00  0.00    +0.099 C 
BRANCH   8   7
ATOM      4  C   UNL     1      -3.492  -1.812  24.687  0.00  0.00    +0.080 A 
ATOM      5  C   UNL     1      -3.312  -1.433  25.398  0.00  0.00    +0.006 A 
ATOM      6  C   UNL     1      -3.646  -0.699  25.570  0.00  0.00    -0.003 A 
ATOM      7  C   UNL     1      -4.161  -0.343  25.031  0.00  0.00    -0.006 A 
ATOM     24  C   UNL     1      -4.341  -0.722  24.321  0.00  0.00    -0.003 A 
ATOM     25  C   UNL     1      -4.006  -1.457  24.149  0.00  0.00    +0.006 A 
BRANCH   4   2
ATOM      1  O   UNL     1      -3.604  -3.235  24.609  0.00  0.00    -0.241 OA
ATOM      2  C   UNL     1      -3.158  -2.546  24.516  0.00  0.00    +0.388 C 
ATOM      3  O   UNL     1      -2.378  -2.593  24.251  0.00  0.00    -0.241 OA
ENDBRANCH   4   2
ENDBRANCH   8   7
ENDBRANCH   9   8
TORSDOF 4
ENDMDL
MODEL 2
REMARK VINA RESULT:     -12.7      2.951      5.415
REMARK  Name = 
REMARK  4 active torsions:
REMARK  status: ('A' for Active; 'I' for Inactive)
REMARK    1  A    between atoms: C_2  and  C_4
REMARK    2  A    between atoms: C_7  and  C_8
REMARK    3  A    between atoms: C_8  and  N_9
REMARK    4  A    between atoms: C_12  and  C_14
REMARK                            x       y       z     vdW  Elec       q    Type
REMARK                         _______ _______ _______ _____ _____    ______ ____
ROOT
ATOM      9  N   UNL     1      -4.558   2.151  24.697  0.00  0.00    -0.269 NA
ATOM     10  C   UNL     1      -5.168   1.946  25.213  0.00  0.00    +0.073 C 
ATOM     11  C   UNL     1      -5.141   1.129  25.328  0.00  0.00    +0.026 C 
ATOM     12  C   UNL     1      -4.513   0.830  24.883  0.00  0.00    +0.076 C 
ATOM     13  C   UNL     1      -4.153   1.461  24.493  0.00  0.00    +0.080 C 
ENDROOT
BRANCH  12  14
ATOM     14  C   UNL     1      -4.286   0.038  24.836  0.00  0.00    +0.140 A 
ATOM     15  N   UNL     1      -4.444  -0.476  24.211  0.00  0.00    -0.229 NA
ATOM     16  C   UNL     1      -4.117  -1.210  24.395  0.00  0.00    +0.102 A 
ATOM     17  C   UNL     1      -3.757  -1.150  25.135  0.00  0.00    +0.100 A 
ATOM     18  N   UNL     1      -3.861  -0.379  25.408  0.00  0.00    -0.229 NA
ATOM     19  C   UNL     1      -3.380  -1.806  25.464  0.00  0.00    +0.023 A 
ATOM     20  C   UNL     1      -3.364  -2.521  25.054  0.00  0.00    +0.031 A 
ATOM     21  C   UNL     1      -3.724  -2.581  24.314  0.00  0.00    +0.142 A 
ATOM     22  F   UNL     1      -3.708  -3.296  23.904  0.00  0.00    -0.204 F 
ATOM     23  C   UNL     1      -4.101  -1.926  23.984  0.00  0.00    +0.050 A 
ENDBRANCH  12  14
BRANCH   9   8
ATOM      8  C   UNL     1      -4.383   2.912  24.432  0.00  0.00    +0.099 C 
BRANCH   8   7
ATOM      4  C   UNL     1      -2.272   4.007  25.116  0.00  0.00    +0.080 A 
ATOM      5  C   UNL     1      -2.310   3.595  24.402  0.00  0.00    +0.006 A 
ATOM      6  C   UNL     1      -3.014   3.230  24.174  0.00  0.00    -0.003 A 
ATOM      7  C   UNL     1      -3.679   3.277  24.660  0.00  0.00    -0.006 A 
ATOM     24  C   UNL     1      -3.641   3.689  25.374  0.00  0.00    -0.003 A 
ATOM     25  C   UNL     1      -2.936   4.054  25.601  0.00  0.00    +0.006 A 
BRANCH   4   2
ATOM      1  O   UNL     1      -0.927   3.914  25.592  0.00  0.00    -0.241 OA
ATOM      2  C   UNL     1      -1.567   4.372  25.343  0.00  0.00    +0.388 C 
ATOM      3  O   UNL     1      -1.503   5.194  25.323  0.00  0.00    -0.241 OA
ENDBRANCH   4   2
ENDBRANCH   8   7
ENDBRANCH   9   8
TORSDOF 4
ENDMDL
MODEL 3
REMARK VINA RESULT:     -12.0      1.513      2.089
REMARK  Name = 
REMARK  4 active torsions:
REMARK  status: ('A' for Active; 'I' for Inactive)
REMARK    1  A    between atoms: C_2  and  C_4
REMARK    2  A    between atoms: C_7  and  C_8
REMARK    3  A    between atoms: C_8  and  N_9
REMARK    4  A    between atoms: C_12  and  C_14
REMARK                            x       y       z     vdW  Elec       q    Type
REMARK                         _______ _______ _______ _____ _____    ______ ____
ROOT
ATOM      9  N   UNL     1      -1.094   0.044  25.315  0.00  0.00    -0.269 NA
ATOM     10  C   UNL     1      -0.563   0.158  24.693  0.00  0.00    +0.073 C 
ATOM     11  C   UNL     1      -0.522   0.968  24.539  0.00  0.00    +0.026 C 
ATOM     12  C   UNL     1      -1.027   1.354  25.066  0.00  0.00    +0.076 C 
ATOM     13  C   UNL     1      -1.380   0.783  25.545  0.00  0.00    +0.080 C 
ENDROOT
BRANCH  12  14
ATOM     14  C   UNL     1      -1.155   2.168  25.105  0.00  0.00    +0.140 A 
ATOM     15  N   UNL     1      -0.608   2.755  24.915  0.00  0.00    -0.229 NA
ATOM     16  C   UNL     1      -0.968   3.487  25.035  0.00  0.00    +0.102 A 
ATOM     17  C   UNL     1      -1.738   3.352  25.299  0.00  0.00    +0.100 A 
ATOM     18  N   UNL     1      -1.854   2.537  25.343  0.00  0.00    -0.229 NA
ATOM     19  C   UNL     1      -2.234   3.991  25.466  0.00  0.00    +0.023 A 
ATOM     20  C   UNL     1      -1.961   4.762  25.368  0.00  0.00    +0.031 A 
ATOM     21  C   UNL     1      -1.191   4.897  25.104  0.00  0.00    +0.142 A 
ATOM     22  F   UNL     1      -0.917   5.668  25.006  0.00  0.00    -0.204 F 
ATOM     23  C   UNL     1      -0.695   4.260  24.937  0.00  0.00    +0.050 A 
ENDBRANCH  12  14
BRANCH   9   8
ATOM      8  C   UNL     1      -1.302  -0.681  25.648  0.00  0.00    +0.099 C 
BRANCH   8   7
ATOM      4  C   UNL     1      -3.134  -2.018  24.659  0.00  0.00    +0.080 A 
ATOM      5  C   UNL     1      -2.357  -2.138  24.411  0.00  0.00    +0.006 A 
ATOM      6  C   UNL     1      -1.746  -1.692  24.740  0.00  0.00    -0.003 A 
ATOM      7  C   UNL     1      -1.913  -1.127  25.318  0.00  0.00    -0.006 A 
ATOM     24  C   UNL     1      -2.690  -1.008  25.566  0.00  0.00    -0.003 A 
ATOM     25  C   UNL     1      -3.302  -1.454  25.236  0.00  0.00    +0.006 A 
BRANCH   4   2
ATOM      1  O   UNL     1      -4.322  -2.096  23.867  0.00  0.00    -0.241 OA
ATOM      2  C   UNL     1      -3.746  -2.464  24.329  0.00  0.00    +0.388 C 
ATOM      3  O   UNL     1      -3.780  -3.278  24.460  0.00  0.00    -0.241 OA
ENDBRANCH   4   2
ENDBRANCH   8   7
ENDBRANCH   9   8
TORSDOF 4
ENDMDL
MODEL 4
REMARK VINA RESULT:     -11.8      3.382      5.794
REMARK  Name = 
REMARK  4 active torsions:
REMARK  status: ('A' for Active; 'I' for Inactive)
REMARK    1  A    between atoms: C_2  and  C_4
REMARK    2  A    between atoms: C_7  and  C_8
REMARK    3  A    between atoms: C_8  and  N_9
REMARK    4  A    between atoms: C_12  and  C_14
REMARK                            x       y       z     vdW  Elec       q    Type
REMARK                         _______ _______ _______ _____ _____    ______ ____
ROOT
ATOM      9  N   UNL     1      -0.721   1.185  25.289  0.00  0.00    -0.269 NA
ATOM     10  C   UNL     1      -0.319   0.914  24.621  0.00  0.00    +0.073 C 
ATOM     11  C   UNL     1      -0.744   0.280  24.307  0.00  0.00    +0.026 C 
ATOM     12  C   UNL     1      -1.409   0.159  24.781  0.00  0.00    +0.076 C 
ATOM     13  C   UNL     1      -1.395   0.718  25.387  0.00  0.00    +0.080 C 
ENDROOT
BRANCH  12  14
ATOM     14  C   UNL     1      -1.987  -0.419  24.668  0.00  0.00    +0.140 A 
ATOM     15  N   UNL     1      -1.904  -1.225  24.824  0.00  0.00    -0.229 NA
ATOM     16  C   UNL     1      -2.614  -1.596  24.632  0.00  0.00    +0.102 A 
ATOM     17  C   UNL     1      -3.137  -1.020  24.356  0.00  0.00    +0.100 A 
ATOM     18  N   UNL     1      -2.750  -0.293  24.378  0.00  0.00    -0.229 NA
ATOM     19  C   UNL     1      -3.898  -1.234  24.120  0.00  0.00    +0.023 A 
ATOM     20  C   UNL     1      -4.137  -2.022  24.160  0.00  0.00    +0.031 A 
ATOM     21  C   UNL     1      -3.615  -2.598  24.436  0.00  0.00    +0.142 A 
ATOM     22  F   UNL     1      -3.853  -3.386  24.476  0.00  0.00    -0.204 F 
ATOM     23  C   UNL     1      -2.853  -2.385  24.671  0.00  0.00    +0.050 A 
ENDBRANCH  12  14
BRANCH   9   8
ATOM      8  C   UNL     1      -0.491   1.811  25.773  0.00  0.00    +0.099 C 
BRANCH   8   7
ATOM      4  C   UNL     1      -1.317   4.098  25.315  0.00  0.00    +0.080 A 
ATOM      5  C   UNL     1      -1.719   3.614  25.848  0.00  0.00    +0.006 A 
ATOM      6  C   UNL     1      -1.444   2.851  26.000  0.00  0.00    -0.003 A 
ATOM      7  C   UNL     1      -0.766   2.574  25.620  0.00  0.00    -0.006 A 
ATOM     24  C   UNL     1      -0.364   3.058  25.087  0.00  0.00    -0.003 A 
ATOM     25  C   UNL     1      -0.640   3.821  24.934  0.00  0.00    +0.006 A 
BRANCH   4   2
ATOM      1  O   UNL     1      -2.405   5.007  25.129  0.00  0.00    -0.241 OA
ATOM      2  C   UNL     1      -1.593   4.861  25.162  0.00  0.00    +0.388 C 
ATOM      3  O   UNL     1      -1.059   5.477  25.043  0.00  0.00    -0.241 OA
ENDBRANCH   4   2
ENDBRANCH   8   7
ENDBRANCH   9   8
TORSDOF 4
ENDMDL
