MODEL 1
REMARK VINA RESULT:     -14.6      0.000      0.000
REMARK  Name = 
REMARK  6 active torsions:
REMARK  status: ('A' for Active; 'I' for Inactive)
REMARK    1  A    between atoms: C_2  and  C_5
REMARK    2  A    between atoms: C_8  and  C_9
REMARK    3  A    between atoms: C_9  and  N_10
REMARK    4  A    between atoms: C_15  and  C_16
REMARK    5  A    between atoms: C_18  and  C_21
REMARK    6  A    between atoms: C_24  and  C_27
REMARK                            x       y       z     vdW  Elec       q    Type
REMARK                         _______ _______ _______ _____ _____    ______ ____
ROOT
ATOM     10  N   UNL     1      -3.800   2.671  25.063  0.00  0.00    -0.257 NA
ATOM     11  C   UNL     1      -4.056   3.374  25.410  0.00  0.00    +0.121 C 
ATOM     12  C   UNL     1      -4.862   3.504  25.534  0.00  0.00    +0.090 A 
ATOM     13  C   UNL     1      -5.411   2.930  25.310  0.00  0.00    +0.077 A 
ATOM     14  C   UNL     1      -5.155   2.226  24.962  0.00  0.00    +0.073 C 
ATOM     15  C   UNL     1      -4.349   2.098  24.839  0.00  0.00    +0.144 C 
ATOM     31  N   UNL     1      -6.163   3.210  25.499  0.00  0.00    -0.227 NA
ATOM     32  C   UNL     1      -6.079   3.956  25.840  0.00  0.00    +0.198 A 
ATOM     33  N   UNL     1      -5.275   4.137  25.861  0.00  0.00    -0.226 NA
ENDROOT
BRANCH  15  16
ATOM     16  C   UNL     1      -4.094   1.395  24.491  0.00  0.00    +0.251 A 
ATOM     17  N   UNL     1      -4.129   0.644  24.831  0.00  0.00    -0.190 NA
ATOM     18  C   UNL     1      -3.815   0.104  24.292  0.00  0.00    +0.203 A 
ATOM     19  N   UNL     1      -3.585   0.521  23.619  0.00  0.00    -0.056 NA
ATOM     20  O   UNL     1      -3.757   1.319  23.741  0.00  0.00    -0.336 OA
BRANCH  18  21
ATOM     21  C   UNL     1      -3.743  -0.710  24.406  0.00  0.00    +0.039 A 
ATOM     22  C   UNL     1      -3.227  -1.002  24.980  0.00  0.00    +0.003 A 
ATOM     23  C   UNL     1      -3.156  -1.816  25.094  0.00  0.00    +0.004 A 
ATOM     24  C   UNL     1      -3.600  -2.337  24.635  0.00  0.00    +0.071 A 
ATOM     25  C   UNL     1      -4.116  -2.045  24.061  0.00  0.00    +0.004 A 
ATOM     26  C   UNL     1      -4.188  -1.232  23.947  0.00  0.00    +0.003 A 
BRANCH  24  27
ATOM     27  C   UNL     1      -3.529  -3.152  24.749  0.00  0.00    +0.419 C 
ATOM     28  F   UNL     1      -3.458  -3.965  24.863  0.00  0.00    -0.166 F 
ATOM     29  F   UNL     1      -3.500  -3.264  23.932  0.00  0.00    -0.166 F 
ATOM     30  F   UNL     1      -3.558  -3.039  25.566  0.00  0.00    -0.166 F 
ENDBRANCH  24  27
ENDBRANCH  18  21
ENDBRANCH  15  16
BRANCH  10   9
ATOM      9  C   UNL     1      -2.995   2.542  24.939  0.00  0.00    +0.100 C 
BRANCH   9   8
ATOM      5  C   UNL     1      -1.412   4.443  25.004  0.00  0.00    +0.071 A 
ATOM      6  C   UNL     1      -1.855   4.299  24.324  0.00  0.00    +0.004 A 
ATOM      7  C   UNL     1      -2.383   3.665  24.302  0.00  0.00    -0.003 A 
ATOM      8  C   UNL     1      -2.468   3.175  24.961  0.00  0.00    -0.006 A 
ATOM     34  C   UNL     1      -2.024   3.320  25.642  0.00  0.00    -0.003 A 
ATOM     35  C   UNL     1      -1.496   3.954  25.664  0.00  0.00    +0.004 A 
BRANCH   5   2
ATOM      1  F   UNL     1      -0.357   5.710  25.048  0.00  0.00    -0.166 F 
ATOM      2  C   UNL     1      -0.884   5.077  25.026  0.00  0.00    +0.419 C 
ATOM      3  F   UNL     1      -0.319   4.619  24.635  0.00  0.00    -0.166 F 
ATOM      4  F   UNL     1      -1.449   5.533  25.416  0.00  0.00    -0.166 F 
ENDBRANCH   5   2
ENDBRANCH   9   8
ENDBRANCH  10   9
TORSDOF 6
ENDMDL
MODEL 2
REMARK VINA RESULT:     -12.7      2.498      3.704
REMARK  Name = 
REMARK  6 active torsions:
REMARK  status: ('A' for Active; 'I' for Inactive)
REMARK    1  A    between atoms: C_2  and  C_5
REMARK    2  A    between atoms: C_8  and  C_9
REMARK    3  A    between atoms: C_9  and  N_10
REMARK    4  A    between atoms: C_15  and  C_16
REMARK    5  A    between atoms: C_18  and  C_21
REMARK    6  A    between atoms: C_24  and  C_27
REMARK                            x       y       z     vdW  Elec       q    Type
REMARK                         _______ _______ _______ _____ _____    ______ ____
ROOT
ATOM     10  N   UNL     1      -0.299   1.349  24.676  0.00  0.00    -0.257 NA
ATOM     11  C   UNL     1       0.318   1.821  24.400  0.00  0.00    +0.121 C 
ATOM     12  C   UNL     1       0.927   1.486  23.955  0.00  0.00    +0.090 A 
ATOM     13  C   UNL     1       0.918   0.679  23.787  0.00  0.00    +0.077 A 
ATOM     14  C   UNL     1       0.300   0.206  24.063  0.00  0.00    +0.073 C 
ATOM     15  C   UNL     1      -0.308   0.541  24.508  0.00  0.00    +0.144 C 
ATOM     31  N   UNL     1       1.588   0.504  23.339  0.00  0.00    -0.227 NA
ATOM     32  C   UNL     1       2.011   1.204  23.231  0.00  0.00    +0.198 A 
ATOM     33  N   UNL     1       1.602   1.810  23.612  0.00  0.00    -0.226 NA
ENDROOT
BRANCH  15  16
ATOM     16  C   UNL     1      -0.925   0.068  24.784  0.00  0.00    +0.251 A 
ATOM     17  N   UNL     1      -1.497  -0.303  24.320  0.00  0.00    -0.190 NA
ATOM     18  C   UNL     1      -2.004  -0.717  24.822  0.00  0.00    +0.203 A 
ATOM     19  N   UNL     1      -1.745  -0.602  25.596  0.00  0.00    -0.056 NA
ATOM     20  O   UNL     1      -1.078  -0.116  25.574  0.00  0.00    -0.336 OA
BRANCH  18  21
ATOM     21  C   UNL     1      -2.655  -1.168  24.590  0.00  0.00    +0.039 A 
ATOM     22  C   UNL     1      -2.649  -1.986  24.694  0.00  0.00    +0.003 A 
ATOM     23  C   UNL     1      -3.301  -2.435  24.462  0.00  0.00    +0.004 A 
ATOM     24  C   UNL     1      -3.958  -2.067  24.125  0.00  0.00    +0.071 A 
ATOM     25  C   UNL     1      -3.963  -1.249  24.021  0.00  0.00    +0.004 A 
ATOM     26  C   UNL     1      -3.312  -0.799  24.253  0.00  0.00    +0.003 A 
BRANCH  24  27
ATOM     27  C   UNL     1      -4.609  -2.517  23.892  0.00  0.00    +0.419 C 
ATOM     28  F   UNL     1      -5.260  -2.966  23.660  0.00  0.00    -0.166 F 
ATOM     29  F   UNL     1      -4.161  -3.206  23.968  0.00  0.00    -0.166 F 
ATOM     30  F   UNL     1      -5.057  -1.828  23.818  0.00  0.00    -0.166 F 
ENDBRANCH  24  27
ENDBRANCH  18  21
ENDBRANCH  15  16
BRANCH  10   9
ATOM      9  C   UNL     1      -0.907   1.683  25.121  0.00  0.00    +0.100 C 
BRANCH   9   8
ATOM      5  C   UNL     1      -1.200   4.141  25.165  0.00  0.00    +0.071 A 
ATOM      6  C   UNL     1      -0.757   3.768  25.752  0.00  0.00    +0.004 A 
ATOM      7  C   UNL     1      -0.660   2.949  25.737  0.00  0.00    -0.003 A 
ATOM      8  C   UNL     1      -1.005   2.503  25.135  0.00  0.00    -0.006 A 
ATOM     34  C   UNL     1      -1.448   2.876  24.547  0.00  0.00    -0.003 A 
ATOM     35  C   UNL     1      -1.545   3.695  24.562  0.00  0.00    +0.004 A 
BRANCH   5   2
ATOM      1  F   UNL     1      -1.395   5.779  25.194  0.00  0.00    -0.166 F 
ATOM      2  C   UNL     1      -1.297   4.960  25.179  0.00  0.00    +0.419 C 
ATOM      3  F   UNL     1      -1.984   4.870  25.630  0.00  0.00    -0.166 F 
ATOM      4  F   UNL     1      -0.612   5.049  24.730  0.00  0.00    -0.166 F 
ENDBRANCH   5   2
ENDBRANCH   9   8
ENDBRANCH  10   9
TORSDOF 6
ENDMDL
MODEL 3
REMARK VINA RESULT:     -12.7      2.375      6.029
REMARK  Name = 
REMARK  6 active torsions:
REMARK  status: ('A' for Active; 'I' for Inactive)
REMARK    1  A    between atoms: C_2  and  C_5
REMARK    2  A    between atoms: C_8  and  C_9
REMARK    3  A    between atoms: C_9  and  N_10
REMARK    4  A    between atoms: C_15  and  C_16
REMARK    5  A    between atoms: C_18  and  C_21
REMARK    6  A    between atoms: C_24  and  C_27
REMARK                            x       y       z     vdW  Elec       q    Type
REMARK                         _______ _______ _______ _____ _____    ______ ____
ROOT
ATOM     10  N   UNL     1      -1.358   0.303  24.692  0.00  0.00    -0.257 NA
ATOM     11  C   UNL     1      -0.935  -0.293  24.311  0.00  0.00    +0.121 C 
ATOM     12  C   UNL     1      -0.266  -0.105  23.865  0.00  0.00    +0.090 A 
ATOM     13  C   UNL     1      -0.022   0.681  23.801  0.00  0.00    +0.077 A 
ATOM     14  C   UNL     1      -0.446   1.278  24.182  0.00  0.00    +0.073 C 
ATOM     15  C   UNL     1      -1.114   1.088  24.628  0.00  0.00    +0.144 C 
ATOM     31  N   UNL     1       0.652   0.700  23.327  0.00  0.00    -0.227 NA
ATOM     32  C   UNL     1       0.825  -0.073  23.098  0.00  0.00    +0.198 A 
ATOM     33  N   UNL     1       0.257  -0.570  23.431  0.00  0.00    -0.226 NA
ENDROOT
BRANCH  15  16
ATOM     16  C   UNL     1      -1.537   1.685  25.009  0.00  0.00    +0.251 A 
ATOM     17  N   UNL     1      -2.308   1.919  24.836  0.00  0.00    -0.190 NA
ATOM     18  C   UNL     1      -2.511   2.532  25.351  0.00  0.00    +0.203 A 
ATOM     19  N   UNL     1      -1.865   2.675  25.842  0.00  0.00    -0.056 NA
ATOM     20  O   UNL     1      -1.262   2.152  25.631  0.00  0.00    -0.336 OA
BRANCH  18  21
ATOM     21  C   UNL     1      -3.234   2.930  25.371  0.00  0.00    +0.039 A 
ATOM     22  C   UNL     1      -3.825   2.738  24.829  0.00  0.00    +0.003 A 
ATOM     23  C   UNL     1      -4.548   3.136  24.849  0.00  0.00    +0.004 A 
ATOM     24  C   UNL     1      -4.678   3.726  25.410  0.00  0.00    +0.071 A 
ATOM     25  C   UNL     1      -4.086   3.918  25.952  0.00  0.00    +0.004 A 
ATOM     26  C   UNL     1      -3.364   3.520  25.933  0.00  0.00    +0.003 A 
BRANCH  24  27
ATOM     27  C   UNL     1      -5.400   4.125  25.430  0.00  0.00    +0.419 C 
ATOM     28  F   UNL     1      -6.122   4.523  25.450  0.00  0.00    -0.166 F 
ATOM     29  F   UNL     1      -5.058   4.764  25.035  0.00  0.00    -0.166 F 
ATOM     30  F   UNL     1      -5.741   3.485  25.825  0.00  0.00    -0.166 F 
ENDBRANCH  24  27
ENDBRANCH  18  21
ENDBRANCH  15  16
BRANCH  10   9
ATOM      9  C   UNL     1      -2.026   0.114  25.137  0.00  0.00    +0.100 C 
BRANCH   9   8
ATOM      5  C   UNL     1      -3.169  -2.054  24.795  0.00  0.00    +0.071 A 
ATOM      6  C   UNL     1      -3.379  -1.401  24.338  0.00  0.00    +0.004 A 
ATOM      7  C   UNL     1      -2.998  -0.678  24.452  0.00  0.00    -0.003 A 
ATOM      8  C   UNL     1      -2.407  -0.609  25.023  0.00  0.00    -0.006 A 
ATOM     34  C   UNL     1      -2.197  -1.263  25.481  0.00  0.00    -0.003 A 
ATOM     35  C   UNL     1      -2.578  -1.986  25.367  0.00  0.00    +0.004 A 
BRANCH   5   2
ATOM      1  F   UNL     1      -3.931  -3.500  24.566  0.00  0.00    -0.166 F 
ATOM      2  C   UNL     1      -3.550  -2.777  24.680  0.00  0.00    +0.419 C 
ATOM      3  F   UNL     1      -3.558  -2.644  23.865  0.00  0.00    -0.166 F 
ATOM      4  F   UNL     1      -3.543  -2.910  25.494  0.00  0.00    -0.166 F 
ENDBRANCH   5   2
ENDBRANCH   9   8
ENDBRANCH  10   9
TORSDOF 6
ENDMDL
MODEL 4
REMARK VINA RESULT:     -12.5      2.011      3.222
REMARK  Name = 
REMARK  6 active torsions:
REMARK  status: ('A' for Active; 'I' for Inactive)
REMARK    1  A    between atoms: C_2  and  C_5
REMARK    2  A    between atoms: C_8  and  C_9
REMARK    3  A    between atoms: C_9  and  N_10
REMARK    4  A    between atoms: C_15  and  C_16
REMARK    5  A    between atoms: C_18  and  C_21
REMARK    6  A    between atoms: C_24  and  C_27
REMARK                            x       y       z     vdW  Elec       q    Type
REMARK                         _______ _______ _______ _____ _____    ______ ____
ROOT
ATOM     10  N   UNL     1      -2.119   2.287  25.095  0.00  0.00    -0.257 NA
ATOM     11  C   UNL     1      -2.014   3.078  24.888  0.00  0.00    +0.121 C 
ATOM     12  C   UNL     1      -1.288   3.334  24.591  0.00  0.00    +0.090 A 
ATOM     13  C   UNL     1      -0.667   2.798  24.500  0.00  0.00    +0.077 A 
ATOM     14  C   UNL     1      -0.773   2.005  24.707  0.00  0.00    +0.073 C 
ATOM     15  C   UNL     1      -1.499   1.750  25.004  0.00  0.00    +0.144 C 
ATOM     31  N   UNL     1      -0.019   3.207  24.196  0.00  0.00    -0.227 NA
ATOM     32  C   UNL     1      -0.239   3.996  24.098  0.00  0.00    +0.198 A 
ATOM     33  N   UNL     1      -1.023   4.074  24.342  0.00  0.00    -0.226 NA
ENDROOT
BRANCH  15  16
ATOM     16  C   UNL     1      -1.603   0.959  25.210  0.00  0.00    +0.251 A 
ATOM     17  N   UNL     1      -2.103   0.421  24.835  0.00  0.00    -0.190 NA
ATOM     18  C   UNL     1      -2.035  -0.305  25.221  0.00  0.00    +0.203 A 
ATOM     19  N   UNL     1      -1.493  -0.216  25.836  0.00  0.00    -0.056 NA
ATOM     20  O   UNL     1      -1.226   0.566  25.830  0.00  0.00    -0.336 OA
BRANCH  18  21
ATOM     21  C   UNL     1      -2.438  -0.998  25.026  0.00  0.00    +0.039 A 
ATOM     22  C   UNL     1      -2.052  -1.597  24.611  0.00  0.00    +0.003 A 
ATOM     23  C   UNL     1      -2.456  -2.290  24.416  0.00  0.00    +0.004 A 
ATOM     24  C   UNL     1      -3.245  -2.383  24.637  0.00  0.00    +0.071 A 
ATOM     25  C   UNL     1      -3.631  -1.784  25.052  0.00  0.00    +0.004 A 
ATOM     26  C   UNL     1      -3.228  -1.091  25.247  0.00  0.00    +0.003 A 
BRANCH  24  27
ATOM     27  C   UNL     1      -3.649  -3.076  24.442  0.00  0.00    +0.419 C 
ATOM     28  F   UNL     1      -4.053  -3.768  24.248  0.00  0.00    -0.166 F 
ATOM     29  F   UNL     1      -3.808  -2.772  23.691  0.00  0.00    -0.166 F 
ATOM     30  F   UNL     1      -3.491  -3.378  25.193  0.00  0.00    -0.166 F 
ENDBRANCH  24  27
ENDBRANCH  18  21
ENDBRANCH  15  16
BRANCH  10   9
ATOM      9  C   UNL     1      -2.844   2.031  25.391  0.00  0.00    +0.100 C 
BRANCH   9   8
ATOM      5  C   UNL     1      -4.784   3.568  25.411  0.00  0.00    +0.071 A 
ATOM      6  C   UNL     1      -4.231   3.595  26.022  0.00  0.00    +0.004 A 
ATOM      7  C   UNL     1      -3.584   3.083  26.015  0.00  0.00    -0.003 A 
ATOM      8  C   UNL     1      -3.491   2.543  25.398  0.00  0.00    -0.006 A 
ATOM     34  C   UNL     1      -4.045   2.517  24.787  0.00  0.00    -0.003 A 
ATOM     35  C   UNL     1      -4.692   3.029  24.793  0.00  0.00    +0.004 A 
BRANCH   5   2
ATOM      1  F   UNL     1      -6.077   4.593  25.424  0.00  0.00    -0.166 F 
ATOM      2  C   UNL     1      -5.431   4.080  25.418  0.00  0.00    +0.419 C 
ATOM      3  F   UNL     1      -5.000   4.630  24.977  0.00  0.00    -0.166 F 
ATOM      4  F   UNL     1      -5.861   3.532  25.858  0.00  0.00    -0.166 F 
ENDBRANCH   5   2
ENDBRANCH   9   8
ENDBRANCH  10   9
TORSDOF 6
ENDMDL
MODEL 5
REMARK VINA RESULT:     -12.2      2.514      6.695
REMARK  Name = 
REMARK  6 active torsions:
REMARK  status: ('A' for Active; 'I' for Inactive)
REMARK    1  A    between atoms: C_2  and  C_5
REMARK    2  A    between atoms: C_8  and  C_9
REMARK    3  A    between atoms: C_9  and  N_10
REMARK    4  A    between atoms: C_15  and  C_16
REMARK    5  A    between atoms: C_18  and  C_21
REMARK    6  A    between atoms: C_24  and  C_27
REMARK                            x       y       z     vdW  Elec       q    Type
REMARK                         _______ _______ _______ _____ _____    ______ ____
ROOT
ATOM     10  N   UNL     1      -0.558   0.135  24.481  0.00  0.00    -0.257 NA
ATOM     11  C   UNL     1      -0.360  -0.505  24.001  0.00  0.00    +0.121 C 
ATOM     12  C   UNL     1       0.267  -0.443  23.468  0.00  0.00    +0.090 A 
ATOM     13  C   UNL     1       0.695   0.260  23.415  0.00  0.00    +0.077 A 
ATOM     14  C   UNL     1       0.497   0.901  23.896  0.00  0.00    +0.073 C 
ATOM     15  C   UNL     1      -0.130   0.838  24.428  0.00  0.00    +0.144 C 
ATOM     31  N   UNL     1       1.280   0.160  22.843  0.00  0.00    -0.227 NA
ATOM     32  C   UNL     1       1.213  -0.605  22.541  0.00  0.00    +0.198 A 
ATOM     33  N   UNL     1       0.587  -0.977  22.928  0.00  0.00    -0.226 NA
ENDROOT
BRANCH  15  16
ATOM     16  C   UNL     1      -0.328   1.479  24.909  0.00  0.00    +0.251 A 
ATOM     17  N   UNL     1      -0.628   2.204  24.653  0.00  0.00    -0.190 NA
ATOM     18  C   UNL     1      -0.745   2.681  25.316  0.00  0.00    +0.203 A 
ATOM     19  N   UNL     1      -0.518   2.251  25.981  0.00  0.00    -0.056 NA
ATOM     20  O   UNL     1      -0.260   1.508  25.731  0.00  0.00    -0.336 OA
BRANCH  18  21
ATOM     21  C   UNL     1      -1.039   3.452  25.312  0.00  0.00    +0.039 A 
ATOM     22  C   UNL     1      -1.771   3.616  25.655  0.00  0.00    +0.003 A 
ATOM     23  C   UNL     1      -2.063   4.388  25.651  0.00  0.00    +0.004 A 
ATOM     24  C   UNL     1      -1.625   4.994  25.304  0.00  0.00    +0.071 A 
ATOM     25  C   UNL     1      -0.893   4.829  24.961  0.00  0.00    +0.004 A 
ATOM     26  C   UNL     1      -0.600   4.058  24.965  0.00  0.00    +0.003 A 
BRANCH  24  27
ATOM     27  C   UNL     1      -1.918   5.766  25.300  0.00  0.00    +0.419 C 
ATOM     28  F   UNL     1      -2.210   6.536  25.297  0.00  0.00    -0.166 F 
ATOM     29  F   UNL     1      -2.534   5.534  25.798  0.00  0.00    -0.166 F 
ATOM     30  F   UNL     1      -1.301   5.996  24.803  0.00  0.00    -0.166 F 
ENDBRANCH  24  27
ENDBRANCH  18  21
ENDBRANCH  15  16
BRANCH  10   9
ATOM      9  C   UNL     1      -1.184   0.073  25.014  0.00  0.00    +0.100 C 
BRANCH   9   8
ATOM      5  C   UNL     1      -2.799  -1.792  24.813  0.00  0.00    +0.071 A 
ATOM      6  C   UNL     1      -2.115  -1.885  25.264  0.00  0.00    +0.004 A 
ATOM      7  C   UNL     1      -1.577  -1.264  25.331  0.00  0.00    -0.003 A 
ATOM      8  C   UNL     1      -1.722  -0.549  24.947  0.00  0.00    -0.006 A 
ATOM     34  C   UNL     1      -2.407  -0.455  24.495  0.00  0.00    -0.003 A 
ATOM     35  C   UNL     1      -2.945  -1.077  24.428  0.00  0.00    +0.004 A 
BRANCH   5   2
ATOM      1  F   UNL     1      -3.875  -3.035  24.679  0.00  0.00    -0.166 F 
ATOM      2  C   UNL     1      -3.337  -2.414  24.746  0.00  0.00    +0.419 C 
ATOM      3  F   UNL     1      -3.600  -2.269  25.516  0.00  0.00    -0.166 F 
ATOM      4  F   UNL     1      -3.075  -2.558  23.978  0.00  0.00    -0.166 F 
ENDBRANCH   5   2
ENDBRANCH   9   8
ENDBRANCH  10   9
TORSDOF 6
ENDMDL
MODEL 6
REMARK VINA RESULT:     -11.8      1.570      5.297
REMARK  Name = 
REMARK  6 active torsions:
REMARK  status: ('A' for Active; 'I' for Inactive)
REMARK    1  A    between atoms: C_2  and  C_5
REMARK    2  A    between atoms: C_8  and  C_9
REMARK    3  A    between atoms: C_9  and  N_10
REMARK    4  A    between atoms: C_15  and  C_16
REMARK    5  A    between atoms: C_18  and  C_21
REMARK    6  A    between atoms: C_24  and  C_27
REMARK                            x       y       z     vdW  Elec       q    Type
REMARK                         _______ _______ _______ _____ _____    ______ ____
ROOT
ATOM     10  N   UNL     1      -4.181   1.044  24.498  0.00  0.00    -0.257 NA
ATOM     11  C   UNL     1      -4.959   0.773  24.507  0.00  0.00    +0.121 C 
ATOM     12  C   UNL     1      -5.569   1.276  24.743  0.00  0.00    +0.090 A 
ATOM     13  C   UNL     1      -5.400   2.050  24.971  0.00  0.00    +0.077 A 
ATOM     14  C   UNL     1      -4.621   2.322  24.962  0.00  0.00    +0.073 C 
ATOM     15  C   UNL     1      -4.012   1.819  24.725  0.00  0.00    +0.144 C 
ATOM     31  N   UNL     1      -6.110   2.417  25.175  0.00  0.00    -0.227 NA
ATOM     32  C   UNL     1      -6.718   1.869  25.075  0.00  0.00    +0.198 A 
ATOM     33  N   UNL     1      -6.383   1.164  24.808  0.00  0.00    -0.226 NA
ENDROOT
BRANCH  15  16
ATOM     16  C   UNL     1      -3.233   2.091  24.717  0.00  0.00    +0.251 A 
ATOM     17  N   UNL     1      -2.697   2.049  25.342  0.00  0.00    -0.190 NA
ATOM     18  C   UNL     1      -1.986   2.386  25.092  0.00  0.00    +0.203 A 
ATOM     19  N   UNL     1      -2.083   2.636  24.313  0.00  0.00    -0.056 NA
ATOM     20  O   UNL     1      -2.854   2.455  24.080  0.00  0.00    -0.336 OA
BRANCH  18  21
ATOM     21  C   UNL     1      -1.299   2.459  25.544  0.00  0.00    +0.039 A 
ATOM     22  C   UNL     1      -0.776   1.824  25.605  0.00  0.00    +0.003 A 
ATOM     23  C   UNL     1      -0.090   1.898  26.057  0.00  0.00    +0.004 A 
ATOM     24  C   UNL     1       0.074   2.606  26.447  0.00  0.00    +0.071 A 
ATOM     25  C   UNL     1      -0.449   3.241  26.385  0.00  0.00    +0.004 A 
ATOM     26  C   UNL     1      -1.136   3.168  25.934  0.00  0.00    +0.003 A 
BRANCH  24  27
ATOM     27  C   UNL     1       0.760   2.680  26.899  0.00  0.00    +0.419 C 
ATOM     28  F   UNL     1       1.446   2.753  27.351  0.00  0.00    -0.166 F 
ATOM     29  F   UNL     1       0.342   2.449  27.572  0.00  0.00    -0.166 F 
ATOM     30  F   UNL     1       1.178   2.910  26.225  0.00  0.00    -0.166 F 
ENDBRANCH  24  27
ENDBRANCH  18  21
ENDBRANCH  15  16
BRANCH  10   9
ATOM      9  C   UNL     1      -3.571   0.542  24.262  0.00  0.00    +0.100 C 
BRANCH   9   8
ATOM      5  C   UNL     1      -3.867  -1.911  24.401  0.00  0.00    +0.071 A 
ATOM      6  C   UNL     1      -4.038  -1.515  23.698  0.00  0.00    +0.004 A 
ATOM      7  C   UNL     1      -3.939  -0.697  23.652  0.00  0.00    -0.003 A 
ATOM      8  C   UNL     1      -3.670  -0.276  24.308  0.00  0.00    -0.006 A 
ATOM     34  C   UNL     1      -3.499  -0.673  25.011  0.00  0.00    -0.003 A 
ATOM     35  C   UNL     1      -3.598  -1.491  25.058  0.00  0.00    +0.004 A 
BRANCH   5   2
ATOM      1  F   UNL     1      -4.064  -3.547  24.493  0.00  0.00    -0.166 F 
ATOM      2  C   UNL     1      -3.966  -2.729  24.447  0.00  0.00    +0.419 C 
ATOM      3  F   UNL     1      -3.512  -2.745  25.137  0.00  0.00    -0.166 F 
ATOM      4  F   UNL     1      -4.418  -2.714  23.758  0.00  0.00    -0.166 F 
ENDBRANCH   5   2
ENDBRANCH   9   8
ENDBRANCH  10   9
TORSDOF 6
ENDMDL
MODEL 7
REMARK VINA RESULT:     -11.8      2.913      5.292
REMARK  Name = 
REMARK  6 active torsions:
REMARK  status: ('A' for Active; 'I' for Inactive)
REMARK    1  A    between atoms: C_2  and  C_5
REMARK    2  A    between atoms: C_8  and  C_9
REMARK    3  A    between atoms: C_9  and  N_10
REMARK    4  A    between atoms: C_15  and  C_16
REMARK    5  A    between atoms: C_18  and  C_21
REMARK    6  A    between atoms: C_24  and  C_27
REMARK                            x       y       z     vdW  Elec       q    Type
REMARK                         _______ _______ _______ _____ _____    ______ ____
ROOT
ATOM     10  N   UNL     1      -3.016   0.794  24.963  0.00  0.00    -0.257 NA
ATOM     11  C   UNL     1      -3.833   0.899  24.955  0.00  0.00    +0.121 C 
ATOM     12  C   UNL     1      -4.152   1.652  24.846  0.00  0.00    +0.090 A 
ATOM     13  C   UNL     1      -3.652   2.301  24.747  0.00  0.00    +0.077 A 
ATOM     14  C   UNL     1      -2.833   2.196  24.756  0.00  0.00    +0.073 C 
ATOM     15  C   UNL     1      -2.516   1.442  24.864  0.00  0.00    +0.144 C 
ATOM     31  N   UNL     1      -4.121   2.972  24.652  0.00  0.00    -0.227 NA
ATOM     32  C   UNL     1      -4.911   2.739  24.693  0.00  0.00    +0.198 A 
ATOM     33  N   UNL     1      -4.930   1.924  24.813  0.00  0.00    -0.226 NA
ENDROOT
BRANCH  15  16
ATOM     16  C   UNL     1      -1.697   1.338  24.872  0.00  0.00    +0.251 A 
ATOM     17  N   UNL     1      -1.226   1.140  24.225  0.00  0.00    -0.190 NA
ATOM     18  C   UNL     1      -0.444   1.093  24.483  0.00  0.00    +0.203 A 
ATOM     19  N   UNL     1      -0.431   1.261  25.290  0.00  0.00    -0.056 NA
ATOM     20  O   UNL     1      -1.206   1.413  25.531  0.00  0.00    -0.336 OA
BRANCH  18  21
ATOM     21  C   UNL     1       0.211   0.909  24.015  0.00  0.00    +0.039 A 
ATOM     22  C   UNL     1       0.828   1.450  23.938  0.00  0.00    +0.003 A 
ATOM     23  C   UNL     1       1.482   1.266  23.470  0.00  0.00    +0.004 A 
ATOM     24  C   UNL     1       1.518   0.540  23.080  0.00  0.00    +0.071 A 
ATOM     25  C   UNL     1       0.901  -0.001  23.157  0.00  0.00    +0.004 A 
ATOM     26  C   UNL     1       0.247   0.182  23.625  0.00  0.00    +0.003 A 
BRANCH  24  27
ATOM     27  C   UNL     1       2.173   0.356  22.612  0.00  0.00    +0.419 C 
ATOM     28  F   UNL     1       2.827   0.171  22.144  0.00  0.00    -0.166 F 
ATOM     29  F   UNL     1       2.637   0.874  23.056  0.00  0.00    -0.166 F 
ATOM     30  F   UNL     1       1.708  -0.162  22.168  0.00  0.00    -0.166 F 
ENDBRANCH  24  27
ENDBRANCH  18  21
ENDBRANCH  15  16
BRANCH  10   9
ATOM      9  C   UNL     1      -2.698   0.041  25.071  0.00  0.00    +0.100 C 
BRANCH   9   8
ATOM      5  C   UNL     1      -3.932  -1.950  24.271  0.00  0.00    +0.071 A 
ATOM      6  C   UNL     1      -3.668  -1.385  23.732  0.00  0.00    +0.004 A 
ATOM      7  C   UNL     1      -3.257  -0.721  23.999  0.00  0.00    -0.003 A 
ATOM      8  C   UNL     1      -3.109  -0.623  24.804  0.00  0.00    -0.006 A 
ATOM     34  C   UNL     1      -3.374  -1.189  25.344  0.00  0.00    -0.003 A 
ATOM     35  C   UNL     1      -3.786  -1.853  25.077  0.00  0.00    +0.004 A 
BRANCH   5   2
ATOM      1  F   UNL     1      -4.755  -3.277  23.738  0.00  0.00    -0.166 F 
ATOM      2  C   UNL     1      -4.344  -2.613  24.004  0.00  0.00    +0.419 C 
ATOM      3  F   UNL     1      -3.774  -3.104  24.346  0.00  0.00    -0.166 F 
ATOM      4  F   UNL     1      -4.912  -2.124  23.663  0.00  0.00    -0.166 F 
ENDBRANCH   5   2
ENDBRANCH   9   8
ENDBRANCH  10   9
TORSDOF 6
ENDMDL
MODEL 8
REMARK VINA RESULT:     -11.5      2.693      3.791
REMARK  Name = 
REMARK  6 active torsions:
REMARK  status: ('A' for Active; 'I' for Inactive)
REMARK    1  A    between atoms: C_2  and  C_5
REMARK    2  A    between atoms: C_8  and  C_9
REMARK    3  A    between atoms: C_9  and  N_10
REMARK    4  A    between atoms: C_15  and  C_16
REMARK    5  A    between atoms: C_18  and  C_21
REMARK    6  A    between atoms: C_24  and  C_27
REMARK                            x       y       z     vdW  Elec       q    Type
REMARK                         _______ _______ _______ _____ _____    ______ ____
ROOT
ATOM     10  N   UNL     1      -2.416   2.812  24.422  0.00  0.00    -0.257 NA
ATOM     11  C   UNL     1      -2.715   3.549  24.636  0.00  0.00    +0.121 C 
ATOM     12  C   UNL     1      -2.203   4.145  24.891  0.00  0.00    +0.090 A 
ATOM     13  C   UNL     1      -1.391   4.001  24.931  0.00  0.00    +0.077 A 
ATOM     14  C   UNL     1      -1.092   3.262  24.716  0.00  0.00    +0.073 C 
ATOM     15  C   UNL     1      -1.605   2.668  24.462  0.00  0.00    +0.144 C 
ATOM     31  N   UNL     1      -1.024   4.688  25.200  0.00  0.00    -0.227 NA
ATOM     32  C   UNL     1      -1.607   5.256  25.327  0.00  0.00    +0.198 A 
ATOM     33  N   UNL     1      -2.336   4.920  25.135  0.00  0.00    -0.226 NA
ENDROOT
BRANCH  15  16
ATOM     16  C   UNL     1      -1.305   1.930  24.248  0.00  0.00    +0.251 A 
ATOM     17  N   UNL     1      -1.273   1.260  24.728  0.00  0.00    -0.190 NA
ATOM     18  C   UNL     1      -0.932   0.648  24.292  0.00  0.00    +0.203 A 
ATOM     19  N   UNL     1      -0.754   0.939  23.542  0.00  0.00    -0.056 NA
ATOM     20  O   UNL     1      -0.984   1.732  23.514  0.00  0.00    -0.336 OA
BRANCH  18  21
ATOM     21  C   UNL     1      -0.795  -0.120  24.560  0.00  0.00    +0.039 A 
ATOM     22  C   UNL     1      -0.355  -0.645  24.101  0.00  0.00    +0.003 A 
ATOM     23  C   UNL     1      -0.219  -1.413  24.370  0.00  0.00    +0.004 A 
ATOM     24  C   UNL     1      -0.522  -1.656  25.097  0.00  0.00    +0.071 A 
ATOM     25  C   UNL     1      -0.961  -1.131  25.557  0.00  0.00    +0.004 A 
ATOM     26  C   UNL     1      -1.099  -0.362  25.289  0.00  0.00    +0.003 A 
BRANCH  24  27
ATOM     27  C   UNL     1      -0.385  -2.424  25.366  0.00  0.00    +0.419 C 
ATOM     28  F   UNL     1      -0.248  -3.191  25.635  0.00  0.00    -0.166 F 
ATOM     29  F   UNL     1       0.307  -2.171  25.738  0.00  0.00    -0.166 F 
ATOM     30  F   UNL     1      -1.077  -2.676  24.994  0.00  0.00    -0.166 F 
ENDBRANCH  24  27
ENDBRANCH  18  21
ENDBRANCH  15  16
BRANCH  10   9
ATOM      9  C   UNL     1      -2.928   2.217  24.167  0.00  0.00    +0.100 C 
BRANCH   9   8
ATOM      5  C   UNL     1      -5.284   2.207  24.924  0.00  0.00    +0.071 A 
ATOM      6  C   UNL     1      -4.706   1.826  25.372  0.00  0.00    +0.004 A 
ATOM      7  C   UNL     1      -3.920   1.830  25.120  0.00  0.00    -0.003 A 
ATOM      8  C   UNL     1      -3.713   2.214  24.420  0.00  0.00    -0.006 A 
ATOM     34  C   UNL     1      -4.293   2.595  23.971  0.00  0.00    -0.003 A 
ATOM     35  C   UNL     1      -5.078   2.591  24.223  0.00  0.00    +0.004 A 
BRANCH   5   2
ATOM      1  F   UNL     1      -6.855   2.200  25.428  0.00  0.00    -0.166 F 
ATOM      2  C   UNL     1      -6.070   2.203  25.176  0.00  0.00    +0.419 C 
ATOM      3  F   UNL     1      -5.887   2.765  25.753  0.00  0.00    -0.166 F 
ATOM      4  F   UNL     1      -6.252   1.642  24.601  0.00  0.00    -0.166 F 
ENDBRANCH   5   2
ENDBRANCH   9   8
ENDBRANCH  10   9
TORSDOF 6
ENDMDL
