MODEL 1
REMARK VINA RESULT:     -11.3      0.000      0.000
REMARK  Name = 
REMARK  3 active torsions:
REMARK  status: ('A' for Active; 'I' for Inactive)
REMARK    1  A    between atoms: C_1  and  N_2
REMARK    2  A    between atoms: C_1  and  C_16
REMARK    3  A    between atoms: C_5  and  C_7
REMARK                            x       y       z     vdW  Elec       q    Type
REMARK                         _______ _______ _______ _____ _____    ______ ____
ROOT
ATOM      2  N   UNL     1      -4.227   2.234  24.619  0.00  0.00    -0.268 NA
ATOM      3  C   UNL     1      -4.959   2.069  24.963  0.00  0.00    +0.073 C 
ATOM      4  C   UNL     1      -5.028   1.250  25.035  0.00  0.00    +0.025 C 
ATOM      5  C   UNL     1      -4.339   0.908  24.735  0.00  0.00    +0.064 C 
ATOM      6  C   UNL     1      -3.844   1.517  24.478  0.00  0.00    +0.079 C 
ENDROOT
BRANCH   5   7
ATOM      7  C   UNL     1      -4.174   0.101  24.698  0.00  0.00    +0.089 A 
ATOM      8  N   UNL     1      -4.391  -0.412  24.090  0.00  0.00    -0.243 NA
ATOM      9  C   UNL     1      -4.114  -1.164  24.280  0.00  0.00    +0.087 A 
ATOM     10  C   UNL     1      -3.725  -1.118  25.006  0.00  0.00    +0.048 A 
ATOM     11  S   UNL     1      -3.762  -0.336  25.265  0.00  0.00    -0.071 S 
ATOM     12  C   UNL     1      -3.388  -1.794  25.337  0.00  0.00    +0.008 A 
ATOM     13  C   UNL     1      -3.440  -2.516  24.943  0.00  0.00    +0.001 A 
ATOM     14  C   UNL     1      -3.828  -2.563  24.217  0.00  0.00    +0.002 A 
ATOM     15  C   UNL     1      -4.165  -1.888  23.885  0.00  0.00    +0.020 A 
ENDBRANCH   5   7
BRANCH   2   1
ATOM      1  C   UNL     1      -3.931   2.984  24.446  0.00  0.00    +0.106 C 
BRANCH   1  16
ATOM     16  C   UNL     1      -3.444   3.370  24.988  0.00  0.00    +0.023 A 
ATOM     17  C   UNL     1      -3.690   3.753  25.676  0.00  0.00    +0.004 A 
ATOM     18  C   UNL     1      -3.022   4.061  26.050  0.00  0.00    +0.007 A 
ATOM     19  C   UNL     1      -2.363   3.868  25.593  0.00  0.00    +0.035 A 
ATOM     20  S   UNL     1      -2.623   3.442  24.937  0.00  0.00    -0.089 S 
ENDBRANCH   1  16
ENDBRANCH   2   1
TORSDOF 3
ENDMDL
MODEL 2
REMARK VINA RESULT:     -10.2      1.074      4.749
REMARK  Name = 
REMARK  3 active torsions:
REMARK  status: ('A' for Active; 'I' for Inactive)
REMARK    1  A    between atoms: C_1  and  N_2
REMARK    2  A    between atoms: C_1  and  C_16
REMARK    3  A    between atoms: C_5  and  C_7
REMARK                            x       y       z     vdW  Elec       q    Type
REMARK                         _______ _______ _______ _____ _____    ______ ____
ROOT
ATOM      2  N   UNL     1      -3.773   0.621  24.403  0.00  0.00    -0.268 NA
ATOM      3  C   UNL     1      -3.532   0.704  23.619  0.00  0.00    +0.073 C 
ATOM      4  C   UNL     1      -3.061   1.379  23.567  0.00  0.00    +0.025 C 
ATOM      5  C   UNL     1      -3.011   1.714  24.320  0.00  0.00    +0.064 C 
ATOM      6  C   UNL     1      -3.451   1.246  24.836  0.00  0.00    +0.079 C 
ENDROOT
BRANCH   5   7
ATOM      7  C   UNL     1      -2.595   2.397  24.520  0.00  0.00    +0.089 A 
ATOM      8  N   UNL     1      -2.921   3.097  24.811  0.00  0.00    -0.243 NA
ATOM      9  C   UNL     1      -2.306   3.632  24.935  0.00  0.00    +0.087 A 
ATOM     10  C   UNL     1      -1.600   3.264  24.720  0.00  0.00    +0.048 A 
ATOM     11  S   UNL     1      -1.778   2.501  24.463  0.00  0.00    -0.071 S 
ATOM     12  C   UNL     1      -0.886   3.673  24.786  0.00  0.00    +0.008 A 
ATOM     13  C   UNL     1      -0.878   4.448  25.067  0.00  0.00    +0.001 A 
ATOM     14  C   UNL     1      -1.584   4.816  25.282  0.00  0.00    +0.002 A 
ATOM     15  C   UNL     1      -2.299   4.408  25.216  0.00  0.00    +0.020 A 
ENDBRANCH   5   7
BRANCH   2   1
ATOM      1  C   UNL     1      -4.252   0.020  24.703  0.00  0.00    +0.106 C 
BRANCH   1  16
ATOM     16  C   UNL     1      -3.972  -0.755  24.732  0.00  0.00    +0.023 A 
ATOM     17  C   UNL     1      -4.078  -1.333  24.153  0.00  0.00    +0.004 A 
ATOM     18  C   UNL     1      -3.707  -2.024  24.410  0.00  0.00    +0.007 A 
ATOM     19  C   UNL     1      -3.371  -1.873  25.148  0.00  0.00    +0.035 A 
ATOM     20  S   UNL     1      -3.534  -1.089  25.347  0.00  0.00    -0.089 S 
ENDBRANCH   1  16
ENDBRANCH   2   1
TORSDOF 3
ENDMDL
MODEL 3
REMARK VINA RESULT:      -9.8      1.907      2.353
REMARK  Name = 
REMARK  3 active torsions:
REMARK  status: ('A' for Active; 'I' for Inactive)
REMARK    1  A    between atoms: C_1  and  N_2
REMARK    2  A    between atoms: C_1  and  C_16
REMARK    3  A    between atoms: C_5  and  C_7
REMARK                            x       y       z     vdW  Elec       q    Type
REMARK                         _______ _______ _______ _____ _____    ______ ____
ROOT
ATOM      2  N   UNL     1      -0.932   1.586  25.314  0.00  0.00    -0.268 NA
ATOM      3  C   UNL     1      -0.482   1.300  24.685  0.00  0.00    +0.073 C 
ATOM      4  C   UNL     1      -0.869   0.642  24.372  0.00  0.00    +0.025 C 
ATOM      5  C   UNL     1      -1.559   0.521  24.809  0.00  0.00    +0.064 C 
ATOM      6  C   UNL     1      -1.598   1.104  25.390  0.00  0.00    +0.079 C 
ENDROOT
BRANCH   5   7
ATOM      7  C   UNL     1      -2.113  -0.078  24.684  0.00  0.00    +0.089 A 
ATOM      8  N   UNL     1      -2.852   0.010  24.329  0.00  0.00    -0.243 NA
ATOM      9  C   UNL     1      -3.219  -0.727  24.319  0.00  0.00    +0.087 A 
ATOM     10  C   UNL     1      -2.708  -1.273  24.668  0.00  0.00    +0.048 A 
ATOM     11  S   UNL     1      -2.024  -0.872  24.894  0.00  0.00    -0.071 S 
ATOM     12  C   UNL     1      -2.932  -2.064  24.734  0.00  0.00    +0.008 A 
ATOM     13  C   UNL     1      -3.666  -2.310  24.452  0.00  0.00    +0.001 A 
ATOM     14  C   UNL     1      -4.178  -1.765  24.104  0.00  0.00    +0.002 A 
ATOM     15  C   UNL     1      -3.955  -0.974  24.037  0.00  0.00    +0.020 A 
ENDBRANCH   5   7
BRANCH   2   1
ATOM      1  C   UNL     1      -0.750   2.238  25.784  0.00  0.00    +0.106 C 
BRANCH   1  16
ATOM     16  C   UNL     1      -1.012   2.990  25.567  0.00  0.00    +0.023 A 
ATOM     17  C   UNL     1      -1.727   3.338  25.786  0.00  0.00    +0.004 A 
ATOM     18  C   UNL     1      -1.760   4.089  25.447  0.00  0.00    +0.007 A 
ATOM     19  C   UNL     1      -1.066   4.205  25.017  0.00  0.00    +0.035 A 
ATOM     20  S   UNL     1      -0.603   3.527  25.092  0.00  0.00    -0.089 S 
ENDBRANCH   1  16
ENDBRANCH   2   1
TORSDOF 3
ENDMDL
