MODEL 1
REMARK VINA RESULT:      -9.3      0.000      0.000
REMARK  Name = 
REMARK  5 active torsions:
REMARK  status: ('A' for Active; 'I' for Inactive)
REMARK    1  A    between atoms: C_2  and  C_5
REMARK    2  A    between atoms: C_5  and  N_6
REMARK    3  A    between atoms: N_6  and  C_7
REMARK    4  A    between atoms: C_10  and  C_11
REMARK    5  A    between atoms: C_11  and  N_12
REMARK                            x       y       z     vdW  Elec       q    Type
REMARK                         _______ _______ _______ _____ _____    ______ ____
ROOT
ATOM      7  C   UNL     1      -3.645   0.047  24.531  0.00  0.00    +0.135 C 
ATOM      8  C   UNL     1      -4.245   0.325  25.024  0.00  0.00    +0.162 C 
ATOM      9  O   UNL     1      -4.133   1.136  25.129  0.00  0.00    -0.350 OA
ATOM     10  C   UNL     1      -3.464   1.359  24.700  0.00  0.00    +0.169 C 
ATOM     21  C   UNL     1      -3.163   0.685  24.331  0.00  0.00    +0.199 C 
ATOM     22  O   UNL     1      -2.495   0.656  23.846  0.00  0.00    -0.219 OA
ENDROOT
BRANCH   7   6
ATOM      6  N   UNL     1      -3.545  -0.733  24.281  0.00  0.00    -0.214 NA
BRANCH   6   5
ATOM      5  C   UNL     1      -3.953  -1.342  24.659  0.00  0.00    +0.089 C 
BRANCH   5   2
ATOM      1  C   UNL     1      -3.682  -2.911  24.224  0.00  0.00    +0.001 C 
ATOM      2  C   UNL     1      -3.818  -2.126  24.442  0.00  0.00    +0.016 C 
ATOM      3  C   UNL     1      -4.282  -2.020  23.768  0.00  0.00    +0.001 C 
ATOM      4  C   UNL     1      -3.354  -2.233  25.115  0.00  0.00    +0.001 C 
ENDBRANCH   5   2
ENDBRANCH   6   5
ENDBRANCH   7   6
BRANCH  10  11
ATOM     11  C   UNL     1      -3.152   2.120  24.650  0.00  0.00    +0.149 C 
BRANCH  11  12
ATOM     12  N   UNL     1      -3.630   2.747  24.404  0.00  0.00    -0.186 NA
ATOM     13  C   UNL     1      -3.381   3.525  24.520  0.00  0.00    +0.323 C 
ATOM     14  O   UNL     1      -3.858   4.152  24.275  0.00  0.00    -0.251 OA
ATOM     15  N   UNL     1      -2.655   3.677  24.882  0.00  0.00    -0.258 N 
ATOM     16  C   UNL     1      -2.178   3.050  25.127  0.00  0.00    +0.127 C 
ATOM     17  C   UNL     1      -1.452   3.202  25.489  0.00  0.00    +0.164 C 
ATOM     18  O   UNL     1      -1.204   3.980  25.605  0.00  0.00    -0.350 OA
ATOM     19  C   UNL     1      -1.681   4.606  25.359  0.00  0.00    +0.164 C 
ATOM     20  C   UNL     1      -2.407   4.455  24.998  0.00  0.00    +0.127 C 
ENDBRANCH  11  12
ENDBRANCH  10  11
TORSDOF 5
ENDMDL
MODEL 2
REMARK VINA RESULT:      -8.7      1.572      5.261
REMARK  Name = 
REMARK  5 active torsions:
REMARK  status: ('A' for Active; 'I' for Inactive)
REMARK    1  A    between atoms: C_2  and  C_5
REMARK    2  A    between atoms: C_5  and  N_6
REMARK    3  A    between atoms: N_6  and  C_7
REMARK    4  A    between atoms: C_10  and  C_11
REMARK    5  A    between atoms: C_11  and  N_12
REMARK                            x       y       z     vdW  Elec       q    Type
REMARK                         _______ _______ _______ _____ _____    ______ ____
ROOT
ATOM      7  C   UNL     1      -1.482   2.208  25.075  0.00  0.00    +0.135 C 
ATOM      8  C   UNL     1      -0.998   1.891  25.663  0.00  0.00    +0.162 C 
ATOM      9  O   UNL     1      -1.083   1.070  25.648  0.00  0.00    -0.350 OA
ATOM     10  C   UNL     1      -1.619   0.880  25.051  0.00  0.00    +0.169 C 
ATOM     21  C   UNL     1      -1.866   1.584  24.697  0.00  0.00    +0.199 C 
ATOM     22  O   UNL     1      -2.402   1.651  24.073  0.00  0.00    -0.219 OA
ENDROOT
BRANCH   7   6
ATOM      6  N   UNL     1      -1.566   3.009  24.897  0.00  0.00    -0.214 NA
BRANCH   6   5
ATOM      5  C   UNL     1      -1.284   3.580  25.421  0.00  0.00    +0.089 C 
BRANCH   5   2
ATOM      1  C   UNL     1      -1.464   5.182  25.071  0.00  0.00    +0.001 C 
ATOM      2  C   UNL     1      -1.374   4.381  25.246  0.00  0.00    +0.016 C 
ATOM      3  C   UNL     1      -2.099   4.386  25.639  0.00  0.00    +0.001 C 
ATOM      4  C   UNL     1      -0.649   4.377  24.853  0.00  0.00    +0.001 C 
ENDBRANCH   5   2
ENDBRANCH   6   5
ENDBRANCH   7   6
BRANCH  10  11
ATOM     11  C   UNL     1      -1.867   0.121  24.844  0.00  0.00    +0.149 C 
BRANCH  11  12
ATOM     12  N   UNL     1      -1.316  -0.435  24.581  0.00  0.00    -0.186 NA
ATOM     13  C   UNL     1      -1.523  -1.232  24.542  0.00  0.00    +0.323 C 
ATOM     14  O   UNL     1      -0.972  -1.788  24.279  0.00  0.00    -0.251 OA
ATOM     15  N   UNL     1      -2.279  -1.475  24.766  0.00  0.00    -0.258 N 
ATOM     16  C   UNL     1      -2.829  -0.918  25.029  0.00  0.00    +0.127 C 
ATOM     17  C   UNL     1      -3.585  -1.161  25.254  0.00  0.00    +0.164 C 
ATOM     18  O   UNL     1      -3.790  -1.959  25.215  0.00  0.00    -0.350 OA
ATOM     19  C   UNL     1      -3.241  -2.514  24.952  0.00  0.00    +0.164 C 
ATOM     20  C   UNL     1      -2.484  -2.272  24.728  0.00  0.00    +0.127 C 
ENDBRANCH  11  12
ENDBRANCH  10  11
TORSDOF 5
ENDMDL
MODEL 3
REMARK VINA RESULT:      -8.2      1.273      2.027
REMARK  Name = 
REMARK  5 active torsions:
REMARK  status: ('A' for Active; 'I' for Inactive)
REMARK    1  A    between atoms: C_2  and  C_5
REMARK    2  A    between atoms: C_5  and  N_6
REMARK    3  A    between atoms: N_6  and  C_7
REMARK    4  A    between atoms: C_10  and  C_11
REMARK    5  A    between atoms: C_11  and  N_12
REMARK                            x       y       z     vdW  Elec       q    Type
REMARK                         _______ _______ _______ _____ _____    ______ ____
ROOT
ATOM      7  C   UNL     1      -3.814  -0.387  24.436  0.00  0.00    +0.135 C 
ATOM      8  C   UNL     1      -3.548  -0.058  23.727  0.00  0.00    +0.162 C 
ATOM      9  O   UNL     1      -3.598   0.764  23.793  0.00  0.00    -0.350 OA
ATOM     10  C   UNL     1      -3.895   0.942  24.542  0.00  0.00    +0.169 C 
ATOM     21  C   UNL     1      -4.029   0.230  24.939  0.00  0.00    +0.199 C 
ATOM     22  O   UNL     1      -4.325   0.151  25.705  0.00  0.00    -0.219 OA
ENDROOT
BRANCH   7   6
ATOM      6  N   UNL     1      -3.858  -1.192  24.610  0.00  0.00    -0.214 NA
BRANCH   6   5
ATOM      5  C   UNL     1      -3.472  -1.739  24.128  0.00  0.00    +0.089 C 
BRANCH   5   2
ATOM      1  C   UNL     1      -3.505  -3.344  24.512  0.00  0.00    +0.001 C 
ATOM      2  C   UNL     1      -3.488  -2.541  24.320  0.00  0.00    +0.016 C 
ATOM      3  C   UNL     1      -4.205  -2.623  23.920  0.00  0.00    +0.001 C 
ATOM      4  C   UNL     1      -2.771  -2.460  24.720  0.00  0.00    +0.001 C 
ENDBRANCH   5   2
ENDBRANCH   6   5
ENDBRANCH   7   6
BRANCH  10  11
ATOM     11  C   UNL     1      -4.035   1.697  24.841  0.00  0.00    +0.149 C 
BRANCH  11  12
ATOM     12  N   UNL     1      -3.471   2.292  24.741  0.00  0.00    -0.186 NA
ATOM     13  C   UNL     1      -3.664   3.075  24.909  0.00  0.00    +0.323 C 
ATOM     14  O   UNL     1      -3.101   3.670  24.808  0.00  0.00    -0.251 OA
ATOM     15  N   UNL     1      -4.421   3.266  25.177  0.00  0.00    -0.258 N 
ATOM     16  C   UNL     1      -4.985   2.671  25.277  0.00  0.00    +0.127 C 
ATOM     17  C   UNL     1      -5.741   2.862  25.545  0.00  0.00    +0.164 C 
ATOM     18  O   UNL     1      -5.934   3.646  25.713  0.00  0.00    -0.350 OA
ATOM     19  C   UNL     1      -5.371   4.240  25.613  0.00  0.00    +0.164 C 
ATOM     20  C   UNL     1      -4.614   4.050  25.345  0.00  0.00    +0.127 C 
ENDBRANCH  11  12
ENDBRANCH  10  11
TORSDOF 5
ENDMDL
MODEL 4
REMARK VINA RESULT:      -7.7      1.698      4.864
REMARK  Name = 
REMARK  5 active torsions:
REMARK  status: ('A' for Active; 'I' for Inactive)
REMARK    1  A    between atoms: C_2  and  C_5
REMARK    2  A    between atoms: C_5  and  N_6
REMARK    3  A    between atoms: N_6  and  C_7
REMARK    4  A    between atoms: C_10  and  C_11
REMARK    5  A    between atoms: C_11  and  N_12
REMARK                            x       y       z     vdW  Elec       q    Type
REMARK                         _______ _______ _______ _____ _____    ______ ____
ROOT
ATOM      7  C   UNL     1      -4.514   1.474  24.916  0.00  0.00    +0.135 C 
ATOM      8  C   UNL     1      -4.906   1.000  25.467  0.00  0.00    +0.162 C 
ATOM      9  O   UNL     1      -4.679   0.217  25.337  0.00  0.00    -0.350 OA
ATOM     10  C   UNL     1      -4.148   0.207  24.706  0.00  0.00    +0.169 C 
ATOM     21  C   UNL     1      -4.046   0.984  24.446  0.00  0.00    +0.199 C 
ATOM     22  O   UNL     1      -3.561   1.228  23.824  0.00  0.00    -0.219 OA
ENDROOT
BRANCH   7   6
ATOM      6  N   UNL     1      -4.580   2.293  24.847  0.00  0.00    -0.214 NA
BRANCH   6   5
ATOM      5  C   UNL     1      -4.691   2.756  25.522  0.00  0.00    +0.089 C 
BRANCH   5   2
ATOM      1  C   UNL     1      -4.839   4.393  25.383  0.00  0.00    +0.001 C 
ATOM      2  C   UNL     1      -4.765   3.574  25.453  0.00  0.00    +0.016 C 
ATOM      3  C   UNL     1      -3.949   3.656  25.545  0.00  0.00    +0.001 C 
ATOM      4  C   UNL     1      -5.581   3.493  25.361  0.00  0.00    +0.001 C 
ENDBRANCH   5   2
ENDBRANCH   6   5
ENDBRANCH   7   6
BRANCH  10  11
ATOM     11  C   UNL     1      -3.782  -0.461  24.390  0.00  0.00    +0.149 C 
BRANCH  11  12
ATOM     12  N   UNL     1      -4.239  -1.096  24.125  0.00  0.00    -0.186 NA
ATOM     13  C   UNL     1      -3.910  -1.849  24.079  0.00  0.00    +0.323 C 
ATOM     14  O   UNL     1      -4.367  -2.484  23.814  0.00  0.00    -0.251 OA
ATOM     15  N   UNL     1      -3.123  -1.971  24.298  0.00  0.00    -0.258 N 
ATOM     16  C   UNL     1      -2.667  -1.337  24.563  0.00  0.00    +0.127 C 
ATOM     17  C   UNL     1      -1.880  -1.459  24.781  0.00  0.00    +0.164 C 
ATOM     18  O   UNL     1      -1.551  -2.213  24.735  0.00  0.00    -0.350 OA
ATOM     19  C   UNL     1      -2.008  -2.847  24.470  0.00  0.00    +0.164 C 
ATOM     20  C   UNL     1      -2.794  -2.726  24.251  0.00  0.00    +0.127 C 
ENDBRANCH  11  12
ENDBRANCH  10  11
TORSDOF 5
ENDMDL
MODEL 5
REMARK VINA RESULT:      -7.3      2.533      3.929
REMARK  Name = 
REMARK  5 active torsions:
REMARK  status: ('A' for Active; 'I' for Inactive)
REMARK    1  A    between atoms: C_2  and  C_5
REMARK    2  A    between atoms: C_5  and  N_6
REMARK    3  A    between atoms: N_6  and  C_7
REMARK    4  A    between atoms: C_10  and  C_11
REMARK    5  A    between atoms: C_11  and  N_12
REMARK                            x       y       z     vdW  Elec       q    Type
REMARK                         _______ _______ _______ _____ _____    ______ ____
ROOT
ATOM      7  C   UNL     1      -3.292   1.937  24.636  0.00  0.00    +0.135 C 
ATOM      8  C   UNL     1      -3.121   2.442  24.006  0.00  0.00    +0.162 C 
ATOM      9  O   UNL     1      -2.332   2.327  23.794  0.00  0.00    -0.350 OA
ATOM     10  C   UNL     1      -2.015   1.752  24.293  0.00  0.00    +0.169 C 
ATOM     21  C   UNL     1      -2.609   1.511  24.813  0.00  0.00    +0.199 C 
ATOM     22  O   UNL     1      -2.532   0.943  25.407  0.00  0.00    -0.219 OA
ENDROOT
BRANCH   7   6
ATOM      6  N   UNL     1      -4.019   1.871  25.021  0.00  0.00    -0.214 NA
BRANCH   6   5
ATOM      5  C   UNL     1      -4.645   2.363  24.805  0.00  0.00    +0.089 C 
BRANCH   5   2
ATOM      1  C   UNL     1      -6.070   2.293  25.635  0.00  0.00    +0.001 C 
ATOM      2  C   UNL     1      -5.358   2.328  25.220  0.00  0.00    +0.016 C 
ATOM      3  C   UNL     1      -5.574   1.657  24.792  0.00  0.00    +0.001 C 
ATOM      4  C   UNL     1      -5.141   2.999  25.649  0.00  0.00    +0.001 C 
ENDBRANCH   5   2
ENDBRANCH   6   5
ENDBRANCH   7   6
BRANCH  10  11
ATOM     11  C   UNL     1      -1.241   1.467  24.275  0.00  0.00    +0.149 C 
BRANCH  11  12
ATOM     12  N   UNL     1      -0.610   1.974  24.435  0.00  0.00    -0.186 NA
ATOM     13  C   UNL     1       0.157   1.755  24.230  0.00  0.00    +0.323 C 
ATOM     14  O   UNL     1       0.788   2.262  24.390  0.00  0.00    -0.251 OA
ATOM     15  N   UNL     1       0.296   1.028  23.865  0.00  0.00    -0.258 N 
ATOM     16  C   UNL     1      -0.335   0.521  23.705  0.00  0.00    +0.127 C 
ATOM     17  C   UNL     1      -0.197  -0.206  23.339  0.00  0.00    +0.164 C 
ATOM     18  O   UNL     1       0.572  -0.425  23.135  0.00  0.00    -0.350 OA
ATOM     19  C   UNL     1       1.202   0.082  23.295  0.00  0.00    +0.164 C 
ATOM     20  C   UNL     1       1.064   0.809  23.660  0.00  0.00    +0.127 C 
ENDBRANCH  11  12
ENDBRANCH  10  11
TORSDOF 5
ENDMDL
MODEL 6
REMARK VINA RESULT:      -7.3      2.445      3.381
REMARK  Name = 
REMARK  5 active torsions:
REMARK  status: ('A' for Active; 'I' for Inactive)
REMARK    1  A    between atoms: C_2  and  C_5
REMARK    2  A    between atoms: C_5  and  N_6
REMARK    3  A    between atoms: N_6  and  C_7
REMARK    4  A    between atoms: C_10  and  C_11
REMARK    5  A    between atoms: C_11  and  N_12
REMARK                            x       y       z     vdW  Elec       q    Type
REMARK                         _______ _______ _______ _____ _____    ______ ____
ROOT
ATOM      7  C   UNL     1      -1.356   1.195  24.282  0.00  0.00    +0.135 C 
ATOM      8  C   UNL     1      -1.322   1.160  25.106  0.00  0.00    +0.162 C 
ATOM      9  O   UNL     1      -1.992   1.538  25.405  0.00  0.00    -0.350 OA
ATOM     10  C   UNL     1      -2.439   1.806  24.766  0.00  0.00    +0.169 C 
ATOM     21  C   UNL     1      -2.046   1.595  24.072  0.00  0.00    +0.199 C 
ATOM     22  O   UNL     1      -2.299   1.755  23.303  0.00  0.00    -0.219 OA
ENDROOT
BRANCH   7   6
ATOM      6  N   UNL     1      -0.797   0.886  23.760  0.00  0.00    -0.214 NA
BRANCH   6   5
ATOM      5  C   UNL     1      -0.147   0.469  24.052  0.00  0.00    +0.089 C 
BRANCH   5   2
ATOM      1  C   UNL     1       0.948  -0.187  23.006  0.00  0.00    +0.001 C 
ATOM      2  C   UNL     1       0.401   0.141  23.529  0.00  0.00    +0.016 C 
ATOM      3  C   UNL     1       0.759   0.879  23.441  0.00  0.00    +0.001 C 
ATOM      4  C   UNL     1       0.042  -0.597  23.616  0.00  0.00    +0.001 C 
ENDBRANCH   5   2
ENDBRANCH   6   5
ENDBRANCH   7   6
BRANCH  10  11
ATOM     11  C   UNL     1      -3.154   2.215  24.813  0.00  0.00    +0.149 C 
BRANCH  11  12
ATOM     12  N   UNL     1      -3.180   2.965  25.156  0.00  0.00    -0.186 NA
ATOM     13  C   UNL     1      -3.897   3.270  25.427  0.00  0.00    +0.323 C 
ATOM     14  O   UNL     1      -3.923   4.020  25.770  0.00  0.00    -0.251 OA
ATOM     15  N   UNL     1      -4.588   2.826  25.355  0.00  0.00    -0.258 N 
ATOM     16  C   UNL     1      -4.563   2.075  25.011  0.00  0.00    +0.127 C 
ATOM     17  C   UNL     1      -5.254   1.632  24.939  0.00  0.00    +0.164 C 
ATOM     18  O   UNL     1      -5.971   1.937  25.210  0.00  0.00    -0.350 OA
ATOM     19  C   UNL     1      -5.997   2.686  25.553  0.00  0.00    +0.164 C 
ATOM     20  C   UNL     1      -5.305   3.131  25.625  0.00  0.00    +0.127 C 
ENDBRANCH  11  12
ENDBRANCH  10  11
TORSDOF 5
ENDMDL
