MODEL 1
REMARK VINA RESULT:      -9.9      0.000      0.000
REMARK  Name = 
REMARK  7 active torsions:
REMARK  status: ('A' for Active; 'I' for Inactive)
REMARK    1  A    between atoms: C_2  and  N_3
REMARK    2  A    between atoms: N_3  and  C_4
REMARK    3  A    between atoms: C_6  and  C_8
REMARK    4  A    between atoms: C_8  and  C_9
REMARK    5  A    between atoms: C_9  and  C_10
REMARK    6  A    between atoms: C_17  and  N_20
REMARK    7  A    between atoms: N_23  and  C_24
REMARK                            x       y       z     vdW  Elec       q    Type
REMARK                         _______ _______ _______ _____ _____    ______ ____
ROOT
ATOM     10  C   UNL     1      -4.834   1.282  24.892  0.00  0.00    +0.080 C 
ATOM     11  C   UNL     1      -5.505   1.152  25.354  0.00  0.00    +0.131 C 
ATOM     12  N   UNL     1      -5.854   1.781  25.758  0.00  0.00    -0.203 NA
ATOM     13  C   UNL     1      -5.533   2.538  25.700  0.00  0.00    +0.256 C 
ATOM     14  O   UNL     1      -5.883   3.167  26.104  0.00  0.00    -0.272 OA
ATOM     15  C   UNL     1      -4.863   2.667  25.238  0.00  0.00    +0.138 C 
ATOM     16  C   UNL     1      -4.425   3.348  25.077  0.00  0.00    +0.049 C 
ATOM     17  C   UNL     1      -3.806   3.141  24.573  0.00  0.00    +0.115 C 
ATOM     18  C   UNL     1      -3.860   2.332  24.423  0.00  0.00    +0.094 C 
ATOM     19  N   UNL     1      -4.513   2.040  24.834  0.00  0.00    -0.265 NA
ENDROOT
BRANCH  17  20
ATOM     20  N   UNL     1      -3.233   3.653  24.273  0.00  0.00    -0.187 NA
ATOM     21  C   UNL     1      -2.572   3.845  24.727  0.00  0.00    +0.339 C 
ATOM     22  O   UNL     1      -2.484   3.524  25.483  0.00  0.00    -0.249 OA
ATOM     23  N   UNL     1      -1.999   4.357  24.427  0.00  0.00    -0.189 NA
BRANCH  23  24
ATOM     24  C   UNL     1      -1.338   4.548  24.881  0.00  0.00    +0.097 C 
ATOM     25  C   UNL     1      -0.711   4.014  24.945  0.00  0.00    +0.023 C 
ATOM     26  C   UNL     1      -1.302   5.273  25.273  0.00  0.00    +0.023 C 
ENDBRANCH  23  24
ENDBRANCH  17  20
BRANCH  10   9
ATOM      9  C   UNL     1      -4.485   0.653  24.487  0.00  0.00    +0.027 C 
BRANCH   9   8
ATOM      8  C   UNL     1      -4.328  -0.055  24.881  0.00  0.00    +0.087 C 
BRANCH   8   6
ATOM      3  N   UNL     1      -3.623  -1.297  24.855  0.00  0.00    -0.280 N 
ATOM      6  C   UNL     1      -4.042  -0.705  24.462  0.00  0.00    +0.226 C 
ATOM      7  O   UNL     1      -4.175  -0.764  23.650  0.00  0.00    -0.275 OA
BRANCH   3   2
ATOM      1  C   UNL     1      -3.614  -2.706  24.611  0.00  0.00    +0.023 C 
ATOM      2  C   UNL     1      -3.337  -1.948  24.436  0.00  0.00    +0.093 C 
ENDBRANCH   3   2
BRANCH   3   4
ATOM      4  C   UNL     1      -3.490  -1.239  25.667  0.00  0.00    +0.093 C 
ATOM      5  C   UNL     1      -2.735  -1.379  25.972  0.00  0.00    +0.023 C 
ENDBRANCH   3   4
ENDBRANCH   8   6
ENDBRANCH   9   8
ENDBRANCH  10   9
TORSDOF 7
ENDMDL
MODEL 2
REMARK VINA RESULT:      -9.5      1.018      4.729
REMARK  Name = 
REMARK  7 active torsions:
REMARK  status: ('A' for Active; 'I' for Inactive)
REMARK    1  A    between atoms: C_2  and  N_3
REMARK    2  A    between atoms: N_3  and  C_4
REMARK    3  A    between atoms: C_6  and  C_8
REMARK    4  A    between atoms: C_8  and  C_9
REMARK    5  A    between atoms: C_9  and  C_10
REMARK    6  A    between atoms: C_17  and  N_20
REMARK    7  A    between atoms: N_23  and  C_24
REMARK                            x       y       z     vdW  Elec       q    Type
REMARK                         _______ _______ _______ _____ _____    ______ ____
ROOT
ATOM     10  C   UNL     1      -3.803   2.184  24.460  0.00  0.00    +0.080 C 
ATOM     11  C   UNL     1      -4.357   2.782  24.334  0.00  0.00    +0.131 C 
ATOM     12  N   UNL     1      -5.153   2.647  24.502  0.00  0.00    -0.203 NA
ATOM     13  C   UNL     1      -5.395   1.915  24.797  0.00  0.00    +0.256 C 
ATOM     14  O   UNL     1      -6.192   1.782  24.965  0.00  0.00    -0.272 OA
ATOM     15  C   UNL     1      -4.841   1.318  24.923  0.00  0.00    +0.138 C 
ATOM     16  C   UNL     1      -4.914   0.547  25.206  0.00  0.00    +0.049 C 
ATOM     17  C   UNL     1      -4.164   0.205  25.213  0.00  0.00    +0.115 C 
ATOM     18  C   UNL     1      -3.626   0.764  24.934  0.00  0.00    +0.094 C 
ATOM     19  N   UNL     1      -4.045   1.452  24.755  0.00  0.00    -0.265 NA
ENDROOT
BRANCH  17  20
ATOM     20  N   UNL     1      -3.983  -0.563  25.456  0.00  0.00    -0.187 NA
ATOM     21  C   UNL     1      -3.769  -1.133  24.898  0.00  0.00    +0.339 C 
ATOM     22  O   UNL     1      -3.736  -0.934  24.098  0.00  0.00    -0.249 OA
ATOM     23  N   UNL     1      -3.588  -1.899  25.141  0.00  0.00    -0.189 NA
BRANCH  23  24
ATOM     24  C   UNL     1      -3.375  -2.469  24.584  0.00  0.00    +0.097 C 
ATOM     25  C   UNL     1      -3.958  -2.870  24.159  0.00  0.00    +0.023 C 
ATOM     26  C   UNL     1      -2.578  -2.638  24.451  0.00  0.00    +0.023 C 
ENDBRANCH  23  24
ENDBRANCH  17  20
BRANCH  10   9
ATOM      9  C   UNL     1      -3.006   2.319  24.292  0.00  0.00    +0.027 C 
BRANCH   9   8
ATOM      8  C   UNL     1      -2.650   3.027  24.521  0.00  0.00    +0.087 C 
BRANCH   8   6
ATOM      3  N   UNL     1      -1.448   3.741  24.811  0.00  0.00    -0.280 N 
ATOM      6  C   UNL     1      -1.839   3.133  24.414  0.00  0.00    +0.226 C 
ATOM      7  O   UNL     1      -1.419   2.633  23.910  0.00  0.00    -0.275 OA
BRANCH   3   2
ATOM      1  C   UNL     1      -0.109   3.639  25.304  0.00  0.00    +0.023 C 
ATOM      2  C   UNL     1      -0.636   3.849  24.704  0.00  0.00    +0.093 C 
ENDBRANCH   3   2
BRANCH   3   4
ATOM      4  C   UNL     1      -1.866   4.242  25.315  0.00  0.00    +0.093 C 
ATOM      5  C   UNL     1      -1.714   5.054  25.309  0.00  0.00    +0.023 C 
ENDBRANCH   3   4
ENDBRANCH   8   6
ENDBRANCH   9   8
ENDBRANCH  10   9
TORSDOF 7
ENDMDL
MODEL 3
REMARK VINA RESULT:      -8.8      2.426      3.728
REMARK  Name = 
REMARK  7 active torsions:
REMARK  status: ('A' for Active; 'I' for Inactive)
REMARK    1  A    between atoms: C_2  and  N_3
REMARK    2  A    between atoms: N_3  and  C_4
REMARK    3  A    between atoms: C_6  and  C_8
REMARK    4  A    between atoms: C_8  and  C_9
REMARK    5  A    between atoms: C_9  and  C_10
REMARK    6  A    between atoms: C_17  and  N_20
REMARK    7  A    between atoms: N_23  and  C_24
REMARK                            x       y       z     vdW  Elec       q    Type
REMARK                         _______ _______ _______ _____ _____    ______ ____
ROOT
ATOM     10  C   UNL     1      -0.676  -0.227  24.559  0.00  0.00    +0.080 C 
ATOM     11  C   UNL     1      -0.223  -0.563  23.957  0.00  0.00    +0.131 C 
ATOM     12  N   UNL     1       0.349  -0.110  23.571  0.00  0.00    -0.203 NA
ATOM     13  C   UNL     1       0.468   0.677  23.788  0.00  0.00    +0.256 C 
ATOM     14  O   UNL     1       1.041   1.128  23.401  0.00  0.00    -0.272 OA
ATOM     15  C   UNL     1       0.015   1.012  24.390  0.00  0.00    +0.138 C 
ATOM     16  C   UNL     1       0.008   1.767  24.720  0.00  0.00    +0.049 C 
ATOM     17  C   UNL     1      -0.568   1.783  25.310  0.00  0.00    +0.115 C 
ATOM     18  C   UNL     1      -0.918   1.037  25.344  0.00  0.00    +0.094 C 
ATOM     19  N   UNL     1      -0.557   0.560  24.775  0.00  0.00    -0.265 NA
ENDROOT
BRANCH  17  20
ATOM     20  N   UNL     1      -0.762   2.431  25.783  0.00  0.00    -0.187 NA
ATOM     21  C   UNL     1      -1.312   2.986  25.518  0.00  0.00    +0.339 C 
ATOM     22  O   UNL     1      -1.668   2.893  24.779  0.00  0.00    -0.249 OA
ATOM     23  N   UNL     1      -1.504   3.633  25.990  0.00  0.00    -0.189 NA
BRANCH  23  24
ATOM     24  C   UNL     1      -2.054   4.188  25.725  0.00  0.00    +0.097 C 
ATOM     25  C   UNL     1      -2.854   4.099  25.911  0.00  0.00    +0.023 C 
ATOM     26  C   UNL     1      -1.806   4.833  25.274  0.00  0.00    +0.023 C 
ENDBRANCH  23  24
ENDBRANCH  17  20
BRANCH  10   9
ATOM      9  C   UNL     1      -1.249  -0.679  24.945  0.00  0.00    +0.027 C 
BRANCH   9   8
ATOM      8  C   UNL     1      -1.866  -1.018  24.514  0.00  0.00    +0.087 C 
BRANCH   8   6
ATOM      3  N   UNL     1      -3.073  -1.777  24.595  0.00  0.00    -0.280 N 
ATOM      6  C   UNL     1      -2.294  -1.647  24.833  0.00  0.00    +0.226 C 
ATOM      7  O   UNL     1      -1.943  -2.146  25.388  0.00  0.00    -0.275 OA
BRANCH   3   2
ATOM      1  C   UNL     1      -3.769  -3.014  24.424  0.00  0.00    +0.023 C 
ATOM      2  C   UNL     1      -3.502  -2.407  24.914  0.00  0.00    +0.093 C 
ENDBRANCH   3   2
BRANCH   3   4
ATOM      4  C   UNL     1      -3.425  -1.279  24.040  0.00  0.00    +0.093 C 
ATOM      5  C   UNL     1      -4.207  -1.035  24.142  0.00  0.00    +0.023 C 
ENDBRANCH   3   4
ENDBRANCH   8   6
ENDBRANCH   9   8
ENDBRANCH  10   9
TORSDOF 7
ENDMDL
MODEL 4
REMARK VINA RESULT:      -8.7      2.427      5.842
REMARK  Name = 
REMARK  7 active torsions:
REMARK  status: ('A' for Active; 'I' for Inactive)
REMARK    1  A    between atoms: C_2  and  N_3
REMARK    2  A    between atoms: N_3  and  C_4
REMARK    3  A    between atoms: C_6  and  C_8
REMARK    4  A    between atoms: C_8  and  C_9
REMARK    5  A    between atoms: C_9  and  C_10
REMARK    6  A    between atoms: C_17  and  N_20
REMARK    7  A    between atoms: N_23  and  C_24
REMARK                            x       y       z     vdW  Elec       q    Type
REMARK                         _______ _______ _______ _____ _____    ______ ____
ROOT
ATOM     10  C   UNL     1      -0.303   1.245  24.658  0.00  0.00    +0.080 C 
ATOM     11  C   UNL     1       0.261   1.563  24.147  0.00  0.00    +0.131 C 
ATOM     12  N   UNL     1       0.645   1.075  23.603  0.00  0.00    -0.203 NA
ATOM     13  C   UNL     1       0.464   0.271  23.570  0.00  0.00    +0.256 C 
ATOM     14  O   UNL     1       0.848  -0.216  23.026  0.00  0.00    -0.272 OA
ATOM     15  C   UNL     1      -0.100  -0.046  24.081  0.00  0.00    +0.138 C 
ATOM     16  C   UNL     1      -0.392  -0.812  24.176  0.00  0.00    +0.049 C 
ATOM     17  C   UNL     1      -0.955  -0.798  24.779  0.00  0.00    +0.115 C 
ATOM     18  C   UNL     1      -1.012  -0.024  25.057  0.00  0.00    +0.094 C 
ATOM     19  N   UNL     1      -0.484   0.441  24.625  0.00  0.00    -0.265 NA
ENDROOT
BRANCH  17  20
ATOM     20  N   UNL     1      -1.385  -1.446  25.055  0.00  0.00    -0.187 NA
ATOM     21  C   UNL     1      -2.152  -1.579  24.780  0.00  0.00    +0.339 C 
ATOM     22  O   UNL     1      -2.487  -1.065  24.229  0.00  0.00    -0.249 OA
ATOM     23  N   UNL     1      -2.582  -2.226  25.057  0.00  0.00    -0.189 NA
BRANCH  23  24
ATOM     24  C   UNL     1      -3.348  -2.360  24.782  0.00  0.00    +0.097 C 
ATOM     25  C   UNL     1      -3.966  -1.869  25.025  0.00  0.00    +0.023 C 
ATOM     26  C   UNL     1      -3.498  -2.984  24.263  0.00  0.00    +0.023 C 
ENDBRANCH  23  24
ENDBRANCH  17  20
BRANCH  10   9
ATOM      9  C   UNL     1      -0.687   1.733  25.202  0.00  0.00    +0.027 C 
BRANCH   9   8
ATOM      8  C   UNL     1      -1.126   2.380  24.939  0.00  0.00    +0.087 C 
BRANCH   8   6
ATOM      3  N   UNL     1      -2.065   3.398  25.287  0.00  0.00    -0.280 N 
ATOM      6  C   UNL     1      -1.413   2.931  25.481  0.00  0.00    +0.226 C 
ATOM      7  O   UNL     1      -1.048   3.016  26.216  0.00  0.00    -0.275 OA
BRANCH   3   2
ATOM      1  C   UNL     1      -2.295   4.757  25.667  0.00  0.00    +0.023 C 
ATOM      2  C   UNL     1      -2.352   3.951  25.830  0.00  0.00    +0.093 C 
ENDBRANCH   3   2
BRANCH   3   4
ATOM      4  C   UNL     1      -2.430   3.314  24.552  0.00  0.00    +0.093 C 
ATOM      5  C   UNL     1      -3.253   3.340  24.496  0.00  0.00    +0.023 C 
ENDBRANCH   3   4
ENDBRANCH   8   6
ENDBRANCH   9   8
ENDBRANCH  10   9
TORSDOF 7
ENDMDL
MODEL 5
REMARK VINA RESULT:      -8.3      1.863      3.671
REMARK  Name = 
REMARK  7 active torsions:
REMARK  status: ('A' for Active; 'I' for Inactive)
REMARK    1  A    between atoms: C_2  and  N_3
REMARK    2  A    between atoms: N_3  and  C_4
REMARK    3  A    between atoms: C_6  and  C_8
REMARK    4  A    between atoms: C_8  and  C_9
REMARK    5  A    between atoms: C_9  and  C_10
REMARK    6  A    between atoms: C_17  and  N_20
REMARK    7  A    between atoms: N_23  and  C_24
REMARK                            x       y       z     vdW  Elec       q    Type
REMARK                         _______ _______ _______ _____ _____    ______ ____
ROOT
ATOM     10  C   UNL     1      -1.091   2.546  24.521  0.00  0.00    +0.080 C 
ATOM     11  C   UNL     1      -0.419   2.946  24.785  0.00  0.00    +0.131 C 
ATOM     12  N   UNL     1      -0.486   3.713  25.081  0.00  0.00    -0.203 NA
ATOM     13  C   UNL     1      -1.225   4.079  25.114  0.00  0.00    +0.256 C 
ATOM     14  O   UNL     1      -1.291   4.846  25.411  0.00  0.00    -0.272 OA
ATOM     15  C   UNL     1      -1.896   3.679  24.851  0.00  0.00    +0.138 C 
ATOM     16  C   UNL     1      -2.691   3.897  24.816  0.00  0.00    +0.049 C 
ATOM     17  C   UNL     1      -3.115   3.266  24.498  0.00  0.00    +0.115 C 
ATOM     18  C   UNL     1      -2.583   2.656  24.336  0.00  0.00    +0.094 C 
ATOM     19  N   UNL     1      -1.829   2.913  24.555  0.00  0.00    -0.265 NA
ENDROOT
BRANCH  17  20
ATOM     20  N   UNL     1      -3.929   3.246  24.365  0.00  0.00    -0.187 NA
ATOM     21  C   UNL     1      -4.419   2.813  24.868  0.00  0.00    +0.339 C 
ATOM     22  O   UNL     1      -4.095   2.399  25.504  0.00  0.00    -0.249 OA
ATOM     23  N   UNL     1      -5.233   2.793  24.734  0.00  0.00    -0.189 NA
BRANCH  23  24
ATOM     24  C   UNL     1      -5.723   2.360  25.237  0.00  0.00    +0.097 C 
ATOM     25  C   UNL     1      -6.012   1.625  24.999  0.00  0.00    +0.023 C 
ATOM     26  C   UNL     1      -5.924   2.662  25.978  0.00  0.00    +0.023 C 
ENDBRANCH  23  24
ENDBRANCH  17  20
BRANCH  10   9
ATOM      9  C   UNL     1      -1.024   1.779  24.225  0.00  0.00    +0.027 C 
BRANCH   9   8
ATOM      8  C   UNL     1      -0.792   1.163  24.722  0.00  0.00    +0.087 C 
BRANCH   8   6
ATOM      3  N   UNL     1      -0.799  -0.259  24.860  0.00  0.00    -0.280 N 
ATOM      6  C   UNL     1      -0.643   0.414  24.410  0.00  0.00    +0.226 C 
ATOM      7  O   UNL     1      -0.339   0.338  23.646  0.00  0.00    -0.275 OA
BRANCH   3   2
ATOM      1  C   UNL     1      -0.272  -1.580  25.007  0.00  0.00    +0.023 C 
ATOM      2  C   UNL     1      -0.650  -1.009  24.547  0.00  0.00    +0.093 C 
ENDBRANCH   3   2
BRANCH   3   4
ATOM      4  C   UNL     1      -1.103  -0.184  25.623  0.00  0.00    +0.093 C 
ATOM      5  C   UNL     1      -1.732  -0.661  25.864  0.00  0.00    +0.023 C 
ENDBRANCH   3   4
ENDBRANCH   8   6
ENDBRANCH   9   8
ENDBRANCH  10   9
TORSDOF 7
ENDMDL
MODEL 6
REMARK VINA RESULT:      -8.2      2.032      4.588
REMARK  Name = 
REMARK  7 active torsions:
REMARK  status: ('A' for Active; 'I' for Inactive)
REMARK    1  A    between atoms: C_2  and  N_3
REMARK    2  A    between atoms: N_3  and  C_4
REMARK    3  A    between atoms: C_6  and  C_8
REMARK    4  A    between atoms: C_8  and  C_9
REMARK    5  A    between atoms: C_9  and  C_10
REMARK    6  A    between atoms: C_17  and  N_20
REMARK    7  A    between atoms: N_23  and  C_24
REMARK                            x       y       z     vdW  Elec       q    Type
REMARK                         _______ _______ _______ _____ _____    ______ ____
ROOT
ATOM     10  C   UNL     1      -2.058   2.881  24.785  0.00  0.00    +0.080 C 
ATOM     11  C   UNL     1      -1.898   3.578  25.197  0.00  0.00    +0.131 C 
ATOM     12  N   UNL     1      -1.174   3.672  25.580  0.00  0.00    -0.203 NA
ATOM     13  C   UNL     1      -0.610   3.070  25.551  0.00  0.00    +0.256 C 
ATOM     14  O   UNL     1       0.114   3.165  25.935  0.00  0.00    -0.272 OA
ATOM     15  C   UNL     1      -0.771   2.374  25.139  0.00  0.00    +0.138 C 
ATOM     16  C   UNL     1      -0.326   1.690  25.015  0.00  0.00    +0.049 C 
ATOM     17  C   UNL     1      -0.776   1.174  24.555  0.00  0.00    +0.115 C 
ATOM     18  C   UNL     1      -1.498   1.537  24.395  0.00  0.00    +0.094 C 
ATOM     19  N   UNL     1      -1.495   2.280  24.756  0.00  0.00    -0.265 NA
ENDROOT
BRANCH  17  20
ATOM     20  N   UNL     1      -0.543   0.424  24.300  0.00  0.00    -0.187 NA
ATOM     21  C   UNL     1      -0.803  -0.248  24.703  0.00  0.00    +0.339 C 
ATOM     22  O   UNL     1      -1.295  -0.169  25.360  0.00  0.00    -0.249 OA
ATOM     23  N   UNL     1      -0.571  -0.997  24.448  0.00  0.00    -0.189 NA
BRANCH  23  24
ATOM     24  C   UNL     1      -0.830  -1.668  24.850  0.00  0.00    +0.097 C 
ATOM     25  C   UNL     1      -1.521  -2.052  24.610  0.00  0.00    +0.023 C 
ATOM     26  C   UNL     1      -0.401  -1.957  25.493  0.00  0.00    +0.023 C 
ENDBRANCH  23  24
ENDBRANCH  17  20
BRANCH  10   9
ATOM      9  C   UNL     1      -2.784   2.787  24.401  0.00  0.00    +0.027 C 
BRANCH   9   8
ATOM      8  C   UNL     1      -3.487   2.946  24.802  0.00  0.00    +0.087 C 
BRANCH   8   6
ATOM      3  N   UNL     1      -4.878   2.659  24.953  0.00  0.00    -0.280 N 
ATOM      6  C   UNL     1      -4.208   2.722  24.474  0.00  0.00    +0.226 C 
ATOM      7  O   UNL     1      -4.263   2.559  23.667  0.00  0.00    -0.275 OA
BRANCH   3   2
ATOM      1  C   UNL     1      -5.998   1.771  24.914  0.00  0.00    +0.023 C 
ATOM      2  C   UNL     1      -5.601   2.434  24.624  0.00  0.00    +0.093 C 
ENDBRANCH   3   2
BRANCH   3   4
ATOM      4  C   UNL     1      -4.825   2.821  25.760  0.00  0.00    +0.093 C 
ATOM      5  C   UNL     1      -5.424   3.248  26.134  0.00  0.00    +0.023 C 
ENDBRANCH   3   4
ENDBRANCH   8   6
ENDBRANCH   9   8
ENDBRANCH  10   9
TORSDOF 7
ENDMDL
