MODEL 1
REMARK VINA RESULT:     -13.1      0.000      0.000
REMARK  Name = 
REMARK  6 active torsions:
REMARK  status: ('A' for Active; 'I' for Inactive)
REMARK    1  A    between atoms: C_2  and  C_4
REMARK    2  A    between atoms: C_4  and  S_5
REMARK    3  A    between atoms: S_5  and  C_6
REMARK    4  A    between atoms: C_6  and  C_7
REMARK    5  A    between atoms: C_18  and  C_23
REMARK    6  A    between atoms: C_25  and  C_29
REMARK                            x       y       z     vdW  Elec       q    Type
REMARK                         _______ _______ _______ _____ _____    ______ ____
ROOT
ATOM      7  C   UNL     1      -2.641   1.597  24.235  0.00  0.00    +0.237 C 
ATOM      8  O   UNL     1      -3.065   0.944  24.509  0.00  0.00    -0.274 OA
ATOM      9  N   UNL     1      -2.993   2.344  24.228  0.00  0.00    -0.278 N 
ATOM     10  C   UNL     1      -3.073   3.166  24.107  0.00  0.00    +0.095 C 
ATOM     11  C   UNL     1      -4.000   3.292  24.424  0.00  0.00    +0.043 C 
ATOM     12  C   UNL     1      -4.737   3.558  24.646  0.00  0.00    +0.011 C 
ATOM     13  C   UNL     1      -4.389   2.949  24.629  0.00  0.00    +0.058 C 
ATOM     14  C   UNL     1      -3.492   2.844  24.319  0.00  0.00    +0.099 C 
ATOM     15  C   UNL     1      -4.487   2.057  24.828  0.00  0.00    +0.041 A 
ATOM     16  C   UNL     1      -5.041   1.525  25.129  0.00  0.00    +0.013 A 
ATOM     17  C   UNL     1      -4.847   0.727  25.203  0.00  0.00    +0.006 A 
ATOM     18  C   UNL     1      -4.100   0.460  24.977  0.00  0.00    +0.056 A 
ATOM     19  C   UNL     1      -3.546   0.992  24.677  0.00  0.00    +0.261 A 
ATOM     20  O   UNL     1      -2.899   0.502  24.529  0.00  0.00    -0.267 OA
ATOM     21  N   UNL     1      -3.739   1.791  24.602  0.00  0.00    -0.299 N 
ATOM     22  C   UNL     1      -4.093   2.358  24.629  0.00  0.00    +0.110 C 
ENDROOT
BRANCH  18  23
ATOM     23  C   UNL     1      -3.907  -0.338  25.052  0.00  0.00    +0.005 A 
ATOM     24  C   UNL     1      -4.106  -0.868  24.452  0.00  0.00    +0.010 A 
ATOM     25  C   UNL     1      -3.914  -1.667  24.526  0.00  0.00    +0.068 A 
ATOM     26  C   UNL     1      -3.522  -1.936  25.200  0.00  0.00    +0.010 A 
ATOM     27  C   UNL     1      -3.323  -1.406  25.801  0.00  0.00    +0.001 A 
ATOM     28  C   UNL     1      -3.515  -0.607  25.726  0.00  0.00    +0.000 A 
BRANCH  25  29
ATOM     29  C   UNL     1      -4.113  -2.197  23.926  0.00  0.00    +0.100 C 
ATOM     30  N   UNL     1      -4.313  -2.727  23.326  0.00  0.00    -0.191 NA
ENDBRANCH  25  29
ENDBRANCH  18  23
BRANCH   7   6
ATOM      6  C   UNL     1      -1.867   1.504  23.967  0.00  0.00    +0.143 C 
BRANCH   6   5
ATOM      5  S   UNL     1      -1.234   1.700  24.459  0.00  0.00    -0.119 S 
BRANCH   5   4
ATOM      4  C   UNL     1      -0.464   1.492  24.245  0.00  0.00    +0.172 C 
BRANCH   4   2
ATOM      1  O   UNL     1       0.866   2.012  24.219  0.00  0.00    -0.245 OA
ATOM      2  C   UNL     1       0.178   1.831  24.637  0.00  0.00    +0.376 C 
ATOM      3  O   UNL     1       0.132   1.989  25.446  0.00  0.00    -0.245 OA
ENDBRANCH   4   2
ENDBRANCH   5   4
ENDBRANCH   6   5
ENDBRANCH   7   6
TORSDOF 6
ENDMDL
MODEL 2
REMARK VINA RESULT:     -12.9      1.293      3.472
REMARK  Name = 
REMARK  6 active torsions:
REMARK  status: ('A' for Active; 'I' for Inactive)
REMARK    1  A    between atoms: C_2  and  C_4
REMARK    2  A    between atoms: C_4  and  S_5
REMARK    3  A    between atoms: S_5  and  C_6
REMARK    4  A    between atoms: C_6  and  C_7
REMARK    5  A    between atoms: C_18  and  C_23
REMARK    6  A    between atoms: C_25  and  C_29
REMARK                            x       y       z     vdW  Elec       q    Type
REMARK                         _______ _______ _______ _____ _____    ______ ____
ROOT
ATOM      7  C   UNL     1      -2.113  -0.031  25.054  0.00  0.00    +0.237 C 
ATOM      8  O   UNL     1      -2.816   0.358  24.863  0.00  0.00    -0.274 OA
ATOM      9  N   UNL     1      -2.067  -0.853  24.994  0.00  0.00    -0.278 N 
ATOM     10  C   UNL     1      -1.736  -1.619  25.031  0.00  0.00    +0.095 C 
ATOM     11  C   UNL     1      -2.514  -2.150  24.731  0.00  0.00    +0.043 C 
ATOM     12  C   UNL     1      -3.050  -2.719  24.506  0.00  0.00    +0.011 C 
ATOM     13  C   UNL     1      -3.033  -2.021  24.575  0.00  0.00    +0.058 C 
ATOM     14  C   UNL     1      -2.273  -1.522  24.866  0.00  0.00    +0.099 C 
ATOM     15  C   UNL     1      -3.558  -1.274  24.474  0.00  0.00    +0.041 A 
ATOM     16  C   UNL     1      -4.320  -1.052  24.248  0.00  0.00    +0.013 A 
ATOM     17  C   UNL     1      -4.535  -0.256  24.251  0.00  0.00    +0.006 A 
ATOM     18  C   UNL     1      -3.989   0.319  24.480  0.00  0.00    +0.056 A 
ATOM     19  C   UNL     1      -3.228   0.097  24.706  0.00  0.00    +0.261 A 
ATOM     20  O   UNL     1      -2.882   0.824  24.884  0.00  0.00    -0.267 OA
ATOM     21  N   UNL     1      -3.012  -0.699  24.703  0.00  0.00    -0.299 N 
ATOM     22  C   UNL     1      -3.055  -1.363  24.628  0.00  0.00    +0.110 C 
ENDROOT
BRANCH  18  23
ATOM     23  C   UNL     1      -4.205   1.115  24.483  0.00  0.00    +0.005 A 
ATOM     24  C   UNL     1      -4.666   1.414  25.099  0.00  0.00    +0.010 A 
ATOM     25  C   UNL     1      -4.882   2.210  25.102  0.00  0.00    +0.068 A 
ATOM     26  C   UNL     1      -4.639   2.706  24.490  0.00  0.00    +0.010 A 
ATOM     27  C   UNL     1      -4.178   2.408  23.874  0.00  0.00    +0.001 A 
ATOM     28  C   UNL     1      -3.962   1.611  23.871  0.00  0.00    +0.000 A 
BRANCH  25  29
ATOM     29  C   UNL     1      -5.343   2.510  25.718  0.00  0.00    +0.100 C 
ATOM     30  N   UNL     1      -5.803   2.810  26.334  0.00  0.00    -0.191 NA
ENDBRANCH  25  29
ENDBRANCH  18  23
BRANCH   7   6
ATOM      6  C   UNL     1      -1.458   0.402  25.306  0.00  0.00    +0.143 C 
BRANCH   6   5
ATOM      5  S   UNL     1      -0.916   0.688  24.753  0.00  0.00    -0.119 S 
BRANCH   5   4
ATOM      4  C   UNL     1      -0.295   1.174  24.997  0.00  0.00    +0.172 C 
BRANCH   4   2
ATOM      1  O   UNL     1       0.163   2.398  24.418  0.00  0.00    -0.245 OA
ATOM      2  C   UNL     1       0.161   1.572  24.437  0.00  0.00    +0.376 C 
ATOM      3  O   UNL     1       0.615   1.146  23.895  0.00  0.00    -0.245 OA
ENDBRANCH   4   2
ENDBRANCH   5   4
ENDBRANCH   6   5
ENDBRANCH   7   6
TORSDOF 6
ENDMDL
MODEL 3
REMARK VINA RESULT:     -12.4      1.674      4.347
REMARK  Name = 
REMARK  6 active torsions:
REMARK  status: ('A' for Active; 'I' for Inactive)
REMARK    1  A    between atoms: C_2  and  C_4
REMARK    2  A    between atoms: C_4  and  S_5
REMARK    3  A    between atoms: S_5  and  C_6
REMARK    4  A    between atoms: C_6  and  C_7
REMARK    5  A    between atoms: C_18  and  C_23
REMARK    6  A    between atoms: C_25  and  C_29
REMARK                            x       y       z     vdW  Elec       q    Type
REMARK                         _______ _______ _______ _____ _____    ______ ____
ROOT
ATOM      7  C   UNL     1      -3.351   0.262  24.277  0.00  0.00    +0.237 C 
ATOM      8  O   UNL     1      -2.542   0.364  24.405  0.00  0.00    -0.274 OA
ATOM      9  N   UNL     1      -3.688  -0.489  24.342  0.00  0.00    -0.278 N 
ATOM     10  C   UNL     1      -4.276  -1.083  24.336  0.00  0.00    +0.095 C 
ATOM     11  C   UNL     1      -3.721  -1.867  24.567  0.00  0.00    +0.043 C 
ATOM     12  C   UNL     1      -3.411  -2.599  24.746  0.00  0.00    +0.011 C 
ATOM     13  C   UNL     1      -3.179  -1.940  24.677  0.00  0.00    +0.058 C 
ATOM     14  C   UNL     1      -3.728  -1.192  24.453  0.00  0.00    +0.099 C 
ATOM     15  C   UNL     1      -2.413  -1.436  24.731  0.00  0.00    +0.041 A 
ATOM     16  C   UNL     1      -1.607  -1.511  24.889  0.00  0.00    +0.013 A 
ATOM     17  C   UNL     1      -1.118  -0.847  24.865  0.00  0.00    +0.006 A 
ATOM     18  C   UNL     1      -1.436  -0.107  24.684  0.00  0.00    +0.056 A 
ATOM     19  C   UNL     1      -2.242  -0.032  24.526  0.00  0.00    +0.261 A 
ATOM     20  O   UNL     1      -2.313   0.776  24.377  0.00  0.00    -0.267 OA
ATOM     21  N   UNL     1      -2.730  -0.696  24.549  0.00  0.00    -0.299 N 
ATOM     22  C   UNL     1      -2.925  -1.333  24.621  0.00  0.00    +0.110 C 
ENDROOT
BRANCH  18  23
ATOM     23  C   UNL     1      -0.947   0.557  24.661  0.00  0.00    +0.005 A 
ATOM     24  C   UNL     1      -0.812   0.993  25.348  0.00  0.00    +0.010 A 
ATOM     25  C   UNL     1      -0.323   1.657  25.326  0.00  0.00    +0.068 A 
ATOM     26  C   UNL     1       0.031   1.885  24.616  0.00  0.00    +0.010 A 
ATOM     27  C   UNL     1      -0.104   1.449  23.928  0.00  0.00    +0.001 A 
ATOM     28  C   UNL     1      -0.594   0.785  23.951  0.00  0.00    +0.000 A 
BRANCH  25  29
ATOM     29  C   UNL     1      -0.187   2.093  26.013  0.00  0.00    +0.100 C 
ATOM     30  N   UNL     1      -0.051   2.529  26.700  0.00  0.00    -0.191 NA
ENDBRANCH  25  29
ENDBRANCH  18  23
BRANCH   7   6
ATOM      6  C   UNL     1      -3.824   0.909  24.083  0.00  0.00    +0.143 C 
BRANCH   6   5
ATOM      5  S   UNL     1      -4.255   1.296  24.671  0.00  0.00    -0.119 S 
BRANCH   5   4
ATOM      4  C   UNL     1      -4.687   1.975  24.486  0.00  0.00    +0.172 C 
BRANCH   4   2
ATOM      1  O   UNL     1      -4.865   2.958  25.508  0.00  0.00    -0.245 OA
ATOM      2  C   UNL     1      -5.160   2.330  25.061  0.00  0.00    +0.376 C 
ATOM      3  O   UNL     1      -5.929   2.059  25.189  0.00  0.00    -0.245 OA
ENDBRANCH   4   2
ENDBRANCH   5   4
ENDBRANCH   6   5
ENDBRANCH   7   6
TORSDOF 6
ENDMDL
MODEL 4
REMARK VINA RESULT:     -12.4      1.626      3.797
REMARK  Name = 
REMARK  6 active torsions:
REMARK  status: ('A' for Active; 'I' for Inactive)
REMARK    1  A    between atoms: C_2  and  C_4
REMARK    2  A    between atoms: C_4  and  S_5
REMARK    3  A    between atoms: S_5  and  C_6
REMARK    4  A    between atoms: C_6  and  C_7
REMARK    5  A    between atoms: C_18  and  C_23
REMARK    6  A    between atoms: C_25  and  C_29
REMARK                            x       y       z     vdW  Elec       q    Type
REMARK                         _______ _______ _______ _____ _____    ______ ____
ROOT
ATOM      7  C   UNL     1      -3.768   1.471  24.682  0.00  0.00    +0.237 C 
ATOM      8  O   UNL     1      -3.132   1.984  24.802  0.00  0.00    -0.274 OA
ATOM      9  N   UNL     1      -4.533   1.711  24.874  0.00  0.00    -0.278 N 
ATOM     10  C   UNL     1      -5.363   1.671  24.965  0.00  0.00    +0.095 C 
ATOM     11  C   UNL     1      -5.533   2.570  25.338  0.00  0.00    +0.043 C 
ATOM     12  C   UNL     1      -5.835   3.261  25.646  0.00  0.00    +0.011 C 
ATOM     13  C   UNL     1      -5.207   3.004  25.466  0.00  0.00    +0.058 C 
ATOM     14  C   UNL     1      -5.059   2.132  25.106  0.00  0.00    +0.099 C 
ATOM     15  C   UNL     1      -4.316   3.230  25.440  0.00  0.00    +0.041 A 
ATOM     16  C   UNL     1      -3.809   3.855  25.619  0.00  0.00    +0.013 A 
ATOM     17  C   UNL     1      -2.998   3.778  25.486  0.00  0.00    +0.006 A 
ATOM     18  C   UNL     1      -2.696   3.077  25.173  0.00  0.00    +0.056 A 
ATOM     19  C   UNL     1      -3.203   2.453  24.994  0.00  0.00    +0.261 A 
ATOM     20  O   UNL     1      -2.681   1.884  24.705  0.00  0.00    -0.267 OA
ATOM     21  N   UNL     1      -4.014   2.529  25.127  0.00  0.00    -0.299 N 
ATOM     22  C   UNL     1      -4.600   2.797  25.307  0.00  0.00    +0.110 C 
ENDROOT
BRANCH  18  23
ATOM     23  C   UNL     1      -1.885   3.002  25.040  0.00  0.00    +0.005 A 
ATOM     24  C   UNL     1      -1.379   2.828  25.668  0.00  0.00    +0.010 A 
ATOM     25  C   UNL     1      -0.568   2.753  25.536  0.00  0.00    +0.068 A 
ATOM     26  C   UNL     1      -0.264   2.851  24.776  0.00  0.00    +0.010 A 
ATOM     27  C   UNL     1      -0.769   3.024  24.147  0.00  0.00    +0.001 A 
ATOM     28  C   UNL     1      -1.581   3.100  24.280  0.00  0.00    +0.000 A 
BRANCH  25  29
ATOM     29  C   UNL     1      -0.062   2.579  26.164  0.00  0.00    +0.100 C 
ATOM     30  N   UNL     1       0.445   2.406  26.792  0.00  0.00    -0.191 NA
ENDBRANCH  25  29
ENDBRANCH  18  23
BRANCH   7   6
ATOM      6  C   UNL     1      -3.637   0.718  24.372  0.00  0.00    +0.143 C 
BRANCH   6   5
ATOM      5  S   UNL     1      -3.636   0.060  24.870  0.00  0.00    -0.119 S 
BRANCH   5   4
ATOM      4  C   UNL     1      -3.399  -0.676  24.582  0.00  0.00    +0.172 C 
BRANCH   4   2
ATOM      1  O   UNL     1      -3.943  -1.996  24.626  0.00  0.00    -0.245 OA
ATOM      2  C   UNL     1      -3.577  -1.361  25.005  0.00  0.00    +0.376 C 
ATOM      3  O   UNL     1      -3.390  -1.411  25.808  0.00  0.00    -0.245 OA
ENDBRANCH   4   2
ENDBRANCH   5   4
ENDBRANCH   6   5
ENDBRANCH   7   6
TORSDOF 6
ENDMDL
MODEL 5
REMARK VINA RESULT:     -11.8      2.265      3.180
REMARK  Name = 
REMARK  6 active torsions:
REMARK  status: ('A' for Active; 'I' for Inactive)
REMARK    1  A    between atoms: C_2  and  C_4
REMARK    2  A    between atoms: C_4  and  S_5
REMARK    3  A    between atoms: S_5  and  C_6
REMARK    4  A    between atoms: C_6  and  C_7
REMARK    5  A    between atoms: C_18  and  C_23
REMARK    6  A    between atoms: C_25  and  C_29
REMARK                            x       y       z     vdW  Elec       q    Type
REMARK                         _______ _______ _______ _____ _____    ______ ____
ROOT
ATOM      7  C   UNL     1      -1.760   2.295  25.344  0.00  0.00    +0.237 C 
ATOM      8  O   UNL     1      -2.563   2.411  25.193  0.00  0.00    -0.274 OA
ATOM      9  N   UNL     1      -1.240   2.936  25.327  0.00  0.00    -0.278 N 
ATOM     10  C   UNL     1      -0.521   3.357  25.377  0.00  0.00    +0.095 C 
ATOM     11  C   UNL     1      -0.847   4.268  25.177  0.00  0.00    +0.043 C 
ATOM     12  C   UNL     1      -0.953   5.063  25.031  0.00  0.00    +0.011 C 
ATOM     13  C   UNL     1      -1.348   4.483  25.059  0.00  0.00    +0.058 C 
ATOM     14  C   UNL     1      -1.017   3.609  25.255  0.00  0.00    +0.099 C 
ATOM     15  C   UNL     1      -2.216   4.197  24.963  0.00  0.00    +0.041 A 
ATOM     16  C   UNL     1      -2.970   4.484  24.792  0.00  0.00    +0.013 A 
ATOM     17  C   UNL     1      -3.613   3.968  24.769  0.00  0.00    +0.006 A 
ATOM     18  C   UNL     1      -3.502   3.164  24.917  0.00  0.00    +0.056 A 
ATOM     19  C   UNL     1      -2.748   2.876  25.088  0.00  0.00    +0.261 A 
ATOM     20  O   UNL     1      -2.891   2.071  25.194  0.00  0.00    -0.267 OA
ATOM     21  N   UNL     1      -2.105   3.393  25.111  0.00  0.00    -0.299 N 
ATOM     22  C   UNL     1      -1.751   3.960  25.077  0.00  0.00    +0.110 C 
ENDROOT
BRANCH  18  23
ATOM     23  C   UNL     1      -4.145   2.648  24.895  0.00  0.00    +0.005 A 
ATOM     24  C   UNL     1      -4.675   2.623  25.526  0.00  0.00    +0.010 A 
ATOM     25  C   UNL     1      -5.319   2.107  25.504  0.00  0.00    +0.068 A 
ATOM     26  C   UNL     1      -5.432   1.617  24.851  0.00  0.00    +0.010 A 
ATOM     27  C   UNL     1      -4.902   1.641  24.219  0.00  0.00    +0.001 A 
ATOM     28  C   UNL     1      -4.258   2.157  24.241  0.00  0.00    +0.000 A 
BRANCH  25  29
ATOM     29  C   UNL     1      -5.850   2.082  26.136  0.00  0.00    +0.100 C 
ATOM     30  N   UNL     1      -6.380   2.057  26.767  0.00  0.00    -0.191 NA
ENDBRANCH  25  29
ENDBRANCH  18  23
BRANCH   7   6
ATOM      6  C   UNL     1      -1.476   1.539  25.513  0.00  0.00    +0.143 C 
BRANCH   6   5
ATOM      5  S   UNL     1      -1.145   1.080  24.913  0.00  0.00    -0.119 S 
BRANCH   5   4
ATOM      4  C   UNL     1      -0.832   0.336  25.088  0.00  0.00    +0.172 C 
BRANCH   4   2
ATOM      1  O   UNL     1      -0.974  -0.896  24.378  0.00  0.00    -0.245 OA
ATOM      2  C   UNL     1      -0.600  -0.167  24.477  0.00  0.00    +0.376 C 
ATOM      3  O   UNL     1       0.007   0.058  23.964  0.00  0.00    -0.245 OA
ENDBRANCH   4   2
ENDBRANCH   5   4
ENDBRANCH   6   5
ENDBRANCH   7   6
TORSDOF 6
ENDMDL
MODEL 6
REMARK VINA RESULT:     -11.7      1.777      2.358
REMARK  Name = 
REMARK  6 active torsions:
REMARK  status: ('A' for Active; 'I' for Inactive)
REMARK    1  A    between atoms: C_2  and  C_4
REMARK    2  A    between atoms: C_4  and  S_5
REMARK    3  A    between atoms: S_5  and  C_6
REMARK    4  A    between atoms: C_6  and  C_7
REMARK    5  A    between atoms: C_18  and  C_23
REMARK    6  A    between atoms: C_25  and  C_29
REMARK                            x       y       z     vdW  Elec       q    Type
REMARK                         _______ _______ _______ _____ _____    ______ ____
ROOT
ATOM      7  C   UNL     1      -2.830   2.413  25.374  0.00  0.00    +0.237 C 
ATOM      8  O   UNL     1      -2.568   1.646  25.217  0.00  0.00    -0.274 OA
ATOM      9  N   UNL     1      -3.615   2.620  25.222  0.00  0.00    -0.278 N 
ATOM     10  C   UNL     1      -4.301   3.095  25.177  0.00  0.00    +0.095 C 
ATOM     11  C   UNL     1      -4.936   2.434  24.808  0.00  0.00    +0.043 C 
ATOM     12  C   UNL     1      -5.570   2.018  24.511  0.00  0.00    +0.011 C 
ATOM     13  C   UNL     1      -4.895   1.898  24.659  0.00  0.00    +0.058 C 
ATOM     14  C   UNL     1      -4.293   2.548  25.016  0.00  0.00    +0.099 C 
ATOM     15  C   UNL     1      -4.258   1.236  24.635  0.00  0.00    +0.041 A 
ATOM     16  C   UNL     1      -4.166   0.444  24.425  0.00  0.00    +0.013 A 
ATOM     17  C   UNL     1      -3.433   0.076  24.515  0.00  0.00    +0.006 A 
ATOM     18  C   UNL     1      -2.792   0.501  24.815  0.00  0.00    +0.056 A 
ATOM     19  C   UNL     1      -2.885   1.293  25.026  0.00  0.00    +0.261 A 
ATOM     20  O   UNL     1      -2.129   1.489  25.290  0.00  0.00    -0.267 OA
ATOM     21  N   UNL     1      -3.618   1.660  24.936  0.00  0.00    -0.299 N 
ATOM     22  C   UNL     1      -4.264   1.749  24.786  0.00  0.00    +0.110 C 
ENDROOT
BRANCH  18  23
ATOM     23  C   UNL     1      -2.060   0.132  24.905  0.00  0.00    +0.005 A 
ATOM     24  C   UNL     1      -1.496   0.184  24.305  0.00  0.00    +0.010 A 
ATOM     25  C   UNL     1      -0.764  -0.184  24.393  0.00  0.00    +0.068 A 
ATOM     26  C   UNL     1      -0.594  -0.604  25.083  0.00  0.00    +0.010 A 
ATOM     27  C   UNL     1      -1.157  -0.656  25.684  0.00  0.00    +0.001 A 
ATOM     28  C   UNL     1      -1.891  -0.288  25.594  0.00  0.00    +0.000 A 
BRANCH  25  29
ATOM     29  C   UNL     1      -0.200  -0.132  23.793  0.00  0.00    +0.100 C 
ATOM     30  N   UNL     1       0.364  -0.080  23.192  0.00  0.00    -0.191 NA
ENDBRANCH  25  29
ENDBRANCH  18  23
BRANCH   7   6
ATOM      6  C   UNL     1      -2.309   2.972  25.683  0.00  0.00    +0.143 C 
BRANCH   6   5
ATOM      5  S   UNL     1      -1.949   3.521  25.182  0.00  0.00    -0.119 S 
BRANCH   5   4
ATOM      4  C   UNL     1      -1.389   4.048  25.482  0.00  0.00    +0.172 C 
BRANCH   4   2
ATOM      1  O   UNL     1      -0.527   4.454  24.417  0.00  0.00    -0.245 OA
ATOM      2  C   UNL     1      -1.082   4.642  24.998  0.00  0.00    +0.376 C 
ATOM      3  O   UNL     1      -1.330   5.423  25.096  0.00  0.00    -0.245 OA
ENDBRANCH   4   2
ENDBRANCH   5   4
ENDBRANCH   6   5
ENDBRANCH   7   6
TORSDOF 6
ENDMDL
MODEL 7
REMARK VINA RESULT:     -11.6      1.465      2.953
REMARK  Name = 
REMARK  6 active torsions:
REMARK  status: ('A' for Active; 'I' for Inactive)
REMARK    1  A    between atoms: C_2  and  C_4
REMARK    2  A    between atoms: C_4  and  S_5
REMARK    3  A    between atoms: S_5  and  C_6
REMARK    4  A    between atoms: C_6  and  C_7
REMARK    5  A    between atoms: C_18  and  C_23
REMARK    6  A    between atoms: C_25  and  C_29
REMARK                            x       y       z     vdW  Elec       q    Type
REMARK                         _______ _______ _______ _____ _____    ______ ____
ROOT
ATOM      7  C   UNL     1      -3.177   1.761  24.546  0.00  0.00    +0.237 C 
ATOM      8  O   UNL     1      -3.026   0.976  24.752  0.00  0.00    -0.274 OA
ATOM      9  N   UNL     1      -2.550   2.279  24.404  0.00  0.00    -0.278 N 
ATOM     10  C   UNL     1      -2.154   2.989  24.214  0.00  0.00    +0.095 C 
ATOM     11  C   UNL     1      -1.218   2.682  24.288  0.00  0.00    +0.043 C 
ATOM     12  C   UNL     1      -0.408   2.589  24.306  0.00  0.00    +0.011 C 
ATOM     13  C   UNL     1      -0.979   2.194  24.415  0.00  0.00    +0.058 C 
ATOM     14  C   UNL     1      -1.878   2.506  24.339  0.00  0.00    +0.099 C 
ATOM     15  C   UNL     1      -1.232   1.340  24.642  0.00  0.00    +0.041 A 
ATOM     16  C   UNL     1      -0.909   0.606  24.834  0.00  0.00    +0.013 A 
ATOM     17  C   UNL     1      -1.405  -0.030  25.006  0.00  0.00    +0.006 A 
ATOM     18  C   UNL     1      -2.224   0.068  24.986  0.00  0.00    +0.056 A 
ATOM     19  C   UNL     1      -2.547   0.802  24.795  0.00  0.00    +0.261 A 
ATOM     20  O   UNL     1      -3.356   0.651  24.841  0.00  0.00    -0.267 OA
ATOM     21  N   UNL     1      -2.051   1.438  24.623  0.00  0.00    -0.299 N 
ATOM     22  C   UNL     1      -1.492   1.793  24.525  0.00  0.00    +0.110 C 
ENDROOT
BRANCH  18  23
ATOM     23  C   UNL     1      -2.719  -0.569  25.158  0.00  0.00    +0.005 A 
ATOM     24  C   UNL     1      -3.025  -1.030  24.546  0.00  0.00    +0.010 A 
ATOM     25  C   UNL     1      -3.520  -1.667  24.717  0.00  0.00    +0.068 A 
ATOM     26  C   UNL     1      -3.709  -1.843  25.500  0.00  0.00    +0.010 A 
ATOM     27  C   UNL     1      -3.404  -1.383  26.113  0.00  0.00    +0.001 A 
ATOM     28  C   UNL     1      -2.908  -0.745  25.941  0.00  0.00    +0.000 A 
BRANCH  25  29
ATOM     29  C   UNL     1      -3.826  -2.128  24.105  0.00  0.00    +0.100 C 
ATOM     30  N   UNL     1      -4.132  -2.589  23.493  0.00  0.00    -0.191 NA
ENDBRANCH  25  29
ENDBRANCH  18  23
BRANCH   7   6
ATOM      6  C   UNL     1      -3.954   2.028  24.481  0.00  0.00    +0.143 C 
BRANCH   6   5
ATOM      5  S   UNL     1      -4.299   2.448  25.102  0.00  0.00    -0.119 S 
BRANCH   5   4
ATOM      4  C   UNL     1      -5.103   2.635  25.078  0.00  0.00    +0.172 C 
BRANCH   4   2
ATOM      1  O   UNL     1      -5.733   2.796  26.351  0.00  0.00    -0.245 OA
ATOM      2  C   UNL     1      -5.430   3.124  25.656  0.00  0.00    +0.376 C 
ATOM      3  O   UNL     1      -5.454   3.941  25.541  0.00  0.00    -0.245 OA
ENDBRANCH   4   2
ENDBRANCH   5   4
ENDBRANCH   6   5
ENDBRANCH   7   6
TORSDOF 6
ENDMDL
