MODEL 1
REMARK VINA RESULT:     -10.9      0.000      0.000
REMARK  Name = 
REMARK  5 active torsions:
REMARK  status: ('A' for Active; 'I' for Inactive)
REMARK    1  A    between atoms: O_2  and  C_3
REMARK    2  A    between atoms: C_3  and  C_5
REMARK    3  A    between atoms: N_10  and  C_11
REMARK    4  A    between atoms: C_11  and  C_12
REMARK    5  A    between atoms: C_15  and  O_16
REMARK                            x       y       z     vdW  Elec       q    Type
REMARK                         _______ _______ _______ _____ _____    ______ ____
ROOT
ATOM      5  C   UNL     1      -2.468  -1.034  24.722  0.00  0.00    +0.164 C 
ATOM      6  C   UNL     1      -2.587  -1.849  24.663  0.00  0.00    +0.075 C 
ATOM      7  C   UNL     1      -3.293  -2.141  24.351  0.00  0.00    +0.078 A 
ATOM      8  C   UNL     1      -3.879  -1.619  24.098  0.00  0.00    +0.090 A 
ATOM      9  C   UNL     1      -3.761  -0.805  24.157  0.00  0.00    +0.121 C 
ATOM     10  N   UNL     1      -3.054  -0.513  24.470  0.00  0.00    -0.256 NA
ATOM     24  N   UNL     1      -4.514  -2.065  23.816  0.00  0.00    -0.226 NA
ATOM     25  C   UNL     1      -4.319  -2.863  23.894  0.00  0.00    +0.198 A 
ATOM     26  N   UNL     1      -3.565  -2.910  24.225  0.00  0.00    -0.227 NA
ENDROOT
BRANCH   5   3
ATOM      3  C   UNL     1      -1.763  -0.743  25.034  0.00  0.00    +0.332 C 
ATOM      4  O   UNL     1      -1.708  -0.575  25.840  0.00  0.00    -0.249 OA
BRANCH   3   2
ATOM      1  C   UNL     1      -0.350  -0.630  24.854  0.00  0.00    +0.256 C 
ATOM      2  O   UNL     1      -1.113  -0.620  24.541  0.00  0.00    -0.443 OA
ENDBRANCH   3   2
ENDBRANCH   5   3
BRANCH  10  11
ATOM     11  C   UNL     1      -2.936   0.301  24.529  0.00  0.00    +0.100 C 
BRANCH  11  12
ATOM     12  C   UNL     1      -3.580   0.806  24.630  0.00  0.00    -0.006 A 
ATOM     13  C   UNL     1      -4.192   0.596  25.141  0.00  0.00    +0.000 A 
ATOM     14  C   UNL     1      -4.838   1.101  25.242  0.00  0.00    +0.037 A 
ATOM     15  C   UNL     1      -4.869   1.816  24.833  0.00  0.00    +0.139 A 
ATOM     18  C   UNL     1      -4.257   2.027  24.322  0.00  0.00    +0.034 A 
ATOM     19  C   UNL     1      -4.289   2.742  23.912  0.00  0.00    +0.003 A 
ATOM     20  C   UNL     1      -3.676   2.953  23.402  0.00  0.00    +0.000 A 
ATOM     21  C   UNL     1      -3.031   2.447  23.301  0.00  0.00    -0.000 A 
ATOM     22  C   UNL     1      -2.999   1.732  23.710  0.00  0.00    -0.000 A 
ATOM     23  C   UNL     1      -3.612   1.521  24.221  0.00  0.00    +0.000 A 
BRANCH  15  16
ATOM     16  O   UNL     1      -5.514   2.321  24.934  0.00  0.00    -0.471 OA
ATOM     17  C   UNL     1      -6.103   2.134  25.480  0.00  0.00    +0.252 C 
ENDBRANCH  15  16
ENDBRANCH  11  12
ENDBRANCH  10  11
TORSDOF 5
ENDMDL
MODEL 2
REMARK VINA RESULT:     -10.8      1.261      4.336
REMARK  Name = 
REMARK  5 active torsions:
REMARK  status: ('A' for Active; 'I' for Inactive)
REMARK    1  A    between atoms: O_2  and  C_3
REMARK    2  A    between atoms: C_3  and  C_5
REMARK    3  A    between atoms: N_10  and  C_11
REMARK    4  A    between atoms: C_11  and  C_12
REMARK    5  A    between atoms: C_15  and  O_16
REMARK                            x       y       z     vdW  Elec       q    Type
REMARK                         _______ _______ _______ _____ _____    ______ ____
ROOT
ATOM      5  C   UNL     1      -4.490   1.625  24.455  0.00  0.00    +0.164 C 
ATOM      6  C   UNL     1      -4.332   2.357  24.108  0.00  0.00    +0.075 C 
ATOM      7  C   UNL     1      -3.675   2.446  23.617  0.00  0.00    +0.078 A 
ATOM      8  C   UNL     1      -3.177   1.806  23.473  0.00  0.00    +0.090 A 
ATOM      9  C   UNL     1      -3.335   1.074  23.820  0.00  0.00    +0.121 C 
ATOM     10  N   UNL     1      -3.993   0.984  24.312  0.00  0.00    -0.256 NA
ATOM     24  N   UNL     1      -2.576   2.058  22.968  0.00  0.00    -0.226 NA
ATOM     25  C   UNL     1      -2.702   2.856  22.800  0.00  0.00    +0.198 A 
ATOM     26  N   UNL     1      -3.381   3.096  23.200  0.00  0.00    -0.227 NA
ENDROOT
BRANCH   5   3
ATOM      3  C   UNL     1      -5.147   1.536  24.946  0.00  0.00    +0.332 C 
ATOM      4  O   UNL     1      -5.826   1.163  24.662  0.00  0.00    -0.249 OA
BRANCH   3   2
ATOM      1  C   UNL     1      -5.823   2.047  26.096  0.00  0.00    +0.256 C 
ATOM      2  O   UNL     1      -5.125   1.820  25.721  0.00  0.00    -0.443 OA
ENDBRANCH   3   2
ENDBRANCH   5   3
BRANCH  10  11
ATOM     11  C   UNL     1      -4.150   0.253  24.659  0.00  0.00    +0.100 C 
BRANCH  11  12
ATOM     12  C   UNL     1      -3.536  -0.279  24.799  0.00  0.00    -0.006 A 
ATOM     13  C   UNL     1      -2.846  -0.023  25.172  0.00  0.00    +0.000 A 
ATOM     14  C   UNL     1      -2.231  -0.556  25.312  0.00  0.00    +0.037 A 
ATOM     15  C   UNL     1      -2.306  -1.343  25.079  0.00  0.00    +0.139 A 
ATOM     18  C   UNL     1      -2.995  -1.599  24.706  0.00  0.00    +0.034 A 
ATOM     19  C   UNL     1      -3.071  -2.387  24.473  0.00  0.00    +0.003 A 
ATOM     20  C   UNL     1      -3.761  -2.643  24.100  0.00  0.00    +0.000 A 
ATOM     21  C   UNL     1      -4.376  -2.110  23.960  0.00  0.00    -0.000 A 
ATOM     22  C   UNL     1      -4.301  -1.323  24.193  0.00  0.00    -0.000 A 
ATOM     23  C   UNL     1      -3.611  -1.066  24.566  0.00  0.00    +0.000 A 
BRANCH  15  16
ATOM     16  O   UNL     1      -1.691  -1.875  25.219  0.00  0.00    -0.471 OA
ATOM     17  C   UNL     1      -0.933  -1.596  25.385  0.00  0.00    +0.252 C 
ENDBRANCH  15  16
ENDBRANCH  11  12
ENDBRANCH  10  11
TORSDOF 5
ENDMDL
MODEL 3
REMARK VINA RESULT:     -10.5      1.687      3.926
REMARK  Name = 
REMARK  5 active torsions:
REMARK  status: ('A' for Active; 'I' for Inactive)
REMARK    1  A    between atoms: O_2  and  C_3
REMARK    2  A    between atoms: C_3  and  C_5
REMARK    3  A    between atoms: N_10  and  C_11
REMARK    4  A    between atoms: C_11  and  C_12
REMARK    5  A    between atoms: C_15  and  O_16
REMARK                            x       y       z     vdW  Elec       q    Type
REMARK                         _______ _______ _______ _____ _____    ______ ____
ROOT
ATOM      5  C   UNL     1      -3.452   2.055  24.336  0.00  0.00    +0.164 C 
ATOM      6  C   UNL     1      -4.032   2.621  24.497  0.00  0.00    +0.075 C 
ATOM      7  C   UNL     1      -4.717   2.404  24.902  0.00  0.00    +0.078 A 
ATOM      8  C   UNL     1      -4.822   1.624  25.147  0.00  0.00    +0.090 A 
ATOM      9  C   UNL     1      -4.243   1.059  24.986  0.00  0.00    +0.121 C 
ATOM     10  N   UNL     1      -3.557   1.276  24.580  0.00  0.00    -0.256 NA
ATOM     24  N   UNL     1      -5.549   1.574  25.533  0.00  0.00    -0.226 NA
ATOM     25  C   UNL     1      -5.894   2.323  25.528  0.00  0.00    +0.198 A 
ATOM     26  N   UNL     1      -5.379   2.836  25.138  0.00  0.00    -0.227 NA
ENDROOT
BRANCH   5   3
ATOM      3  C   UNL     1      -2.767   2.272  23.930  0.00  0.00    +0.332 C 
ATOM      4  O   UNL     1      -2.732   2.192  23.110  0.00  0.00    -0.249 OA
BRANCH   3   2
ATOM      1  C   UNL     1      -1.526   2.979  23.943  0.00  0.00    +0.256 C 
ATOM      2  O   UNL     1      -2.118   2.569  24.344  0.00  0.00    -0.443 OA
ENDBRANCH   3   2
ENDBRANCH   5   3
BRANCH  10  11
ATOM     11  C   UNL     1      -2.978   0.711  24.420  0.00  0.00    +0.100 C 
BRANCH  11  12
ATOM     12  C   UNL     1      -3.183  -0.086  24.361  0.00  0.00    -0.006 A 
ATOM     13  C   UNL     1      -3.892  -0.304  24.001  0.00  0.00    +0.000 A 
ATOM     14  C   UNL     1      -4.097  -1.102  23.942  0.00  0.00    +0.037 A 
ATOM     15  C   UNL     1      -3.593  -1.680  24.244  0.00  0.00    +0.139 A 
ATOM     18  C   UNL     1      -2.884  -1.462  24.604  0.00  0.00    +0.034 A 
ATOM     19  C   UNL     1      -2.379  -2.041  24.905  0.00  0.00    +0.003 A 
ATOM     20  C   UNL     1      -1.670  -1.824  25.265  0.00  0.00    +0.000 A 
ATOM     21  C   UNL     1      -1.465  -1.026  25.324  0.00  0.00    -0.000 A 
ATOM     22  C   UNL     1      -1.969  -0.447  25.023  0.00  0.00    -0.000 A 
ATOM     23  C   UNL     1      -2.679  -0.665  24.662  0.00  0.00    +0.000 A 
BRANCH  15  16
ATOM     16  O   UNL     1      -3.798  -2.477  24.185  0.00  0.00    -0.471 OA
ATOM     17  C   UNL     1      -4.457  -2.702  23.743  0.00  0.00    +0.252 C 
ENDBRANCH  15  16
ENDBRANCH  11  12
ENDBRANCH  10  11
TORSDOF 5
ENDMDL
MODEL 4
REMARK VINA RESULT:     -10.2      1.256      2.567
REMARK  Name = 
REMARK  5 active torsions:
REMARK  status: ('A' for Active; 'I' for Inactive)
REMARK    1  A    between atoms: O_2  and  C_3
REMARK    2  A    between atoms: C_3  and  C_5
REMARK    3  A    between atoms: N_10  and  C_11
REMARK    4  A    between atoms: C_11  and  C_12
REMARK    5  A    between atoms: C_15  and  O_16
REMARK                            x       y       z     vdW  Elec       q    Type
REMARK                         _______ _______ _______ _____ _____    ______ ____
ROOT
ATOM      5  C   UNL     1      -2.915  -1.141  24.630  0.00  0.00    +0.164 C 
ATOM      6  C   UNL     1      -2.167  -1.490  24.657  0.00  0.00    +0.075 C 
ATOM      7  C   UNL     1      -1.495  -1.017  24.726  0.00  0.00    +0.078 A 
ATOM      8  C   UNL     1      -1.570  -0.197  24.769  0.00  0.00    +0.090 A 
ATOM      9  C   UNL     1      -2.317   0.151  24.742  0.00  0.00    +0.121 C 
ATOM     10  N   UNL     1      -2.990  -0.322  24.673  0.00  0.00    -0.256 NA
ATOM     24  N   UNL     1      -0.812   0.125  24.835  0.00  0.00    -0.226 NA
ATOM     25  C   UNL     1      -0.270  -0.496  24.833  0.00  0.00    +0.198 A 
ATOM     26  N   UNL     1      -0.691  -1.202  24.766  0.00  0.00    -0.227 NA
ENDROOT
BRANCH   5   3
ATOM      3  C   UNL     1      -3.587  -1.614  24.561  0.00  0.00    +0.332 C 
ATOM      4  O   UNL     1      -3.993  -1.854  25.238  0.00  0.00    -0.249 OA
BRANCH   3   2
ATOM      1  C   UNL     1      -4.331  -2.515  23.739  0.00  0.00    +0.256 C 
ATOM      2  O   UNL     1      -3.853  -1.847  23.815  0.00  0.00    -0.443 OA
ENDBRANCH   3   2
ENDBRANCH   5   3
BRANCH  10  11
ATOM     11  C   UNL     1      -3.737   0.027  24.646  0.00  0.00    +0.100 C 
BRANCH  11  12
ATOM     12  C   UNL     1      -3.821   0.806  24.387  0.00  0.00    -0.006 A 
ATOM     13  C   UNL     1      -3.327   1.098  23.794  0.00  0.00    +0.000 A 
ATOM     14  C   UNL     1      -3.411   1.877  23.535  0.00  0.00    +0.037 A 
ATOM     15  C   UNL     1      -3.988   2.363  23.868  0.00  0.00    +0.139 A 
ATOM     18  C   UNL     1      -4.481   2.071  24.460  0.00  0.00    +0.034 A 
ATOM     19  C   UNL     1      -5.058   2.557  24.794  0.00  0.00    +0.003 A 
ATOM     20  C   UNL     1      -5.551   2.264  25.387  0.00  0.00    +0.000 A 
ATOM     21  C   UNL     1      -5.468   1.485  25.646  0.00  0.00    -0.000 A 
ATOM     22  C   UNL     1      -4.891   0.999  25.313  0.00  0.00    -0.000 A 
ATOM     23  C   UNL     1      -4.397   1.291  24.720  0.00  0.00    +0.000 A 
BRANCH  15  16
ATOM     16  O   UNL     1      -4.071   3.142  23.609  0.00  0.00    -0.471 OA
ATOM     17  C   UNL     1      -3.562   3.442  23.033  0.00  0.00    +0.252 C 
ENDBRANCH  15  16
ENDBRANCH  11  12
ENDBRANCH  10  11
TORSDOF 5
ENDMDL
MODEL 5
REMARK VINA RESULT:     -10.1      2.552      3.932
REMARK  Name = 
REMARK  5 active torsions:
REMARK  status: ('A' for Active; 'I' for Inactive)
REMARK    1  A    between atoms: O_2  and  C_3
REMARK    2  A    between atoms: C_3  and  C_5
REMARK    3  A    between atoms: N_10  and  C_11
REMARK    4  A    between atoms: C_11  and  C_12
REMARK    5  A    between atoms: C_15  and  O_16
REMARK                            x       y       z     vdW  Elec       q    Type
REMARK                         _______ _______ _______ _____ _____    ______ ____
ROOT
ATOM      5  C   UNL     1      -4.009   1.266  24.607  0.00  0.00    +0.164 C 
ATOM      6  C   UNL     1      -4.827   1.281  24.715  0.00  0.00    +0.075 C 
ATOM      7  C   UNL     1      -5.177   1.906  25.124  0.00  0.00    +0.078 A 
ATOM      8  C   UNL     1      -4.710   2.515  25.425  0.00  0.00    +0.090 A 
ATOM      9  C   UNL     1      -3.892   2.500  25.317  0.00  0.00    +0.121 C 
ATOM     10  N   UNL     1      -3.542   1.875  24.907  0.00  0.00    -0.256 NA
ATOM     24  N   UNL     1      -5.207   3.055  25.802  0.00  0.00    -0.226 NA
ATOM     25  C   UNL     1      -5.981   2.779  25.734  0.00  0.00    +0.198 A 
ATOM     26  N   UNL     1      -5.963   2.069  25.316  0.00  0.00    -0.227 NA
ENDROOT
BRANCH   5   3
ATOM      3  C   UNL     1      -3.659   0.641  24.198  0.00  0.00    +0.332 C 
ATOM      4  O   UNL     1      -3.447   0.735  23.406  0.00  0.00    -0.249 OA
BRANCH   3   2
ATOM      1  C   UNL     1      -3.470  -0.774  24.141  0.00  0.00    +0.256 C 
ATOM      2  O   UNL     1      -3.522  -0.078  24.580  0.00  0.00    -0.443 OA
ENDBRANCH   3   2
ENDBRANCH   5   3
BRANCH  10  11
ATOM     11  C   UNL     1      -2.724   1.860  24.799  0.00  0.00    +0.100 C 
BRANCH  11  12
ATOM     12  C   UNL     1      -2.282   2.550  24.898  0.00  0.00    -0.006 A 
ATOM     13  C   UNL     1      -2.574   3.270  24.623  0.00  0.00    +0.000 A 
ATOM     14  C   UNL     1      -2.131   3.960  24.722  0.00  0.00    +0.037 A 
ATOM     15  C   UNL     1      -1.398   3.928  25.096  0.00  0.00    +0.139 A 
ATOM     18  C   UNL     1      -1.106   3.208  25.372  0.00  0.00    +0.034 A 
ATOM     19  C   UNL     1      -0.371   3.176  25.747  0.00  0.00    +0.003 A 
ATOM     20  C   UNL     1      -0.079   2.456  26.022  0.00  0.00    +0.000 A 
ATOM     21  C   UNL     1      -0.522   1.766  25.923  0.00  0.00    -0.000 A 
ATOM     22  C   UNL     1      -1.256   1.798  25.549  0.00  0.00    -0.000 A 
ATOM     23  C   UNL     1      -1.548   2.518  25.273  0.00  0.00    +0.000 A 
BRANCH  15  16
ATOM     16  O   UNL     1      -0.956   4.618  25.196  0.00  0.00    -0.471 OA
ATOM     17  C   UNL     1      -1.284   5.350  25.006  0.00  0.00    +0.252 C 
ENDBRANCH  15  16
ENDBRANCH  11  12
ENDBRANCH  10  11
TORSDOF 5
ENDMDL
MODEL 6
REMARK VINA RESULT:     -10.0      2.089      3.787
REMARK  Name = 
REMARK  5 active torsions:
REMARK  status: ('A' for Active; 'I' for Inactive)
REMARK    1  A    between atoms: O_2  and  C_3
REMARK    2  A    between atoms: C_3  and  C_5
REMARK    3  A    between atoms: N_10  and  C_11
REMARK    4  A    between atoms: C_11  and  C_12
REMARK    5  A    between atoms: C_15  and  O_16
REMARK                            x       y       z     vdW  Elec       q    Type
REMARK                         _______ _______ _______ _____ _____    ______ ____
ROOT
ATOM      5  C   UNL     1      -0.265   0.972  24.264  0.00  0.00    +0.164 C 
ATOM      6  C   UNL     1       0.254   1.544  24.555  0.00  0.00    +0.075 C 
ATOM      7  C   UNL     1       0.078   1.942  25.255  0.00  0.00    +0.078 A 
ATOM      8  C   UNL     1      -0.617   1.771  25.664  0.00  0.00    +0.090 A 
ATOM      9  C   UNL     1      -1.137   1.200  25.373  0.00  0.00    +0.121 C 
ATOM     10  N   UNL     1      -0.960   0.800  24.672  0.00  0.00    -0.256 NA
ATOM     24  N   UNL     1      -0.643   2.250  26.335  0.00  0.00    -0.226 NA
ATOM     25  C   UNL     1       0.036   2.719  26.341  0.00  0.00    +0.198 A 
ATOM     26  N   UNL     1       0.481   2.528  25.674  0.00  0.00    -0.227 NA
ENDROOT
BRANCH   5   3
ATOM      3  C   UNL     1      -0.089   0.573  23.564  0.00  0.00    +0.332 C 
ATOM      4  O   UNL     1      -0.410   0.834  22.850  0.00  0.00    -0.249 OA
BRANCH   3   2
ATOM      1  C   UNL     1       0.850  -0.281  22.910  0.00  0.00    +0.256 C 
ATOM      2  O   UNL     1       0.409  -0.085  23.577  0.00  0.00    -0.443 OA
ENDBRANCH   3   2
ENDBRANCH   5   3
BRANCH  10  11
ATOM     11  C   UNL     1      -1.480   0.230  24.382  0.00  0.00    +0.100 C 
BRANCH  11  12
ATOM     12  C   UNL     1      -2.289   0.293  24.532  0.00  0.00    -0.006 A 
ATOM     13  C   UNL     1      -2.662   1.026  24.476  0.00  0.00    +0.000 A 
ATOM     14  C   UNL     1      -3.472   1.089  24.626  0.00  0.00    +0.037 A 
ATOM     15  C   UNL     1      -3.906   0.420  24.831  0.00  0.00    +0.139 A 
ATOM     18  C   UNL     1      -3.533  -0.313  24.887  0.00  0.00    +0.034 A 
ATOM     19  C   UNL     1      -3.968  -0.984  25.093  0.00  0.00    +0.003 A 
ATOM     20  C   UNL     1      -3.594  -1.717  25.149  0.00  0.00    +0.000 A 
ATOM     21  C   UNL     1      -2.785  -1.780  24.999  0.00  0.00    -0.000 A 
ATOM     22  C   UNL     1      -2.350  -1.111  24.793  0.00  0.00    -0.000 A 
ATOM     23  C   UNL     1      -2.723  -0.377  24.737  0.00  0.00    +0.000 A 
BRANCH  15  16
ATOM     16  O   UNL     1      -4.715   0.483  24.981  0.00  0.00    -0.471 OA
ATOM     17  C   UNL     1      -5.075   1.225  24.999  0.00  0.00    +0.252 C 
ENDBRANCH  15  16
ENDBRANCH  11  12
ENDBRANCH  10  11
TORSDOF 5
ENDMDL
MODEL 7
REMARK VINA RESULT:     -10.0      1.847      4.739
REMARK  Name = 
REMARK  5 active torsions:
REMARK  status: ('A' for Active; 'I' for Inactive)
REMARK    1  A    between atoms: O_2  and  C_3
REMARK    2  A    between atoms: C_3  and  C_5
REMARK    3  A    between atoms: N_10  and  C_11
REMARK    4  A    between atoms: C_11  and  C_12
REMARK    5  A    between atoms: C_15  and  O_16
REMARK                            x       y       z     vdW  Elec       q    Type
REMARK                         _______ _______ _______ _____ _____    ______ ____
ROOT
ATOM      5  C   UNL     1      -3.773   2.605  24.892  0.00  0.00    +0.164 C 
ATOM      6  C   UNL     1      -3.587   3.395  25.043  0.00  0.00    +0.075 C 
ATOM      7  C   UNL     1      -2.819   3.602  25.261  0.00  0.00    +0.078 A 
ATOM      8  C   UNL     1      -2.238   3.022  25.328  0.00  0.00    +0.090 A 
ATOM      9  C   UNL     1      -2.423   2.232  25.177  0.00  0.00    +0.121 C 
ATOM     10  N   UNL     1      -3.192   2.024  24.959  0.00  0.00    -0.256 NA
ATOM     24  N   UNL     1      -1.534   3.390  25.551  0.00  0.00    -0.226 NA
ATOM     25  C   UNL     1      -1.680   4.199  25.622  0.00  0.00    +0.198 A 
ATOM     26  N   UNL     1      -2.474   4.330  25.443  0.00  0.00    -0.227 NA
ENDROOT
BRANCH   5   3
ATOM      3  C   UNL     1      -4.541   2.397  24.675  0.00  0.00    +0.332 C 
ATOM      4  O   UNL     1      -4.736   2.323  23.877  0.00  0.00    -0.249 OA
BRANCH   3   2
ATOM      1  C   UNL     1      -5.912   2.261  25.052  0.00  0.00    +0.256 C 
ATOM      2  O   UNL     1      -5.113   2.263  25.254  0.00  0.00    -0.443 OA
ENDBRANCH   3   2
ENDBRANCH   5   3
BRANCH  10  11
ATOM     11  C   UNL     1      -3.377   1.235  24.809  0.00  0.00    +0.100 C 
BRANCH  11  12
ATOM     12  C   UNL     1      -2.774   0.682  24.702  0.00  0.00    -0.006 A 
ATOM     13  C   UNL     1      -2.085   0.895  24.303  0.00  0.00    +0.000 A 
ATOM     14  C   UNL     1      -1.482   0.342  24.196  0.00  0.00    +0.037 A 
ATOM     15  C   UNL     1      -1.569  -0.424  24.488  0.00  0.00    +0.139 A 
ATOM     18  C   UNL     1      -2.258  -0.638  24.887  0.00  0.00    +0.034 A 
ATOM     19  C   UNL     1      -2.345  -1.404  25.180  0.00  0.00    +0.003 A 
ATOM     20  C   UNL     1      -3.034  -1.618  25.579  0.00  0.00    +0.000 A 
ATOM     21  C   UNL     1      -3.638  -1.064  25.685  0.00  0.00    -0.000 A 
ATOM     22  C   UNL     1      -3.551  -0.298  25.393  0.00  0.00    -0.000 A 
ATOM     23  C   UNL     1      -2.861  -0.084  24.994  0.00  0.00    +0.000 A 
BRANCH  15  16
ATOM     16  O   UNL     1      -0.966  -0.977  24.382  0.00  0.00    -0.471 OA
ATOM     17  C   UNL     1      -0.232  -0.737  24.091  0.00  0.00    +0.252 C 
ENDBRANCH  15  16
ENDBRANCH  11  12
ENDBRANCH  10  11
TORSDOF 5
ENDMDL
