MODEL 1
REMARK VINA RESULT:     -12.6      0.000      0.000
REMARK  Name = 
REMARK  5 active torsions:
REMARK  status: ('A' for Active; 'I' for Inactive)
REMARK    1  A    between atoms: S_2  and  C_3
REMARK    2  A    between atoms: C_6  and  C_9
REMARK    3  A    between atoms: C_17  and  C_19
REMARK    4  A    between atoms: C_19  and  C_20
REMARK    5  A    between atoms: C_20  and  C_21
REMARK                            x       y       z     vdW  Elec       q    Type
REMARK                         _______ _______ _______ _____ _____    ______ ____
ROOT
ATOM      9  C   UNL     1      -3.514   0.869  24.701  0.00  0.00    +0.012 A 
ATOM     10  C   UNL     1      -2.752   1.123  24.887  0.00  0.00    +0.041 A 
ATOM     11  C   UNL     1      -1.900   0.799  25.002  0.00  0.00    +0.058 C 
ATOM     12  C   UNL     1      -1.530   0.202  24.981  0.00  0.00    +0.011 C 
ATOM     13  C   UNL     1      -1.392   0.991  25.130  0.00  0.00    +0.043 C 
ATOM     14  C   UNL     1      -1.030   1.886  25.338  0.00  0.00    +0.095 C 
ATOM     15  N   UNL     1      -1.729   2.339  25.272  0.00  0.00    -0.279 N 
ATOM     16  C   UNL     1      -1.534   1.657  25.205  0.00  0.00    +0.099 C 
ATOM     17  C   UNL     1      -2.219   3.003  25.280  0.00  0.00    +0.226 C 
ATOM     18  O   UNL     1      -3.024   2.923  25.112  0.00  0.00    -0.275 OA
ATOM     24  C   UNL     1      -2.279   1.339  25.012  0.00  0.00    +0.110 C 
ATOM     25  N   UNL     1      -2.608   1.921  25.038  0.00  0.00    -0.299 N 
ATOM     26  C   UNL     1      -3.227   2.466  25.002  0.00  0.00    +0.261 A 
ATOM     27  O   UNL     1      -3.336   3.277  25.106  0.00  0.00    -0.267 OA
ATOM     28  C   UNL     1      -3.989   2.212  24.816  0.00  0.00    +0.061 A 
ATOM     29  C   UNL     1      -4.133   1.414  24.665  0.00  0.00    +0.006 A 
ENDROOT
BRANCH   9   6
ATOM      3  C   UNL     1      -3.945  -1.526  24.248  0.00  0.00    +0.025 A 
ATOM      4  C   UNL     1      -3.978  -1.240  25.021  0.00  0.00    +0.006 A 
ATOM      5  C   UNL     1      -3.835  -0.441  25.172  0.00  0.00    +0.001 A 
ATOM      6  C   UNL     1      -3.658   0.071  24.550  0.00  0.00    +0.001 A 
ATOM      7  C   UNL     1      -3.625  -0.215  23.777  0.00  0.00    +0.001 A 
ATOM      8  C   UNL     1      -3.768  -1.014  23.626  0.00  0.00    +0.006 A 
BRANCH   3   2
ATOM      1  C   UNL     1      -3.597  -2.901  24.423  0.00  0.00    +0.074 C 
ATOM      2  S   UNL     1      -4.089  -2.323  24.098  0.00  0.00    -0.113 S 
ENDBRANCH   3   2
ENDBRANCH   9   6
BRANCH  17  19
ATOM     19  C   UNL     1      -1.906   3.745  25.455  0.00  0.00    +0.097 C 
BRANCH  19  20
ATOM     20  C   UNL     1      -1.721   4.269  24.845  0.00  0.00    +0.124 C 
BRANCH  20  21
ATOM     21  C   UNL     1      -1.312   4.966  25.011  0.00  0.00    +0.365 C 
ATOM     22  O   UNL     1      -0.517   5.038  24.797  0.00  0.00    -0.246 OA
ATOM     23  O   UNL     1      -1.695   5.590  25.389  0.00  0.00    -0.246 OA
ENDBRANCH  20  21
ENDBRANCH  19  20
ENDBRANCH  17  19
TORSDOF 5
ENDMDL
MODEL 2
REMARK VINA RESULT:     -12.1      2.467      4.856
REMARK  Name = 
REMARK  5 active torsions:
REMARK  status: ('A' for Active; 'I' for Inactive)
REMARK    1  A    between atoms: S_2  and  C_3
REMARK    2  A    between atoms: C_6  and  C_9
REMARK    3  A    between atoms: C_17  and  C_19
REMARK    4  A    between atoms: C_19  and  C_20
REMARK    5  A    between atoms: C_20  and  C_21
REMARK                            x       y       z     vdW  Elec       q    Type
REMARK                         _______ _______ _______ _____ _____    ______ ____
ROOT
ATOM      9  C   UNL     1      -1.664   1.520  25.121  0.00  0.00    +0.012 A 
ATOM     10  C   UNL     1      -2.433   1.281  24.940  0.00  0.00    +0.041 A 
ATOM     11  C   UNL     1      -3.243   1.625  24.675  0.00  0.00    +0.058 C 
ATOM     12  C   UNL     1      -3.557   2.232  24.513  0.00  0.00    +0.011 C 
ATOM     13  C   UNL     1      -3.756   1.443  24.556  0.00  0.00    +0.043 C 
ATOM     14  C   UNL     1      -4.184   0.552  24.550  0.00  0.00    +0.095 C 
ATOM     15  N   UNL     1      -3.535   0.083  24.786  0.00  0.00    -0.279 N 
ATOM     16  C   UNL     1      -3.671   0.772  24.663  0.00  0.00    +0.099 C 
ATOM     17  C   UNL     1      -3.107  -0.593  24.988  0.00  0.00    +0.226 C 
ATOM     18  O   UNL     1      -2.311  -0.530  25.199  0.00  0.00    -0.275 OA
ATOM     24  C   UNL     1      -2.914   1.075  24.833  0.00  0.00    +0.110 C 
ATOM     25  N   UNL     1      -2.638   0.483  24.983  0.00  0.00    -0.299 N 
ATOM     26  C   UNL     1      -2.075  -0.076  25.207  0.00  0.00    +0.261 A 
ATOM     27  O   UNL     1      -2.033  -0.892  25.320  0.00  0.00    -0.267 OA
ATOM     28  C   UNL     1      -1.307   0.162  25.388  0.00  0.00    +0.061 A 
ATOM     29  C   UNL     1      -1.101   0.960  25.346  0.00  0.00    +0.006 A 
ENDROOT
BRANCH   9   6
ATOM      3  C   UNL     1      -1.048   3.914  24.993  0.00  0.00    +0.025 A 
ATOM      4  C   UNL     1      -1.328   3.597  25.701  0.00  0.00    +0.006 A 
ATOM      5  C   UNL     1      -1.533   2.799  25.744  0.00  0.00    +0.001 A 
ATOM      6  C   UNL     1      -1.459   2.318  25.078  0.00  0.00    +0.001 A 
ATOM      7  C   UNL     1      -1.179   2.634  24.370  0.00  0.00    +0.001 A 
ATOM      8  C   UNL     1      -0.973   3.432  24.327  0.00  0.00    +0.006 A 
BRANCH   3   2
ATOM      1  C   UNL     1      -1.420   5.292  25.051  0.00  0.00    +0.074 C 
ATOM      2  S   UNL     1      -0.843   4.711  24.950  0.00  0.00    -0.113 S 
ENDBRANCH   3   2
ENDBRANCH   9   6
BRANCH  17  19
ATOM     19  C   UNL     1      -3.474  -1.331  24.979  0.00  0.00    +0.097 C 
BRANCH  19  20
ATOM     20  C   UNL     1      -3.355  -1.844  24.344  0.00  0.00    +0.124 C 
BRANCH  20  21
ATOM     21  C   UNL     1      -3.782  -2.548  24.297  0.00  0.00    +0.365 C 
ATOM     22  O   UNL     1      -4.371  -2.635  23.726  0.00  0.00    -0.246 OA
ATOM     23  O   UNL     1      -3.620  -3.165  24.819  0.00  0.00    -0.246 OA
ENDBRANCH  20  21
ENDBRANCH  19  20
ENDBRANCH  17  19
TORSDOF 5
ENDMDL
MODEL 3
REMARK VINA RESULT:     -10.6      2.006      2.510
REMARK  Name = 
REMARK  5 active torsions:
REMARK  status: ('A' for Active; 'I' for Inactive)
REMARK    1  A    between atoms: S_2  and  C_3
REMARK    2  A    between atoms: C_6  and  C_9
REMARK    3  A    between atoms: C_17  and  C_19
REMARK    4  A    between atoms: C_19  and  C_20
REMARK    5  A    between atoms: C_20  and  C_21
REMARK                            x       y       z     vdW  Elec       q    Type
REMARK                         _______ _______ _______ _____ _____    ______ ____
ROOT
ATOM      9  C   UNL     1      -4.168  -0.017  24.926  0.00  0.00    +0.012 A 
ATOM     10  C   UNL     1      -3.932   0.696  24.583  0.00  0.00    +0.041 A 
ATOM     11  C   UNL     1      -3.272   1.046  24.048  0.00  0.00    +0.058 C 
ATOM     12  C   UNL     1      -2.689   0.865  23.703  0.00  0.00    +0.011 C 
ATOM     13  C   UNL     1      -3.131   1.538  23.825  0.00  0.00    +0.043 C 
ATOM     14  C   UNL     1      -3.524   2.444  23.855  0.00  0.00    +0.095 C 
ATOM     15  N   UNL     1      -4.187   2.292  24.340  0.00  0.00    -0.279 N 
ATOM     16  C   UNL     1      -3.640   1.927  24.067  0.00  0.00    +0.099 C 
ATOM     17  C   UNL     1      -4.878   2.439  24.766  0.00  0.00    +0.226 C 
ATOM     18  O   UNL     1      -5.250   1.826  25.175  0.00  0.00    -0.275 OA
ATOM     24  C   UNL     1      -3.824   1.180  24.385  0.00  0.00    +0.110 C 
ATOM     25  N   UNL     1      -4.377   1.379  24.705  0.00  0.00    -0.299 N 
ATOM     26  C   UNL     1      -5.058   1.351  25.170  0.00  0.00    +0.261 A 
ATOM     27  O   UNL     1      -5.645   1.869  25.430  0.00  0.00    -0.267 OA
ATOM     28  C   UNL     1      -5.294   0.639  25.513  0.00  0.00    +0.061 A 
ATOM     29  C   UNL     1      -4.848  -0.045  25.391  0.00  0.00    +0.006 A 
ENDROOT
BRANCH   9   6
ATOM      3  C   UNL     1      -2.832  -2.068  24.560  0.00  0.00    +0.025 A 
ATOM      4  C   UNL     1      -3.455  -1.886  24.051  0.00  0.00    +0.006 A 
ATOM      5  C   UNL     1      -3.900  -1.202  24.173  0.00  0.00    +0.001 A 
ATOM      6  C   UNL     1      -3.722  -0.700  24.804  0.00  0.00    +0.001 A 
ATOM      7  C   UNL     1      -3.099  -0.883  25.312  0.00  0.00    +0.001 A 
ATOM      8  C   UNL     1      -2.653  -1.567  25.190  0.00  0.00    +0.006 A 
BRANCH   3   2
ATOM      1  C   UNL     1      -1.595  -2.694  24.212  0.00  0.00    +0.074 C 
ATOM      2  S   UNL     1      -2.387  -2.751  24.438  0.00  0.00    -0.113 S 
ENDBRANCH   3   2
ENDBRANCH   9   6
BRANCH  17  19
ATOM     19  C   UNL     1      -5.198   3.199  24.784  0.00  0.00    +0.097 C 
BRANCH  19  20
ATOM     20  C   UNL     1      -5.212   3.625  25.490  0.00  0.00    +0.124 C 
BRANCH  20  21
ATOM     21  C   UNL     1      -5.467   4.410  25.494  0.00  0.00    +0.365 C 
ATOM     22  O   UNL     1      -6.226   4.594  25.762  0.00  0.00    -0.246 OA
ATOM     23  O   UNL     1      -4.966   5.009  25.231  0.00  0.00    -0.246 OA
ENDBRANCH  20  21
ENDBRANCH  19  20
ENDBRANCH  17  19
TORSDOF 5
ENDMDL
MODEL 4
REMARK VINA RESULT:     -10.5      1.525      2.853
REMARK  Name = 
REMARK  5 active torsions:
REMARK  status: ('A' for Active; 'I' for Inactive)
REMARK    1  A    between atoms: S_2  and  C_3
REMARK    2  A    between atoms: C_6  and  C_9
REMARK    3  A    between atoms: C_17  and  C_19
REMARK    4  A    between atoms: C_19  and  C_20
REMARK    5  A    between atoms: C_20  and  C_21
REMARK                            x       y       z     vdW  Elec       q    Type
REMARK                         _______ _______ _______ _____ _____    ______ ____
ROOT
ATOM      9  C   UNL     1      -2.100   0.902  24.987  0.00  0.00    +0.012 A 
ATOM     10  C   UNL     1      -2.922   0.869  24.931  0.00  0.00    +0.041 A 
ATOM     11  C   UNL     1      -3.609   0.261  24.866  0.00  0.00    +0.058 C 
ATOM     12  C   UNL     1      -3.732  -0.429  24.837  0.00  0.00    +0.011 C 
ATOM     13  C   UNL     1      -4.165   0.261  24.830  0.00  0.00    +0.043 C 
ATOM     14  C   UNL     1      -4.852   0.970  24.806  0.00  0.00    +0.095 C 
ATOM     15  N   UNL     1      -4.360   1.643  24.860  0.00  0.00    -0.279 N 
ATOM     16  C   UNL     1      -4.285   0.935  24.843  0.00  0.00    +0.099 C 
ATOM     17  C   UNL     1      -4.147   2.440  24.899  0.00  0.00    +0.226 C 
ATOM     18  O   UNL     1      -3.352   2.652  24.958  0.00  0.00    -0.275 OA
ATOM     24  C   UNL     1      -3.455   0.903  24.897  0.00  0.00    +0.110 C 
ATOM     25  N   UNL     1      -3.364   1.565  24.923  0.00  0.00    -0.299 N 
ATOM     26  C   UNL     1      -2.984   2.296  24.972  0.00  0.00    +0.261 A 
ATOM     27  O   UNL     1      -3.190   3.094  24.983  0.00  0.00    -0.267 OA
ATOM     28  C   UNL     1      -2.162   2.330  25.027  0.00  0.00    +0.061 A 
ATOM     29  C   UNL     1      -1.720   1.633  25.035  0.00  0.00    +0.006 A 
ENDROOT
BRANCH   9   6
ATOM      3  C   UNL     1      -0.774  -1.188  25.009  0.00  0.00    +0.025 A 
ATOM      4  C   UNL     1      -0.924  -0.802  24.296  0.00  0.00    +0.006 A 
ATOM      5  C   UNL     1      -1.365  -0.105  24.288  0.00  0.00    +0.001 A 
ATOM      6  C   UNL     1      -1.658   0.206  24.994  0.00  0.00    +0.001 A 
ATOM      7  C   UNL     1      -1.509  -0.180  25.708  0.00  0.00    +0.001 A 
ATOM      8  C   UNL     1      -1.067  -0.877  25.715  0.00  0.00    +0.006 A 
BRANCH   3   2
ATOM      1  C   UNL     1      -0.714  -2.615  24.982  0.00  0.00    +0.074 C 
ATOM      2  S   UNL     1      -0.333  -1.884  25.017  0.00  0.00    -0.113 S 
ENDBRANCH   3   2
ENDBRANCH   9   6
BRANCH  17  19
ATOM     19  C   UNL     1      -4.729   3.024  24.878  0.00  0.00    +0.097 C 
BRANCH  19  20
ATOM     20  C   UNL     1      -4.951   3.410  25.573  0.00  0.00    +0.124 C 
BRANCH  20  21
ATOM     21  C   UNL     1      -5.618   3.895  25.579  0.00  0.00    +0.365 C 
ATOM     22  O   UNL     1      -6.327   3.617  25.897  0.00  0.00    -0.246 OA
ATOM     23  O   UNL     1      -5.576   4.658  25.269  0.00  0.00    -0.246 OA
ENDBRANCH  20  21
ENDBRANCH  19  20
ENDBRANCH  17  19
TORSDOF 5
ENDMDL
