MODEL 1
REMARK VINA RESULT:     -11.3      0.000      0.000
REMARK  Name = 
REMARK  6 active torsions:
REMARK  status: ('A' for Active; 'I' for Inactive)
REMARK    1  A    between atoms: C_2  and  C_3
REMARK    2  A    between atoms: C_5  and  C_6
REMARK    3  A    between atoms: C_6  and  C_7
REMARK    4  A    between atoms: C_7  and  N_11
REMARK    5  A    between atoms: N_11  and  C_12
REMARK    6  A    between atoms: C_12  and  C_13
REMARK                            x       y       z     vdW  Elec       q    Type
REMARK                         _______ _______ _______ _____ _____    ______ ____
ROOT
ATOM      7  C   UNL     1      -4.581   2.212  24.910  0.00  0.00    +0.120 C 
ATOM      8  C   UNL     1      -5.282   1.959  25.265  0.00  0.00    +0.161 C 
ATOM      9  O   UNL     1      -5.616   2.702  25.134  0.00  0.00    -0.351 OA
ATOM     10  C   UNL     1      -4.915   2.954  24.779  0.00  0.00    +0.161 C 
ENDROOT
BRANCH   7   6
ATOM      6  C   UNL     1      -3.880   2.464  24.554  0.00  0.00    +0.070 C 
BRANCH   6   5
ATOM      3  C   UNL     1      -2.304   3.701  25.289  0.00  0.00    +0.187 A 
ATOM      4  C   UNL     1      -2.606   3.177  24.728  0.00  0.00    +0.056 A 
ATOM      5  C   UNL     1      -3.374   2.976  24.957  0.00  0.00    +0.102 A 
ATOM     23  N   UNL     1      -3.544   3.376  25.658  0.00  0.00    -0.082 NA
ATOM     24  O   UNL     1      -2.883   3.824  25.863  0.00  0.00    -0.355 OA
BRANCH   3   2
ATOM      1  O   UNL     1      -1.473   4.863  25.313  0.00  0.00    -0.212 OA
ATOM      2  C   UNL     1      -1.553   4.044  25.277  0.00  0.00    +0.249 C 
ENDBRANCH   3   2
ENDBRANCH   6   5
ENDBRANCH   7   6
BRANCH   7  11
ATOM     11  N   UNL     1      -4.247   1.469  25.041  0.00  0.00    -0.211 NA
BRANCH  11  12
ATOM     12  C   UNL     1      -4.682   0.787  24.884  0.00  0.00    +0.117 C 
BRANCH  12  13
ATOM     13  C   UNL     1      -4.327   0.046  24.950  0.00  0.00    +0.014 A 
ATOM     14  C   UNL     1      -4.436  -0.519  24.359  0.00  0.00    +0.000 A 
ATOM     15  C   UNL     1      -4.080  -1.261  24.425  0.00  0.00    +0.017 A 
ATOM     16  C   UNL     1      -3.614  -1.438  25.084  0.00  0.00    +0.081 A 
ATOM     17  C   UNL     1      -3.259  -2.179  25.150  0.00  0.00    +0.019 A 
ATOM     18  C   UNL     1      -3.368  -2.743  24.559  0.00  0.00    +0.002 A 
ATOM     19  C   UNL     1      -3.835  -2.566  23.901  0.00  0.00    +0.000 A 
ATOM     20  C   UNL     1      -4.190  -1.825  23.834  0.00  0.00    +0.001 A 
ATOM     21  N   UNL     1      -3.505  -0.872  25.675  0.00  0.00    -0.244 NA
ATOM     22  C   UNL     1      -3.861  -0.131  25.609  0.00  0.00    +0.096 A 
ENDBRANCH  12  13
ENDBRANCH  11  12
ENDBRANCH   7  11
TORSDOF 6
ENDMDL
MODEL 2
REMARK VINA RESULT:     -10.3      2.350      4.528
REMARK  Name = 
REMARK  6 active torsions:
REMARK  status: ('A' for Active; 'I' for Inactive)
REMARK    1  A    between atoms: C_2  and  C_3
REMARK    2  A    between atoms: C_5  and  C_6
REMARK    3  A    between atoms: C_6  and  C_7
REMARK    4  A    between atoms: C_7  and  N_11
REMARK    5  A    between atoms: N_11  and  C_12
REMARK    6  A    between atoms: C_12  and  C_13
REMARK                            x       y       z     vdW  Elec       q    Type
REMARK                         _______ _______ _______ _____ _____    ______ ____
ROOT
ATOM      7  C   UNL     1      -3.788  -1.473  24.479  0.00  0.00    +0.120 C 
ATOM      8  C   UNL     1      -4.317  -1.434  23.846  0.00  0.00    +0.161 C 
ATOM      9  O   UNL     1      -4.347  -2.258  23.821  0.00  0.00    -0.351 OA
ATOM     10  C   UNL     1      -3.818  -2.297  24.454  0.00  0.00    +0.161 C 
ENDROOT
BRANCH   7   6
ATOM      6  C   UNL     1      -3.260  -1.512  25.112  0.00  0.00    +0.070 C 
BRANCH   6   5
ATOM      3  C   UNL     1      -1.134  -1.566  24.940  0.00  0.00    +0.187 A 
ATOM      4  C   UNL     1      -1.828  -1.189  25.177  0.00  0.00    +0.056 A 
ATOM      5  C   UNL     1      -2.464  -1.675  24.975  0.00  0.00    +0.102 A 
ATOM     23  N   UNL     1      -2.162  -2.353  24.614  0.00  0.00    -0.082 NA
ATOM     24  O   UNL     1      -1.340  -2.285  24.592  0.00  0.00    -0.355 OA
BRANCH   3   2
ATOM      1  O   UNL     1      -0.002  -0.868  24.417  0.00  0.00    -0.212 OA
ATOM      2  C   UNL     1      -0.367  -1.276  25.033  0.00  0.00    +0.249 C 
ENDBRANCH   3   2
ENDBRANCH   6   5
ENDBRANCH   7   6
BRANCH   7  11
ATOM     11  N   UNL     1      -3.759  -0.649  24.504  0.00  0.00    -0.211 NA
BRANCH  11  12
ATOM     12  C   UNL     1      -4.448  -0.208  24.406  0.00  0.00    +0.117 C 
BRANCH  12  13
ATOM     13  C   UNL     1      -4.433   0.610  24.512  0.00  0.00    +0.014 A 
ATOM     14  C   UNL     1      -4.962   0.969  25.034  0.00  0.00    +0.000 A 
ATOM     15  C   UNL     1      -4.947   1.787  25.140  0.00  0.00    +0.017 A 
ATOM     16  C   UNL     1      -4.403   2.247  24.722  0.00  0.00    +0.081 A 
ATOM     17  C   UNL     1      -4.388   3.065  24.828  0.00  0.00    +0.019 A 
ATOM     18  C   UNL     1      -4.916   3.423  25.349  0.00  0.00    +0.002 A 
ATOM     19  C   UNL     1      -5.460   2.963  25.767  0.00  0.00    +0.000 A 
ATOM     20  C   UNL     1      -5.475   2.146  25.661  0.00  0.00    +0.001 A 
ATOM     21  N   UNL     1      -3.874   1.888  24.200  0.00  0.00    -0.244 NA
ATOM     22  C   UNL     1      -3.889   1.070  24.094  0.00  0.00    +0.096 A 
ENDBRANCH  12  13
ENDBRANCH  11  12
ENDBRANCH   7  11
TORSDOF 6
ENDMDL
MODEL 3
REMARK VINA RESULT:     -10.2      1.266      2.239
REMARK  Name = 
REMARK  6 active torsions:
REMARK  status: ('A' for Active; 'I' for Inactive)
REMARK    1  A    between atoms: C_2  and  C_3
REMARK    2  A    between atoms: C_5  and  C_6
REMARK    3  A    between atoms: C_6  and  C_7
REMARK    4  A    between atoms: C_7  and  N_11
REMARK    5  A    between atoms: N_11  and  C_12
REMARK    6  A    between atoms: C_12  and  C_13
REMARK                            x       y       z     vdW  Elec       q    Type
REMARK                         _______ _______ _______ _____ _____    ______ ____
ROOT
ATOM      7  C   UNL     1      -3.361   2.181  24.090  0.00  0.00    +0.120 C 
ATOM      8  C   UNL     1      -2.535   2.161  24.077  0.00  0.00    +0.161 C 
ATOM      9  O   UNL     1      -2.522   2.933  23.787  0.00  0.00    -0.351 OA
ATOM     10  C   UNL     1      -3.347   2.953  23.800  0.00  0.00    +0.161 C 
ENDROOT
BRANCH   7   6
ATOM      6  C   UNL     1      -4.186   2.200  24.103  0.00  0.00    +0.070 C 
BRANCH   6   5
ATOM      3  C   UNL     1      -5.502   2.781  25.679  0.00  0.00    +0.187 A 
ATOM      4  C   UNL     1      -5.320   2.303  25.032  0.00  0.00    +0.056 A 
ATOM      5  C   UNL     1      -4.580   2.533  24.746  0.00  0.00    +0.102 A 
ATOM     23  N   UNL     1      -4.307   3.152  25.217  0.00  0.00    -0.082 NA
ATOM     24  O   UNL     1      -4.876   3.306  25.793  0.00  0.00    -0.355 OA
BRANCH   3   2
ATOM      1  O   UNL     1      -6.211   2.273  26.811  0.00  0.00    -0.212 OA
ATOM      2  C   UNL     1      -6.190   2.742  26.133  0.00  0.00    +0.249 C 
ENDBRANCH   3   2
ENDBRANCH   6   5
ENDBRANCH   7   6
BRANCH   7  11
ATOM     11  N   UNL     1      -3.374   1.408  24.380  0.00  0.00    -0.211 NA
BRANCH  11  12
ATOM     12  C   UNL     1      -2.987   0.807  23.970  0.00  0.00    +0.117 C 
BRANCH  12  13
ATOM     13  C   UNL     1      -3.032   0.029  24.240  0.00  0.00    +0.014 A 
ATOM     14  C   UNL     1      -3.551  -0.503  23.881  0.00  0.00    +0.000 A 
ATOM     15  C   UNL     1      -3.597  -1.282  24.151  0.00  0.00    +0.017 A 
ATOM     16  C   UNL     1      -3.122  -1.529  24.780  0.00  0.00    +0.081 A 
ATOM     17  C   UNL     1      -3.167  -2.307  25.049  0.00  0.00    +0.019 A 
ATOM     18  C   UNL     1      -3.686  -2.838  24.691  0.00  0.00    +0.002 A 
ATOM     19  C   UNL     1      -4.161  -2.590  24.062  0.00  0.00    +0.000 A 
ATOM     20  C   UNL     1      -4.116  -1.813  23.792  0.00  0.00    +0.001 A 
ATOM     21  N   UNL     1      -2.603  -0.997  25.138  0.00  0.00    -0.244 NA
ATOM     22  C   UNL     1      -2.557  -0.218  24.869  0.00  0.00    +0.096 A 
ENDBRANCH  12  13
ENDBRANCH  11  12
ENDBRANCH   7  11
TORSDOF 6
ENDMDL
MODEL 4
REMARK VINA RESULT:      -9.8      1.748      4.829
REMARK  Name = 
REMARK  6 active torsions:
REMARK  status: ('A' for Active; 'I' for Inactive)
REMARK    1  A    between atoms: C_2  and  C_3
REMARK    2  A    between atoms: C_5  and  C_6
REMARK    3  A    between atoms: C_6  and  C_7
REMARK    4  A    between atoms: C_7  and  N_11
REMARK    5  A    between atoms: N_11  and  C_12
REMARK    6  A    between atoms: C_12  and  C_13
REMARK                            x       y       z     vdW  Elec       q    Type
REMARK                         _______ _______ _______ _____ _____    ______ ____
ROOT
ATOM      7  C   UNL     1      -4.385   1.077  24.789  0.00  0.00    +0.120 C 
ATOM      8  C   UNL     1      -4.732   1.674  25.242  0.00  0.00    +0.161 C 
ATOM      9  O   UNL     1      -5.450   1.268  25.226  0.00  0.00    -0.351 OA
ATOM     10  C   UNL     1      -5.103   0.672  24.774  0.00  0.00    +0.161 C 
ENDROOT
BRANCH   7   6
ATOM      6  C   UNL     1      -4.038   0.481  24.336  0.00  0.00    +0.070 C 
BRANCH   6   5
ATOM      3  C   UNL     1      -3.655  -1.561  24.821  0.00  0.00    +0.187 A 
ATOM      4  C   UNL     1      -3.822  -0.971  24.269  0.00  0.00    +0.056 A 
ATOM      5  C   UNL     1      -3.878  -0.253  24.674  0.00  0.00    +0.102 A 
ATOM     23  N   UNL     1      -3.746  -0.402  25.475  0.00  0.00    -0.082 NA
ATOM     24  O   UNL     1      -3.608  -1.210  25.566  0.00  0.00    -0.355 OA
BRANCH   3   2
ATOM      1  O   UNL     1      -3.535  -2.912  25.272  0.00  0.00    -0.212 OA
ATOM      2  C   UNL     1      -3.553  -2.364  24.656  0.00  0.00    +0.249 C 
ENDBRANCH   3   2
ENDBRANCH   6   5
ENDBRANCH   7   6
BRANCH   7  11
ATOM     11  N   UNL     1      -3.667   1.484  24.805  0.00  0.00    -0.211 NA
BRANCH  11  12
ATOM     12  C   UNL     1      -3.611   2.236  24.471  0.00  0.00    +0.117 C 
BRANCH  12  13
ATOM     13  C   UNL     1      -2.903   2.656  24.517  0.00  0.00    +0.014 A 
ATOM     14  C   UNL     1      -2.890   3.407  24.859  0.00  0.00    +0.000 A 
ATOM     15  C   UNL     1      -2.182   3.827  24.905  0.00  0.00    +0.017 A 
ATOM     16  C   UNL     1      -1.485   3.496  24.610  0.00  0.00    +0.081 A 
ATOM     17  C   UNL     1      -0.777   3.916  24.656  0.00  0.00    +0.019 A 
ATOM     18  C   UNL     1      -0.764   4.666  24.997  0.00  0.00    +0.002 A 
ATOM     19  C   UNL     1      -1.461   4.997  25.293  0.00  0.00    +0.000 A 
ATOM     20  C   UNL     1      -2.169   4.577  25.247  0.00  0.00    +0.001 A 
ATOM     21  N   UNL     1      -1.498   2.745  24.268  0.00  0.00    -0.244 NA
ATOM     22  C   UNL     1      -2.207   2.325  24.221  0.00  0.00    +0.096 A 
ENDBRANCH  12  13
ENDBRANCH  11  12
ENDBRANCH   7  11
TORSDOF 6
ENDMDL
MODEL 5
REMARK VINA RESULT:      -9.6      2.115      3.026
REMARK  Name = 
REMARK  6 active torsions:
REMARK  status: ('A' for Active; 'I' for Inactive)
REMARK    1  A    between atoms: C_2  and  C_3
REMARK    2  A    between atoms: C_5  and  C_6
REMARK    3  A    between atoms: C_6  and  C_7
REMARK    4  A    between atoms: C_7  and  N_11
REMARK    5  A    between atoms: N_11  and  C_12
REMARK    6  A    between atoms: C_12  and  C_13
REMARK                            x       y       z     vdW  Elec       q    Type
REMARK                         _______ _______ _______ _____ _____    ______ ____
ROOT
ATOM      7  C   UNL     1      -0.354   1.576  24.830  0.00  0.00    +0.120 C 
ATOM      8  C   UNL     1       0.129   1.199  24.276  0.00  0.00    +0.161 C 
ATOM      9  O   UNL     1       0.665   1.826  24.318  0.00  0.00    -0.351 OA
ATOM     10  C   UNL     1       0.182   2.202  24.872  0.00  0.00    +0.161 C 
ENDROOT
BRANCH   7   6
ATOM      6  C   UNL     1      -0.837   1.953  25.384  0.00  0.00    +0.070 C 
BRANCH   6   5
ATOM      3  C   UNL     1      -1.758   3.871  25.219  0.00  0.00    +0.187 A 
ATOM      4  C   UNL     1      -1.302   3.324  25.636  0.00  0.00    +0.056 A 
ATOM      5  C   UNL     1      -1.243   2.640  25.178  0.00  0.00    +0.102 A 
ATOM     23  N   UNL     1      -1.663   2.765  24.478  0.00  0.00    -0.082 NA
ATOM     24  O   UNL     1      -1.981   3.525  24.504  0.00  0.00    -0.355 OA
BRANCH   3   2
ATOM      1  O   UNL     1      -1.502   5.276  25.235  0.00  0.00    -0.212 OA
ATOM      2  C   UNL     1      -1.956   4.631  25.473  0.00  0.00    +0.249 C 
ENDBRANCH   3   2
ENDBRANCH   6   5
ENDBRANCH   7   6
BRANCH   7  11
ATOM     11  N   UNL     1      -0.890   0.950  24.788  0.00  0.00    -0.211 NA
BRANCH  11  12
ATOM     12  C   UNL     1      -0.706   0.226  25.135  0.00  0.00    +0.117 C 
BRANCH  12  13
ATOM     13  C   UNL     1      -1.195  -0.427  25.012  0.00  0.00    +0.014 A 
ATOM     14  C   UNL     1      -1.935  -0.463  25.373  0.00  0.00    +0.000 A 
ATOM     15  C   UNL     1      -2.425  -1.116  25.250  0.00  0.00    +0.017 A 
ATOM     16  C   UNL     1      -2.173  -1.734  24.763  0.00  0.00    +0.081 A 
ATOM     17  C   UNL     1      -2.661  -2.386  24.639  0.00  0.00    +0.019 A 
ATOM     18  C   UNL     1      -3.401  -2.422  25.001  0.00  0.00    +0.002 A 
ATOM     19  C   UNL     1      -3.653  -1.804  25.488  0.00  0.00    +0.000 A 
ATOM     20  C   UNL     1      -3.165  -1.152  25.612  0.00  0.00    +0.001 A 
ATOM     21  N   UNL     1      -1.432  -1.698  24.401  0.00  0.00    -0.244 NA
ATOM     22  C   UNL     1      -0.943  -1.045  24.525  0.00  0.00    +0.096 A 
ENDBRANCH  12  13
ENDBRANCH  11  12
ENDBRANCH   7  11
TORSDOF 6
ENDMDL
MODEL 6
REMARK VINA RESULT:      -9.6      2.698      5.225
REMARK  Name = 
REMARK  6 active torsions:
REMARK  status: ('A' for Active; 'I' for Inactive)
REMARK    1  A    between atoms: C_2  and  C_3
REMARK    2  A    between atoms: C_5  and  C_6
REMARK    3  A    between atoms: C_6  and  C_7
REMARK    4  A    between atoms: C_7  and  N_11
REMARK    5  A    between atoms: N_11  and  C_12
REMARK    6  A    between atoms: C_12  and  C_13
REMARK                            x       y       z     vdW  Elec       q    Type
REMARK                         _______ _______ _______ _____ _____    ______ ____
ROOT
ATOM      7  C   UNL     1      -1.125  -0.420  24.651  0.00  0.00    +0.120 C 
ATOM      8  C   UNL     1      -0.557  -0.038  24.189  0.00  0.00    +0.161 C 
ATOM      9  O   UNL     1       0.008  -0.590  24.428  0.00  0.00    -0.351 OA
ATOM     10  C   UNL     1      -0.560  -0.971  24.890  0.00  0.00    +0.161 C 
ENDROOT
BRANCH   7   6
ATOM      6  C   UNL     1      -1.693  -0.801  25.113  0.00  0.00    +0.070 C 
BRANCH   6   5
ATOM      3  C   UNL     1      -3.002  -2.389  24.550  0.00  0.00    +0.187 A 
ATOM      4  C   UNL     1      -2.868  -1.661  24.914  0.00  0.00    +0.056 A 
ATOM      5  C   UNL     1      -2.067  -1.479  24.831  0.00  0.00    +0.102 A 
ATOM     23  N   UNL     1      -1.708  -2.095  24.416  0.00  0.00    -0.082 NA
ATOM     24  O   UNL     1      -2.286  -2.658  24.242  0.00  0.00    -0.355 OA
BRANCH   3   2
ATOM      1  O   UNL     1      -4.231  -2.639  23.865  0.00  0.00    -0.212 OA
ATOM      2  C   UNL     1      -3.727  -2.781  24.502  0.00  0.00    +0.249 C 
ENDBRANCH   3   2
ENDBRANCH   6   5
ENDBRANCH   7   6
BRANCH   7  11
ATOM     11  N   UNL     1      -1.690   0.132  24.413  0.00  0.00    -0.211 NA
BRANCH  11  12
ATOM     12  C   UNL     1      -1.499   0.934  24.387  0.00  0.00    +0.117 C 
BRANCH  12  13
ATOM     13  C   UNL     1      -2.085   1.493  24.235  0.00  0.00    +0.014 A 
ATOM     14  C   UNL     1      -2.344   1.995  24.837  0.00  0.00    +0.000 A 
ATOM     15  C   UNL     1      -2.931   2.555  24.686  0.00  0.00    +0.017 A 
ATOM     16  C   UNL     1      -3.260   2.613  23.930  0.00  0.00    +0.081 A 
ATOM     17  C   UNL     1      -3.846   3.172  23.778  0.00  0.00    +0.019 A 
ATOM     18  C   UNL     1      -4.104   3.673  24.380  0.00  0.00    +0.002 A 
ATOM     19  C   UNL     1      -3.775   3.615  25.136  0.00  0.00    +0.000 A 
ATOM     20  C   UNL     1      -3.189   3.055  25.287  0.00  0.00    +0.001 A 
ATOM     21  N   UNL     1      -3.001   2.111  23.328  0.00  0.00    -0.244 NA
ATOM     22  C   UNL     1      -2.414   1.551  23.480  0.00  0.00    +0.096 A 
ENDBRANCH  12  13
ENDBRANCH  11  12
ENDBRANCH   7  11
TORSDOF 6
ENDMDL
MODEL 7
REMARK VINA RESULT:      -9.3      2.480      4.450
REMARK  Name = 
REMARK  6 active torsions:
REMARK  status: ('A' for Active; 'I' for Inactive)
REMARK    1  A    between atoms: C_2  and  C_3
REMARK    2  A    between atoms: C_5  and  C_6
REMARK    3  A    between atoms: C_6  and  C_7
REMARK    4  A    between atoms: C_7  and  N_11
REMARK    5  A    between atoms: N_11  and  C_12
REMARK    6  A    between atoms: C_12  and  C_13
REMARK                            x       y       z     vdW  Elec       q    Type
REMARK                         _______ _______ _______ _____ _____    ______ ____
ROOT
ATOM      7  C   UNL     1      -0.903   2.136  24.786  0.00  0.00    +0.120 C 
ATOM      8  C   UNL     1      -0.943   2.748  24.232  0.00  0.00    +0.161 C 
ATOM      9  O   UNL     1      -0.121   2.740  24.166  0.00  0.00    -0.351 OA
ATOM     10  C   UNL     1      -0.082   2.129  24.719  0.00  0.00    +0.161 C 
ENDROOT
BRANCH   7   6
ATOM      6  C   UNL     1      -0.865   1.525  25.339  0.00  0.00    +0.070 C 
BRANCH   6   5
ATOM      3  C   UNL     1      -0.771  -0.586  25.046  0.00  0.00    +0.187 A 
ATOM      4  C   UNL     1      -0.988   0.069  25.497  0.00  0.00    +0.056 A 
ATOM      5  C   UNL     1      -0.756   0.748  25.088  0.00  0.00    +0.102 A 
ATOM     23  N   UNL     1      -0.396   0.510  24.385  0.00  0.00    -0.082 NA
ATOM     24  O   UNL     1      -0.406  -0.314  24.358  0.00  0.00    -0.355 OA
BRANCH   3   2
ATOM      1  O   UNL     1      -1.454  -1.823  24.833  0.00  0.00    -0.212 OA
ATOM      2  C   UNL     1      -0.898  -1.377  25.247  0.00  0.00    +0.249 C 
ENDBRANCH   3   2
ENDBRANCH   6   5
ENDBRANCH   7   6
BRANCH   7  11
ATOM     11  N   UNL     1      -1.726   2.144  24.852  0.00  0.00    -0.211 NA
BRANCH  11  12
ATOM     12  C   UNL     1      -2.140   2.851  24.765  0.00  0.00    +0.117 C 
BRANCH  12  13
ATOM     13  C   UNL     1      -2.929   2.899  24.999  0.00  0.00    +0.014 A 
ATOM     14  C   UNL     1      -3.484   2.371  24.691  0.00  0.00    +0.000 A 
ATOM     15  C   UNL     1      -4.274   2.418  24.925  0.00  0.00    +0.017 A 
ATOM     16  C   UNL     1      -4.510   2.993  25.469  0.00  0.00    +0.081 A 
ATOM     17  C   UNL     1      -5.299   3.041  25.703  0.00  0.00    +0.019 A 
ATOM     18  C   UNL     1      -5.853   2.513  25.395  0.00  0.00    +0.002 A 
ATOM     19  C   UNL     1      -5.617   1.938  24.851  0.00  0.00    +0.000 A 
ATOM     20  C   UNL     1      -4.828   1.891  24.617  0.00  0.00    +0.001 A 
ATOM     21  N   UNL     1      -3.955   3.521  25.777  0.00  0.00    -0.244 NA
ATOM     22  C   UNL     1      -3.165   3.474  25.543  0.00  0.00    +0.096 A 
ENDBRANCH  12  13
ENDBRANCH  11  12
ENDBRANCH   7  11
TORSDOF 6
ENDMDL
