MODEL 1
REMARK VINA RESULT:     -10.1      0.000      0.000
REMARK  Name = 
REMARK  6 active torsions:
REMARK  status: ('A' for Active; 'I' for Inactive)
REMARK    1  A    between atoms: C_3  and  C_4
REMARK    2  A    between atoms: C_4  and  N_5
REMARK    3  A    between atoms: C_6  and  C_8
REMARK    4  A    between atoms: C_13  and  N_14
REMARK    5  A    between atoms: N_14  and  C_15
REMARK    6  A    between atoms: C_15  and  C_16
REMARK                            x       y       z     vdW  Elec       q    Type
REMARK                         _______ _______ _______ _____ _____    ______ ____
ROOT
ATOM      1  O   UNL     1      -1.152   0.557  25.238  0.00  0.00    -0.219 OA
ATOM      2  C   UNL     1      -1.861   0.946  25.077  0.00  0.00    +0.199 C 
ATOM      3  C   UNL     1      -1.969   1.764  25.045  0.00  0.00    +0.169 C 
ATOM     11  O   UNL     1      -2.760   1.910  24.867  0.00  0.00    -0.350 OA
ATOM     12  C   UNL     1      -3.142   1.183  24.789  0.00  0.00    +0.162 C 
ATOM     13  C   UNL     1      -2.587   0.588  24.918  0.00  0.00    +0.135 C 
ENDROOT
BRANCH   3   4
ATOM      4  C   UNL     1      -1.386   2.335  25.170  0.00  0.00    +0.147 C 
BRANCH   4   5
ATOM      5  N   UNL     1      -1.567   3.135  25.081  0.00  0.00    -0.203 NA
ATOM      6  C   UNL     1      -0.989   3.707  25.219  0.00  0.00    +0.241 C 
ATOM      7  O   UNL     1      -0.229   3.478  25.447  0.00  0.00    -0.273 OA
BRANCH   6   8
ATOM      8  C   UNL     1      -1.170   4.507  25.131  0.00  0.00    +0.078 C 
ATOM      9  C   UNL     1      -0.958   5.263  24.880  0.00  0.00    +0.010 C 
ATOM     10  C   UNL     1      -1.695   5.135  25.227  0.00  0.00    +0.010 C 
ENDBRANCH   6   8
ENDBRANCH   4   5
ENDBRANCH   3   4
BRANCH  13  14
ATOM     14  N   UNL     1      -2.730  -0.224  24.894  0.00  0.00    -0.209 NA
BRANCH  14  15
ATOM     15  C   UNL     1      -3.435  -0.509  24.572  0.00  0.00    +0.117 C 
BRANCH  15  16
ATOM     16  C   UNL     1      -3.567  -1.322  24.523  0.00  0.00    +0.023 A 
ATOM     17  C   UNL     1      -3.269  -1.823  25.107  0.00  0.00    -0.001 A 
ATOM     18  C   UNL     1      -3.401  -2.636  25.058  0.00  0.00    -0.000 A 
ATOM     19  C   UNL     1      -3.831  -2.947  24.427  0.00  0.00    +0.002 A 
ATOM     20  C   UNL     1      -4.129  -2.446  23.844  0.00  0.00    +0.029 A 
ATOM     21  C   UNL     1      -3.997  -1.633  23.892  0.00  0.00    +0.137 A 
ATOM     22  F   UNL     1      -4.295  -1.131  23.309  0.00  0.00    -0.204 F 
ENDBRANCH  15  16
ENDBRANCH  14  15
ENDBRANCH  13  14
TORSDOF 6
ENDMDL
MODEL 2
REMARK VINA RESULT:      -9.6      1.692      5.632
REMARK  Name = 
REMARK  6 active torsions:
REMARK  status: ('A' for Active; 'I' for Inactive)
REMARK    1  A    between atoms: C_3  and  C_4
REMARK    2  A    between atoms: C_4  and  N_5
REMARK    3  A    between atoms: C_6  and  C_8
REMARK    4  A    between atoms: C_13  and  N_14
REMARK    5  A    between atoms: N_14  and  C_15
REMARK    6  A    between atoms: C_15  and  C_16
REMARK                            x       y       z     vdW  Elec       q    Type
REMARK                         _______ _______ _______ _____ _____    ______ ____
ROOT
ATOM      1  O   UNL     1      -3.844   1.749  24.282  0.00  0.00    -0.219 OA
ATOM      2  C   UNL     1      -3.160   1.385  24.566  0.00  0.00    +0.199 C 
ATOM      3  C   UNL     1      -3.030   0.571  24.619  0.00  0.00    +0.169 C 
ATOM     11  O   UNL     1      -2.277   0.454  24.932  0.00  0.00    -0.350 OA
ATOM     12  C   UNL     1      -1.941   1.194  25.073  0.00  0.00    +0.162 C 
ATOM     13  C   UNL     1      -2.487   1.769  24.847  0.00  0.00    +0.135 C 
ENDROOT
BRANCH   3   4
ATOM      4  C   UNL     1      -3.561  -0.020  24.397  0.00  0.00    +0.147 C 
BRANCH   4   5
ATOM      5  N   UNL     1      -3.365  -0.813  24.510  0.00  0.00    -0.203 NA
ATOM      6  C   UNL     1      -3.907  -1.404  24.317  0.00  0.00    +0.241 C 
ATOM      7  O   UNL     1      -4.647  -1.201  24.011  0.00  0.00    -0.273 OA
BRANCH   6   8
ATOM      8  C   UNL     1      -3.711  -2.198  24.430  0.00  0.00    +0.078 C 
ATOM      9  C   UNL     1      -3.616  -2.960  24.128  0.00  0.00    +0.010 C 
ATOM     10  C   UNL     1      -3.466  -2.809  24.925  0.00  0.00    +0.010 C 
ENDBRANCH   6   8
ENDBRANCH   4   5
ENDBRANCH   3   4
BRANCH  13  14
ATOM     14  N   UNL     1      -2.379   2.586  24.892  0.00  0.00    -0.209 NA
BRANCH  14  15
ATOM     15  C   UNL     1      -1.625   2.895  25.024  0.00  0.00    +0.117 C 
BRANCH  15  16
ATOM     16  C   UNL     1      -1.514   3.712  25.046  0.00  0.00    +0.023 A 
ATOM     17  C   UNL     1      -2.097   4.199  25.369  0.00  0.00    -0.001 A 
ATOM     18  C   UNL     1      -1.985   5.017  25.391  0.00  0.00    -0.000 A 
ATOM     19  C   UNL     1      -1.292   5.347  25.090  0.00  0.00    +0.002 A 
ATOM     20  C   UNL     1      -0.709   4.860  24.767  0.00  0.00    +0.029 A 
ATOM     21  C   UNL     1      -0.820   4.042  24.745  0.00  0.00    +0.137 A 
ATOM     22  F   UNL     1      -0.238   3.556  24.422  0.00  0.00    -0.204 F 
ENDBRANCH  15  16
ENDBRANCH  14  15
ENDBRANCH  13  14
TORSDOF 6
ENDMDL
MODEL 3
REMARK VINA RESULT:      -8.0      2.827      4.171
REMARK  Name = 
REMARK  6 active torsions:
REMARK  status: ('A' for Active; 'I' for Inactive)
REMARK    1  A    between atoms: C_3  and  C_4
REMARK    2  A    between atoms: C_4  and  N_5
REMARK    3  A    between atoms: C_6  and  C_8
REMARK    4  A    between atoms: C_13  and  N_14
REMARK    5  A    between atoms: N_14  and  C_15
REMARK    6  A    between atoms: C_15  and  C_16
REMARK                            x       y       z     vdW  Elec       q    Type
REMARK                         _______ _______ _______ _____ _____    ______ ____
ROOT
ATOM      1  O   UNL     1      -2.220   0.195  25.147  0.00  0.00    -0.219 OA
ATOM      2  C   UNL     1      -2.092   0.740  24.540  0.00  0.00    +0.199 C 
ATOM      3  C   UNL     1      -1.425   0.780  24.057  0.00  0.00    +0.169 C 
ATOM     11  O   UNL     1      -1.530   1.404  23.529  0.00  0.00    -0.350 OA
ATOM     12  C   UNL     1      -2.262   1.750  23.685  0.00  0.00    +0.162 C 
ATOM     13  C   UNL     1      -2.610   1.340  24.310  0.00  0.00    +0.135 C 
ENDROOT
BRANCH   3   4
ATOM      4  C   UNL     1      -0.768   0.283  24.096  0.00  0.00    +0.147 C 
BRANCH   4   5
ATOM      5  N   UNL     1      -0.151   0.371  23.555  0.00  0.00    -0.203 NA
ATOM      6  C   UNL     1       0.451  -0.191  23.520  0.00  0.00    +0.241 C 
ATOM      7  O   UNL     1       0.437  -0.843  24.027  0.00  0.00    -0.273 OA
BRANCH   6   8
ATOM      8  C   UNL     1       1.068  -0.103  22.979  0.00  0.00    +0.078 C 
ATOM      9  C   UNL     1       1.844   0.120  22.811  0.00  0.00    +0.010 C 
ATOM     10  C   UNL     1       1.359  -0.173  22.211  0.00  0.00    +0.010 C 
ENDBRANCH   6   8
ENDBRANCH   4   5
ENDBRANCH   3   4
BRANCH  13  14
ATOM     14  N   UNL     1      -3.346   1.500  24.647  0.00  0.00    -0.209 NA
BRANCH  14  15
ATOM     15  C   UNL     1      -3.673   2.255  24.581  0.00  0.00    +0.117 C 
BRANCH  15  16
ATOM     16  C   UNL     1      -4.420   2.409  24.898  0.00  0.00    +0.023 A 
ATOM     17  C   UNL     1      -5.030   1.861  24.799  0.00  0.00    -0.001 A 
ATOM     18  C   UNL     1      -5.776   2.015  25.116  0.00  0.00    -0.000 A 
ATOM     19  C   UNL     1      -5.912   2.715  25.530  0.00  0.00    +0.002 A 
ATOM     20  C   UNL     1      -5.303   3.262  25.627  0.00  0.00    +0.029 A 
ATOM     21  C   UNL     1      -4.556   3.109  25.311  0.00  0.00    +0.137 A 
ATOM     22  F   UNL     1      -3.947   3.656  25.409  0.00  0.00    -0.204 F 
ENDBRANCH  15  16
ENDBRANCH  14  15
ENDBRANCH  13  14
TORSDOF 6
ENDMDL
MODEL 4
REMARK VINA RESULT:      -7.3     17.691     19.281
REMARK  Name = 
REMARK  6 active torsions:
REMARK  status: ('A' for Active; 'I' for Inactive)
REMARK    1  A    between atoms: C_3  and  C_4
REMARK    2  A    between atoms: C_4  and  N_5
REMARK    3  A    between atoms: C_6  and  C_8
REMARK    4  A    between atoms: C_13  and  N_14
REMARK    5  A    between atoms: N_14  and  C_15
REMARK    6  A    between atoms: C_15  and  C_16
REMARK                            x       y       z     vdW  Elec       q    Type
REMARK                         _______ _______ _______ _____ _____    ______ ____
ROOT
ATOM      1  O   UNL     1      13.092   6.954  19.485  0.00  0.00    -0.219 OA
ATOM      2  C   UNL     1      13.487   7.315  18.857  0.00  0.00    +0.199 C 
ATOM      3  C   UNL     1      13.135   7.721  18.231  0.00  0.00    +0.169 C 
ATOM     11  O   UNL     1      13.733   7.990  17.732  0.00  0.00    -0.350 OA
ATOM     12  C   UNL     1      14.456   7.751  18.050  0.00  0.00    +0.162 C 
ATOM     13  C   UNL     1      14.304   7.335  18.745  0.00  0.00    +0.135 C 
ENDROOT
BRANCH   3   4
ATOM      4  C   UNL     1      12.325   7.836  18.123  0.00  0.00    +0.147 C 
BRANCH   4   5
ATOM      5  N   UNL     1      12.041   8.120  17.402  0.00  0.00    -0.203 NA
ATOM      6  C   UNL     1      11.260   8.376  17.338  0.00  0.00    +0.241 C 
ATOM      7  O   UNL     1      10.761   8.349  17.995  0.00  0.00    -0.273 OA
BRANCH   6   8
ATOM      8  C   UNL     1      10.976   8.660  16.617  0.00  0.00    +0.078 C 
ATOM      9  C   UNL     1      10.370   8.717  16.061  0.00  0.00    +0.010 C 
ATOM     10  C   UNL     1      11.091   9.093  15.925  0.00  0.00    +0.010 C 
ENDBRANCH   6   8
ENDBRANCH   4   5
ENDBRANCH   3   4
BRANCH  13  14
ATOM     14  N   UNL     1      14.869   6.995  19.241  0.00  0.00    -0.209 NA
BRANCH  14  15
ATOM     15  C   UNL     1      15.658   6.958  19.002  0.00  0.00    +0.117 C 
BRANCH  15  16
ATOM     16  C   UNL     1      16.240   6.724  19.538  0.00  0.00    +0.023 A 
ATOM     17  C   UNL     1      16.244   7.033  20.303  0.00  0.00    -0.001 A 
ATOM     18  C   UNL     1      16.826   6.798  20.839  0.00  0.00    -0.000 A 
ATOM     19  C   UNL     1      17.403   6.255  20.610  0.00  0.00    +0.002 A 
ATOM     20  C   UNL     1      17.399   5.947  19.846  0.00  0.00    +0.029 A 
ATOM     21  C   UNL     1      16.817   6.181  19.309  0.00  0.00    +0.137 A 
ATOM     22  F   UNL     1      16.813   5.872  18.544  0.00  0.00    -0.204 F 
ENDBRANCH  15  16
ENDBRANCH  14  15
ENDBRANCH  13  14
TORSDOF 6
ENDMDL
MODEL 5
REMARK VINA RESULT:      -7.2      1.280      1.635
REMARK  Name = 
REMARK  6 active torsions:
REMARK  status: ('A' for Active; 'I' for Inactive)
REMARK    1  A    between atoms: C_3  and  C_4
REMARK    2  A    between atoms: C_4  and  N_5
REMARK    3  A    between atoms: C_6  and  C_8
REMARK    4  A    between atoms: C_13  and  N_14
REMARK    5  A    between atoms: N_14  and  C_15
REMARK    6  A    between atoms: C_15  and  C_16
REMARK                            x       y       z     vdW  Elec       q    Type
REMARK                         _______ _______ _______ _____ _____    ______ ____
ROOT
ATOM      1  O   UNL     1      -3.792   1.318  24.007  0.00  0.00    -0.219 OA
ATOM      2  C   UNL     1      -3.078   1.117  24.367  0.00  0.00    +0.199 C 
ATOM      3  C   UNL     1      -2.493   1.645  24.614  0.00  0.00    +0.169 C 
ATOM     11  O   UNL     1      -1.877   1.207  24.942  0.00  0.00    -0.350 OA
ATOM     12  C   UNL     1      -2.079   0.408  24.898  0.00  0.00    +0.162 C 
ATOM     13  C   UNL     1      -2.821   0.353  24.543  0.00  0.00    +0.135 C 
ENDROOT
BRANCH   3   4
ATOM      4  C   UNL     1      -2.522   2.466  24.544  0.00  0.00    +0.147 C 
BRANCH   4   5
ATOM      5  N   UNL     1      -2.716   2.929  25.199  0.00  0.00    -0.203 NA
ATOM      6  C   UNL     1      -2.571   3.741  25.189  0.00  0.00    +0.241 C 
ATOM      7  O   UNL     1      -2.230   4.090  24.523  0.00  0.00    -0.273 OA
BRANCH   6   8
ATOM      8  C   UNL     1      -2.766   4.203  25.844  0.00  0.00    +0.078 C 
ATOM      9  C   UNL     1      -3.310   4.669  26.253  0.00  0.00    +0.010 C 
ATOM     10  C   UNL     1      -2.559   4.539  26.568  0.00  0.00    +0.010 C 
ENDBRANCH   6   8
ENDBRANCH   4   5
ENDBRANCH   3   4
BRANCH  13  14
ATOM     14  N   UNL     1      -3.235  -0.344  24.390  0.00  0.00    -0.209 NA
BRANCH  14  15
ATOM     15  C   UNL     1      -2.870  -1.075  24.507  0.00  0.00    +0.117 C 
BRANCH  15  16
ATOM     16  C   UNL     1      -3.289  -1.772  24.369  0.00  0.00    +0.023 A 
ATOM     17  C   UNL     1      -3.941  -1.767  23.863  0.00  0.00    -0.001 A 
ATOM     18  C   UNL     1      -4.360  -2.464  23.724  0.00  0.00    -0.000 A 
ATOM     19  C   UNL     1      -4.128  -3.165  24.091  0.00  0.00    +0.002 A 
ATOM     20  C   UNL     1      -3.476  -3.170  24.596  0.00  0.00    +0.029 A 
ATOM     21  C   UNL     1      -3.057  -2.473  24.736  0.00  0.00    +0.137 A 
ATOM     22  F   UNL     1      -2.405  -2.478  25.241  0.00  0.00    -0.204 F 
ENDBRANCH  15  16
ENDBRANCH  14  15
ENDBRANCH  13  14
TORSDOF 6
ENDMDL
MODEL 6
REMARK VINA RESULT:      -6.5     17.846     19.309
REMARK  Name = 
REMARK  6 active torsions:
REMARK  status: ('A' for Active; 'I' for Inactive)
REMARK    1  A    between atoms: C_3  and  C_4
REMARK    2  A    between atoms: C_4  and  N_5
REMARK    3  A    between atoms: C_6  and  C_8
REMARK    4  A    between atoms: C_13  and  N_14
REMARK    5  A    between atoms: N_14  and  C_15
REMARK    6  A    between atoms: C_15  and  C_16
REMARK                            x       y       z     vdW  Elec       q    Type
REMARK                         _______ _______ _______ _____ _____    ______ ____
ROOT
ATOM      1  O   UNL     1      14.197   6.966  17.274  0.00  0.00    -0.219 OA
ATOM      2  C   UNL     1      14.258   7.575  17.827  0.00  0.00    +0.199 C 
ATOM      3  C   UNL     1      14.768   7.591  18.476  0.00  0.00    +0.169 C 
ATOM     11  O   UNL     1      14.644   8.299  18.879  0.00  0.00    -0.350 OA
ATOM     12  C   UNL     1      14.059   8.721  18.480  0.00  0.00    +0.162 C 
ATOM     13  C   UNL     1      13.820   8.274  17.830  0.00  0.00    +0.135 C 
ENDROOT
BRANCH   3   4
ATOM      4  C   UNL     1      15.306   7.001  18.684  0.00  0.00    +0.147 C 
BRANCH   4   5
ATOM      5  N   UNL     1      15.694   7.035  19.412  0.00  0.00    -0.203 NA
ATOM      6  C   UNL     1      16.262   6.469  19.603  0.00  0.00    +0.241 C 
ATOM      7  O   UNL     1      16.443   5.869  19.067  0.00  0.00    -0.273 OA
BRANCH   6   8
ATOM      8  C   UNL     1      16.650   6.503  20.331  0.00  0.00    +0.078 C 
ATOM      9  C   UNL     1      16.623   6.583  21.151  0.00  0.00    +0.010 C 
ATOM     10  C   UNL     1      17.348   6.483  20.770  0.00  0.00    +0.010 C 
ENDBRANCH   6   8
ENDBRANCH   4   5
ENDBRANCH   3   4
BRANCH  13  14
ATOM     14  N   UNL     1      13.244   8.486  17.279  0.00  0.00    -0.209 NA
BRANCH  14  15
ATOM     15  C   UNL     1      12.481   8.673  17.532  0.00  0.00    +0.117 C 
BRANCH  15  16
ATOM     16  C   UNL     1      11.876   8.769  16.980  0.00  0.00    +0.023 A 
ATOM     17  C   UNL     1      12.056   8.997  16.207  0.00  0.00    -0.001 A 
ATOM     18  C   UNL     1      11.450   9.093  15.654  0.00  0.00    -0.000 A 
ATOM     19  C   UNL     1      10.667   8.961  15.874  0.00  0.00    +0.002 A 
ATOM     20  C   UNL     1      10.487   8.733  16.646  0.00  0.00    +0.029 A 
ATOM     21  C   UNL     1      11.092   8.637  17.199  0.00  0.00    +0.137 A 
ATOM     22  F   UNL     1      10.912   8.408  17.971  0.00  0.00    -0.204 F 
ENDBRANCH  15  16
ENDBRANCH  14  15
ENDBRANCH  13  14
TORSDOF 6
ENDMDL
MODEL 7
REMARK VINA RESULT:      -6.4      2.921      4.188
REMARK  Name = 
REMARK  6 active torsions:
REMARK  status: ('A' for Active; 'I' for Inactive)
REMARK    1  A    between atoms: C_3  and  C_4
REMARK    2  A    between atoms: C_4  and  N_5
REMARK    3  A    between atoms: C_6  and  C_8
REMARK    4  A    between atoms: C_13  and  N_14
REMARK    5  A    between atoms: N_14  and  C_15
REMARK    6  A    between atoms: C_15  and  C_16
REMARK                            x       y       z     vdW  Elec       q    Type
REMARK                         _______ _______ _______ _____ _____    ______ ____
ROOT
ATOM      1  O   UNL     1      -2.965   1.191  23.318  0.00  0.00    -0.219 OA
ATOM      2  C   UNL     1      -2.878   0.806  24.043  0.00  0.00    +0.199 C 
ATOM      3  C   UNL     1      -3.464   0.712  24.616  0.00  0.00    +0.169 C 
ATOM     11  O   UNL     1      -3.138   0.296  25.248  0.00  0.00    -0.350 OA
ATOM     12  C   UNL     1      -2.350   0.133  25.067  0.00  0.00    +0.162 C 
ATOM     13  C   UNL     1      -2.189   0.448  24.322  0.00  0.00    +0.135 C 
ENDROOT
BRANCH   3   4
ATOM      4  C   UNL     1      -4.241   0.986  24.564  0.00  0.00    +0.147 C 
BRANCH   4   5
ATOM      5  N   UNL     1      -4.485   1.623  25.029  0.00  0.00    -0.203 NA
ATOM      6  C   UNL     1      -5.279   1.845  25.041  0.00  0.00    +0.241 C 
ATOM      7  O   UNL     1      -5.830   1.430  24.587  0.00  0.00    -0.273 OA
BRANCH   6   8
ATOM      8  C   UNL     1      -5.523   2.481  25.506  0.00  0.00    +0.078 C 
ATOM      9  C   UNL     1      -5.871   2.769  26.196  0.00  0.00    +0.010 C 
ATOM     10  C   UNL     1      -5.597   3.294  25.621  0.00  0.00    +0.010 C 
ENDBRANCH   6   8
ENDBRANCH   4   5
ENDBRANCH   3   4
BRANCH  13  14
ATOM     14  N   UNL     1      -1.467   0.412  23.925  0.00  0.00    -0.209 NA
BRANCH  14  15
ATOM     15  C   UNL     1      -0.766   0.574  24.330  0.00  0.00    +0.117 C 
BRANCH  15  16
ATOM     16  C   UNL     1      -0.043   0.536  23.933  0.00  0.00    +0.023 A 
ATOM     17  C   UNL     1       0.131  -0.115  23.457  0.00  0.00    -0.001 A 
ATOM     18  C   UNL     1       0.853  -0.154  23.060  0.00  0.00    -0.000 A 
ATOM     19  C   UNL     1       1.401   0.457  23.140  0.00  0.00    +0.002 A 
ATOM     20  C   UNL     1       1.227   1.108  23.616  0.00  0.00    +0.029 A 
ATOM     21  C   UNL     1       0.504   1.147  24.013  0.00  0.00    +0.137 A 
ATOM     22  F   UNL     1       0.330   1.797  24.489  0.00  0.00    -0.204 F 
ENDBRANCH  15  16
ENDBRANCH  14  15
ENDBRANCH  13  14
TORSDOF 6
ENDMDL
MODEL 8
REMARK VINA RESULT:      -6.4     16.230     18.517
REMARK  Name = 
REMARK  6 active torsions:
REMARK  status: ('A' for Active; 'I' for Inactive)
REMARK    1  A    between atoms: C_3  and  C_4
REMARK    2  A    between atoms: C_4  and  N_5
REMARK    3  A    between atoms: C_6  and  C_8
REMARK    4  A    between atoms: C_13  and  N_14
REMARK    5  A    between atoms: N_14  and  C_15
REMARK    6  A    between atoms: C_15  and  C_16
REMARK                            x       y       z     vdW  Elec       q    Type
REMARK                         _______ _______ _______ _____ _____    ______ ____
ROOT
ATOM      1  O   UNL     1      13.024   6.716  19.392  0.00  0.00    -0.219 OA
ATOM      2  C   UNL     1      13.373   7.004  20.082  0.00  0.00    +0.199 C 
ATOM      3  C   UNL     1      12.982   7.390  20.699  0.00  0.00    +0.169 C 
ATOM     11  O   UNL     1      13.541   7.581  21.274  0.00  0.00    -0.350 OA
ATOM     12  C   UNL     1      14.276   7.314  21.014  0.00  0.00    +0.162 C 
ATOM     13  C   UNL     1      14.173   6.958  20.278  0.00  0.00    +0.135 C 
ENDROOT
BRANCH   3   4
ATOM      4  C   UNL     1      12.174   7.555  20.732  0.00  0.00    +0.147 C 
BRANCH   4   5
ATOM      5  N   UNL     1      11.869   7.995  21.359  0.00  0.00    -0.203 NA
ATOM      6  C   UNL     1      11.065   8.178  21.383  0.00  0.00    +0.241 C 
ATOM      7  O   UNL     1      10.566   7.919  20.779  0.00  0.00    -0.273 OA
BRANCH   6   8
ATOM      8  C   UNL     1      10.760   8.619  22.010  0.00  0.00    +0.078 C 
ATOM      9  C   UNL     1      10.113   8.907  22.433  0.00  0.00    +0.010 C 
ATOM     10  C   UNL     1      10.879   9.094  22.674  0.00  0.00    +0.010 C 
ENDBRANCH   6   8
ENDBRANCH   4   5
ENDBRANCH   3   4
BRANCH  13  14
ATOM     14  N   UNL     1      14.765   6.615  19.816  0.00  0.00    -0.209 NA
BRANCH  14  15
ATOM     15  C   UNL     1      15.559   6.761  19.989  0.00  0.00    +0.117 C 
BRANCH  15  16
ATOM     16  C   UNL     1      16.151   6.408  19.536  0.00  0.00    +0.023 A 
ATOM     17  C   UNL     1      16.083   6.386  18.714  0.00  0.00    -0.001 A 
ATOM     18  C   UNL     1      16.675   6.032  18.261  0.00  0.00    -0.000 A 
ATOM     19  C   UNL     1      17.334   5.701  18.630  0.00  0.00    +0.002 A 
ATOM     20  C   UNL     1      17.402   5.723  19.451  0.00  0.00    +0.029 A 
ATOM     21  C   UNL     1      16.810   6.076  19.905  0.00  0.00    +0.137 A 
ATOM     22  F   UNL     1      16.878   6.098  20.727  0.00  0.00    -0.204 F 
ENDBRANCH  15  16
ENDBRANCH  14  15
ENDBRANCH  13  14
TORSDOF 6
ENDMDL
MODEL 9
REMARK VINA RESULT:      -6.3      2.658      3.278
REMARK  Name = 
REMARK  6 active torsions:
REMARK  status: ('A' for Active; 'I' for Inactive)
REMARK    1  A    between atoms: C_3  and  C_4
REMARK    2  A    between atoms: C_4  and  N_5
REMARK    3  A    between atoms: C_6  and  C_8
REMARK    4  A    between atoms: C_13  and  N_14
REMARK    5  A    between atoms: N_14  and  C_15
REMARK    6  A    between atoms: C_15  and  C_16
REMARK                            x       y       z     vdW  Elec       q    Type
REMARK                         _______ _______ _______ _____ _____    ______ ____
ROOT
ATOM      1  O   UNL     1      -3.619   0.690  23.778  0.00  0.00    -0.219 OA
ATOM      2  C   UNL     1      -3.884   0.349  24.481  0.00  0.00    +0.199 C 
ATOM      3  C   UNL     1      -4.544   0.585  24.916  0.00  0.00    +0.169 C 
ATOM     11  O   UNL     1      -4.604   0.095  25.576  0.00  0.00    -0.350 OA
ATOM     12  C   UNL     1      -3.981  -0.446  25.548  0.00  0.00    +0.162 C 
ATOM     13  C   UNL     1      -3.537  -0.288  24.872  0.00  0.00    +0.135 C 
ENDROOT
BRANCH   3   4
ATOM      4  C   UNL     1      -5.055   1.205  24.725  0.00  0.00    +0.147 C 
BRANCH   4   5
ATOM      5  N   UNL     1      -4.936   1.953  25.052  0.00  0.00    -0.203 NA
ATOM      6  C   UNL     1      -5.545   2.509  25.043  0.00  0.00    +0.241 C 
ATOM      7  O   UNL     1      -6.274   2.317  24.705  0.00  0.00    -0.273 OA
BRANCH   6   8
ATOM      8  C   UNL     1      -5.427   3.257  25.371  0.00  0.00    +0.078 C 
ATOM      9  C   UNL     1      -4.931   3.896  25.530  0.00  0.00    +0.010 C 
ATOM     10  C   UNL     1      -5.717   3.911  25.779  0.00  0.00    +0.010 C 
ENDBRANCH   6   8
ENDBRANCH   4   5
ENDBRANCH   3   4
BRANCH  13  14
ATOM     14  N   UNL     1      -2.862  -0.696  24.628  0.00  0.00    -0.209 NA
BRANCH  14  15
ATOM     15  C   UNL     1      -2.624  -1.376  25.031  0.00  0.00    +0.117 C 
BRANCH  15  16
ATOM     16  C   UNL     1      -1.845  -1.641  24.967  0.00  0.00    +0.023 A 
ATOM     17  C   UNL     1      -1.227  -1.181  25.263  0.00  0.00    -0.001 A 
ATOM     18  C   UNL     1      -0.448  -1.446  25.199  0.00  0.00    -0.000 A 
ATOM     19  C   UNL     1      -0.288  -2.170  24.838  0.00  0.00    +0.002 A 
ATOM     20  C   UNL     1      -0.905  -2.630  24.542  0.00  0.00    +0.029 A 
ATOM     21  C   UNL     1      -1.684  -2.365  24.606  0.00  0.00    +0.137 A 
ATOM     22  F   UNL     1      -2.302  -2.825  24.310  0.00  0.00    -0.204 F 
ENDBRANCH  15  16
ENDBRANCH  14  15
ENDBRANCH  13  14
TORSDOF 6
ENDMDL
