MODEL 1
REMARK VINA RESULT:     -11.1      0.000      0.000
REMARK  Name = 
REMARK  6 active torsions:
REMARK  status: ('A' for Active; 'I' for Inactive)
REMARK    1  A    between atoms: S_2  and  C_3
REMARK    2  A    between atoms: C_6  and  C_9
REMARK    3  A    between atoms: C_17  and  C_19
REMARK    4  A    between atoms: C_19  and  S_20
REMARK    5  A    between atoms: S_20  and  C_21
REMARK    6  A    between atoms: C_21  and  C_22
REMARK                            x       y       z     vdW  Elec       q    Type
REMARK                         _______ _______ _______ _____ _____    ______ ____
ROOT
ATOM      9  C   UNL     1      -3.905   0.230  24.675  0.00  0.00    +0.012 A 
ATOM     10  C   UNL     1      -3.266   0.689  24.427  0.00  0.00    +0.041 A 
ATOM     11  C   UNL     1      -2.409   0.605  24.107  0.00  0.00    +0.058 C 
ATOM     12  C   UNL     1      -1.930   0.122  23.936  0.00  0.00    +0.011 C 
ATOM     13  C   UNL     1      -1.989   0.934  23.944  0.00  0.00    +0.043 C 
ATOM     14  C   UNL     1      -1.868   1.913  23.881  0.00  0.00    +0.095 C 
ATOM     15  N   UNL     1      -2.615   2.164  24.157  0.00  0.00    -0.278 N 
ATOM     16  C   UNL     1      -2.276   1.549  24.040  0.00  0.00    +0.099 C 
ATOM     17  C   UNL     1      -3.221   2.680  24.375  0.00  0.00    +0.237 C 
ATOM     18  O   UNL     1      -3.940   2.380  24.650  0.00  0.00    -0.274 OA
ATOM     25  C   UNL     1      -2.884   1.031  24.278  0.00  0.00    +0.110 C 
ATOM     26  N   UNL     1      -3.322   1.512  24.434  0.00  0.00    -0.299 N 
ATOM     27  C   UNL     1      -4.018   1.876  24.688  0.00  0.00    +0.261 A 
ATOM     28  O   UNL     1      -4.309   2.642  24.783  0.00  0.00    -0.267 OA
ATOM     29  C   UNL     1      -4.657   1.417  24.935  0.00  0.00    +0.061 A 
ATOM     30  C   UNL     1      -4.600   0.594  24.929  0.00  0.00    +0.006 A 
ENDROOT
BRANCH   9   6
ATOM      3  C   UNL     1      -3.735  -2.240  24.655  0.00  0.00    +0.025 A 
ATOM      4  C   UNL     1      -4.026  -1.841  23.994  0.00  0.00    +0.006 A 
ATOM      5  C   UNL     1      -4.082  -1.018  24.001  0.00  0.00    +0.001 A 
ATOM      6  C   UNL     1      -3.848  -0.594  24.668  0.00  0.00    +0.001 A 
ATOM      7  C   UNL     1      -3.558  -0.992  25.329  0.00  0.00    +0.001 A 
ATOM      8  C   UNL     1      -3.502  -1.816  25.323  0.00  0.00    +0.006 A 
BRANCH   3   2
ATOM      1  C   UNL     1      -3.028  -3.429  24.298  0.00  0.00    +0.074 C 
ATOM      2  S   UNL     1      -3.679  -3.062  24.648  0.00  0.00    -0.113 S 
ENDBRANCH   3   2
ENDBRANCH   9   6
BRANCH  17  19
ATOM     19  C   UNL     1      -3.109   3.495  24.318  0.00  0.00    +0.143 C 
BRANCH  19  20
ATOM     20  S   UNL     1      -2.729   3.902  24.927  0.00  0.00    -0.119 S 
BRANCH  20  21
ATOM     21  C   UNL     1      -2.491   4.685  24.815  0.00  0.00    +0.172 C 
BRANCH  21  22
ATOM     22  C   UNL     1      -1.982   5.043  25.357  0.00  0.00    +0.376 C 
ATOM     23  O   UNL     1      -2.156   5.017  26.163  0.00  0.00    -0.245 OA
ATOM     24  O   UNL     1      -1.301   5.426  25.093  0.00  0.00    -0.245 OA
ENDBRANCH  21  22
ENDBRANCH  20  21
ENDBRANCH  19  20
ENDBRANCH  17  19
TORSDOF 6
ENDMDL
MODEL 2
REMARK VINA RESULT:     -10.6      2.101      5.136
REMARK  Name = 
REMARK  6 active torsions:
REMARK  status: ('A' for Active; 'I' for Inactive)
REMARK    1  A    between atoms: S_2  and  C_3
REMARK    2  A    between atoms: C_6  and  C_9
REMARK    3  A    between atoms: C_17  and  C_19
REMARK    4  A    between atoms: C_19  and  S_20
REMARK    5  A    between atoms: S_20  and  C_21
REMARK    6  A    between atoms: C_21  and  C_22
REMARK                            x       y       z     vdW  Elec       q    Type
REMARK                         _______ _______ _______ _____ _____    ______ ____
ROOT
ATOM      9  C   UNL     1      -1.540   1.727  25.221  0.00  0.00    +0.012 A 
ATOM     10  C   UNL     1      -2.306   1.467  25.059  0.00  0.00    +0.041 A 
ATOM     11  C   UNL     1      -3.116   1.777  24.754  0.00  0.00    +0.058 C 
ATOM     12  C   UNL     1      -3.432   2.363  24.530  0.00  0.00    +0.011 C 
ATOM     13  C   UNL     1      -3.627   1.581  24.651  0.00  0.00    +0.043 C 
ATOM     14  C   UNL     1      -4.051   0.692  24.730  0.00  0.00    +0.095 C 
ATOM     15  N   UNL     1      -3.401   0.253  25.018  0.00  0.00    -0.278 N 
ATOM     16  C   UNL     1      -3.539   0.924  24.825  0.00  0.00    +0.099 C 
ATOM     17  C   UNL     1      -2.971  -0.398  25.289  0.00  0.00    +0.237 C 
ATOM     18  O   UNL     1      -2.177  -0.309  25.499  0.00  0.00    -0.274 OA
ATOM     25  C   UNL     1      -2.785   1.247  24.970  0.00  0.00    +0.110 C 
ATOM     26  N   UNL     1      -2.508   0.676  25.180  0.00  0.00    -0.299 N 
ATOM     27  C   UNL     1      -1.944   0.145  25.463  0.00  0.00    +0.261 A 
ATOM     28  O   UNL     1      -1.898  -0.655  25.658  0.00  0.00    -0.267 OA
ATOM     29  C   UNL     1      -1.178   0.405  25.626  0.00  0.00    +0.061 A 
ATOM     30  C   UNL     1      -0.976   1.195  25.505  0.00  0.00    +0.006 A 
ENDROOT
BRANCH   9   6
ATOM      3  C   UNL     1      -0.935   4.099  24.858  0.00  0.00    +0.025 A 
ATOM      4  C   UNL     1      -1.271   3.864  25.574  0.00  0.00    +0.006 A 
ATOM      5  C   UNL     1      -1.472   3.073  25.695  0.00  0.00    +0.001 A 
ATOM      6  C   UNL     1      -1.339   2.517  25.100  0.00  0.00    +0.001 A 
ATOM      7  C   UNL     1      -1.003   2.753  24.384  0.00  0.00    +0.001 A 
ATOM      8  C   UNL     1      -0.802   3.544  24.263  0.00  0.00    +0.006 A 
BRANCH   3   2
ATOM      1  C   UNL     1      -1.257   5.488  24.960  0.00  0.00    +0.074 C 
ATOM      2  S   UNL     1      -0.734   4.889  24.737  0.00  0.00    -0.113 S 
ENDBRANCH   3   2
ENDBRANCH   9   6
BRANCH  17  19
ATOM     19  C   UNL     1      -3.334  -1.135  25.351  0.00  0.00    +0.143 C 
BRANCH  19  20
ATOM     20  S   UNL     1      -3.287  -1.672  24.726  0.00  0.00    -0.119 S 
BRANCH  20  21
ATOM     21  C   UNL     1      -3.665  -2.404  24.782  0.00  0.00    +0.172 C 
BRANCH  21  22
ATOM     22  C   UNL     1      -3.754  -2.874  24.110  0.00  0.00    +0.376 C 
ATOM     23  O   UNL     1      -3.181  -3.438  23.922  0.00  0.00    -0.245 OA
ATOM     24  O   UNL     1      -4.415  -2.780  23.624  0.00  0.00    -0.245 OA
ENDBRANCH  21  22
ENDBRANCH  20  21
ENDBRANCH  19  20
ENDBRANCH  17  19
TORSDOF 6
ENDMDL
MODEL 3
REMARK VINA RESULT:      -9.9      2.735      4.517
REMARK  Name = 
REMARK  6 active torsions:
REMARK  status: ('A' for Active; 'I' for Inactive)
REMARK    1  A    between atoms: S_2  and  C_3
REMARK    2  A    between atoms: C_6  and  C_9
REMARK    3  A    between atoms: C_17  and  C_19
REMARK    4  A    between atoms: C_19  and  S_20
REMARK    5  A    between atoms: S_20  and  C_21
REMARK    6  A    between atoms: C_21  and  C_22
REMARK                            x       y       z     vdW  Elec       q    Type
REMARK                         _______ _______ _______ _____ _____    ______ ____
ROOT
ATOM      9  C   UNL     1      -2.105   2.559  24.633  0.00  0.00    +0.012 A 
ATOM     10  C   UNL     1      -1.982   1.745  24.582  0.00  0.00    +0.041 A 
ATOM     11  C   UNL     1      -2.436   0.949  24.654  0.00  0.00    +0.058 C 
ATOM     12  C   UNL     1      -3.076   0.690  24.782  0.00  0.00    +0.011 C 
ATOM     13  C   UNL     1      -2.332   0.402  24.615  0.00  0.00    +0.043 C 
ATOM     14  C   UNL     1      -1.521  -0.130  24.427  0.00  0.00    +0.095 C 
ATOM     15  N   UNL     1      -0.968   0.488  24.328  0.00  0.00    -0.278 N 
ATOM     16  C   UNL     1      -1.662   0.420  24.473  0.00  0.00    +0.099 C 
ATOM     17  C   UNL     1      -0.243   0.856  24.185  0.00  0.00    +0.237 C 
ATOM     18  O   UNL     1      -0.190   1.680  24.199  0.00  0.00    -0.274 OA
ATOM     25  C   UNL     1      -1.849   1.229  24.538  0.00  0.00    +0.110 C 
ATOM     26  N   UNL     1      -1.230   1.450  24.413  0.00  0.00    -0.299 N 
ATOM     27  C   UNL     1      -0.600   1.970  24.295  0.00  0.00    +0.261 A 
ATOM     28  O   UNL     1       0.205   1.928  24.123  0.00  0.00    -0.267 OA
ATOM     29  C   UNL     1      -0.723   2.784  24.346  0.00  0.00    +0.061 A 
ATOM     30  C   UNL     1      -1.475   3.078  24.515  0.00  0.00    +0.006 A 
ENDROOT
BRANCH   9   6
ATOM      3  C   UNL     1      -4.361   3.442  25.139  0.00  0.00    +0.025 A 
ATOM      4  C   UNL     1      -4.149   3.274  24.359  0.00  0.00    +0.006 A 
ATOM      5  C   UNL     1      -3.397   2.980  24.191  0.00  0.00    +0.001 A 
ATOM      6  C   UNL     1      -2.857   2.853  24.801  0.00  0.00    +0.001 A 
ATOM      7  C   UNL     1      -3.069   3.021  25.580  0.00  0.00    +0.001 A 
ATOM      8  C   UNL     1      -3.821   3.315  25.749  0.00  0.00    +0.006 A 
BRANCH   3   2
ATOM      1  C   UNL     1      -5.672   3.253  25.674  0.00  0.00    +0.074 C 
ATOM      2  S   UNL     1      -5.112   3.736  25.307  0.00  0.00    -0.113 S 
ENDBRANCH   3   2
ENDBRANCH   9   6
BRANCH  17  19
ATOM     19  C   UNL     1       0.427   0.402  24.029  0.00  0.00    +0.143 C 
BRANCH  19  20
ATOM     20  S   UNL     1       0.695   0.315  23.253  0.00  0.00    -0.119 S 
BRANCH  20  21
ATOM     21  C   UNL     1       1.310  -0.209  23.086  0.00  0.00    +0.172 C 
BRANCH  21  22
ATOM     22  C   UNL     1       1.727  -0.142  22.377  0.00  0.00    +0.376 C 
ATOM     23  O   UNL     1       1.368  -0.357  21.666  0.00  0.00    -0.245 OA
ATOM     24  O   UNL     1       2.502   0.142  22.379  0.00  0.00    -0.245 OA
ENDBRANCH  21  22
ENDBRANCH  20  21
ENDBRANCH  19  20
ENDBRANCH  17  19
TORSDOF 6
ENDMDL
