MODEL 1
REMARK VINA RESULT:      -9.1      0.000      0.000
REMARK  Name = 
REMARK  3 active torsions:
REMARK  status: ('A' for Active; 'I' for Inactive)
REMARK    1  A    between atoms: S_2  and  N_5
REMARK    2  A    between atoms: C_10  and  O_12
REMARK    3  A    between atoms: O_12  and  C_13
REMARK                            x       y       z     vdW  Elec       q    Type
REMARK                         _______ _______ _______ _____ _____    ______ ____
ROOT
ATOM      5  N   UNL     1      -2.800   1.477  24.299  0.00  0.00    -0.153 NA
ATOM      6  C   UNL     1      -1.984   1.533  24.191  0.00  0.00    +0.128 C 
ATOM      7  C   UNL     1      -1.401   0.988  24.398  0.00  0.00    +0.161 C 
ATOM      8  O   UNL     1      -1.488   0.253  24.763  0.00  0.00    -0.348 OA
ATOM      9  C   UNL     1      -2.181  -0.118  25.011  0.00  0.00    +0.187 C 
ATOM     10  C   UNL     1      -2.959   0.154  24.956  0.00  0.00    +0.213 C 
ATOM     11  C   UNL     1      -3.235   0.864  24.639  0.00  0.00    +0.141 C 
ENDROOT
BRANCH   5   2
ATOM      1  C   UNL     1      -3.683   2.765  23.763  0.00  0.00    +0.196 C 
ATOM      2  S   UNL     1      -3.242   2.121  24.031  0.00  0.00    +0.046 S 
ATOM      3  O   UNL     1      -3.148   1.862  23.254  0.00  0.00    -0.157 OA
ATOM      4  O   UNL     1      -3.336   2.381  24.808  0.00  0.00    -0.157 OA
ENDBRANCH   5   2
BRANCH  10  12
ATOM     12  O   UNL     1      -3.536  -0.351  25.258  0.00  0.00    -0.475 OA
BRANCH  12  13
ATOM     13  C   UNL     1      -3.661  -1.089  24.911  0.00  0.00    +0.139 A 
ATOM     14  C   UNL     1      -3.325  -1.765  25.246  0.00  0.00    +0.037 A 
ATOM     15  C   UNL     1      -3.450  -2.503  24.899  0.00  0.00    +0.003 A 
ATOM     16  C   UNL     1      -3.911  -2.565  24.217  0.00  0.00    +0.000 A 
ATOM     17  C   UNL     1      -4.246  -1.890  23.882  0.00  0.00    +0.003 A 
ATOM     18  C   UNL     1      -4.121  -1.153  24.230  0.00  0.00    +0.037 A 
ENDBRANCH  12  13
ENDBRANCH  10  12
TORSDOF 3
ENDMDL
MODEL 2
REMARK VINA RESULT:      -9.1      1.189      1.606
REMARK  Name = 
REMARK  3 active torsions:
REMARK  status: ('A' for Active; 'I' for Inactive)
REMARK    1  A    between atoms: S_2  and  N_5
REMARK    2  A    between atoms: C_10  and  O_12
REMARK    3  A    between atoms: O_12  and  C_13
REMARK                            x       y       z     vdW  Elec       q    Type
REMARK                         _______ _______ _______ _____ _____    ______ ____
ROOT
ATOM      5  N   UNL     1      -3.793   2.265  24.551  0.00  0.00    -0.153 NA
ATOM      6  C   UNL     1      -3.211   2.463  24.000  0.00  0.00    +0.128 C 
ATOM      7  C   UNL     1      -2.853   1.980  23.435  0.00  0.00    +0.161 C 
ATOM      8  O   UNL     1      -2.987   1.181  23.281  0.00  0.00    -0.348 OA
ATOM      9  C   UNL     1      -3.514   0.667  23.654  0.00  0.00    +0.187 C 
ATOM     10  C   UNL     1      -4.036   0.825  24.273  0.00  0.00    +0.213 C 
ATOM     11  C   UNL     1      -4.160   1.537  24.673  0.00  0.00    +0.141 C 
ENDROOT
BRANCH   5   2
ATOM      1  C   UNL     1      -4.287   3.489  25.541  0.00  0.00    +0.196 C 
ATOM      2  S   UNL     1      -4.040   2.877  25.045  0.00  0.00    +0.046 S 
ATOM      3  O   UNL     1      -4.735   2.950  24.608  0.00  0.00    -0.157 OA
ATOM      4  O   UNL     1      -3.345   2.804  25.483  0.00  0.00    -0.157 OA
ENDBRANCH   5   2
BRANCH  10  12
ATOM     12  O   UNL     1      -4.494   0.188  24.526  0.00  0.00    -0.475 OA
BRANCH  12  13
ATOM     13  C   UNL     1      -4.131  -0.523  24.737  0.00  0.00    +0.139 A 
ATOM     14  C   UNL     1      -4.113  -1.151  24.202  0.00  0.00    +0.037 A 
ATOM     15  C   UNL     1      -3.750  -1.862  24.413  0.00  0.00    +0.003 A 
ATOM     16  C   UNL     1      -3.406  -1.943  25.158  0.00  0.00    +0.000 A 
ATOM     17  C   UNL     1      -3.424  -1.316  25.693  0.00  0.00    +0.003 A 
ATOM     18  C   UNL     1      -3.786  -0.605  25.482  0.00  0.00    +0.037 A 
ENDBRANCH  12  13
ENDBRANCH  10  12
TORSDOF 3
ENDMDL
MODEL 3
REMARK VINA RESULT:      -8.6      2.426      4.264
REMARK  Name = 
REMARK  3 active torsions:
REMARK  status: ('A' for Active; 'I' for Inactive)
REMARK    1  A    between atoms: S_2  and  N_5
REMARK    2  A    between atoms: C_10  and  O_12
REMARK    3  A    between atoms: O_12  and  C_13
REMARK                            x       y       z     vdW  Elec       q    Type
REMARK                         _______ _______ _______ _____ _____    ______ ____
ROOT
ATOM      5  N   UNL     1      -3.862   2.040  24.545  0.00  0.00    -0.153 NA
ATOM      6  C   UNL     1      -3.704   1.593  23.869  0.00  0.00    +0.128 C 
ATOM      7  C   UNL     1      -2.975   1.426  23.523  0.00  0.00    +0.161 C 
ATOM      8  O   UNL     1      -2.223   1.664  23.766  0.00  0.00    -0.348 OA
ATOM      9  C   UNL     1      -2.016   2.129  24.415  0.00  0.00    +0.187 C 
ATOM     10  C   UNL     1      -2.508   2.470  24.982  0.00  0.00    +0.213 C 
ATOM     11  C   UNL     1      -3.331   2.430  25.040  0.00  0.00    +0.141 C 
ENDROOT
BRANCH   5   2
ATOM      1  C   UNL     1      -5.454   2.170  24.961  0.00  0.00    +0.196 C 
ATOM      2  S   UNL     1      -4.658   2.105  24.752  0.00  0.00    +0.046 S 
ATOM      3  O   UNL     1      -4.754   2.706  24.197  0.00  0.00    -0.157 OA
ATOM      4  O   UNL     1      -4.562   1.503  25.309  0.00  0.00    -0.157 OA
ENDBRANCH   5   2
BRANCH  10  12
ATOM     12  O   UNL     1      -2.129   2.908  25.569  0.00  0.00    -0.475 OA
BRANCH  12  13
ATOM     13  C   UNL     1      -1.807   3.646  25.389  0.00  0.00    +0.139 A 
ATOM     14  C   UNL     1      -1.038   3.701  25.095  0.00  0.00    +0.037 A 
ATOM     15  C   UNL     1      -0.716   4.439  24.915  0.00  0.00    +0.003 A 
ATOM     16  C   UNL     1      -1.164   5.122  25.029  0.00  0.00    +0.000 A 
ATOM     17  C   UNL     1      -1.933   5.068  25.323  0.00  0.00    +0.003 A 
ATOM     18  C   UNL     1      -2.254   4.330  25.503  0.00  0.00    +0.037 A 
ENDBRANCH  12  13
ENDBRANCH  10  12
TORSDOF 3
ENDMDL
MODEL 4
REMARK VINA RESULT:      -8.4      1.687      3.398
REMARK  Name = 
REMARK  3 active torsions:
REMARK  status: ('A' for Active; 'I' for Inactive)
REMARK    1  A    between atoms: S_2  and  N_5
REMARK    2  A    between atoms: C_10  and  O_12
REMARK    3  A    between atoms: O_12  and  C_13
REMARK                            x       y       z     vdW  Elec       q    Type
REMARK                         _______ _______ _______ _____ _____    ______ ____
ROOT
ATOM      5  N   UNL     1      -3.038  -0.490  24.996  0.00  0.00    -0.153 NA
ATOM      6  C   UNL     1      -2.262  -0.334  25.228  0.00  0.00    +0.128 C 
ATOM      7  C   UNL     1      -1.852   0.382  25.201  0.00  0.00    +0.161 C 
ATOM      8  O   UNL     1      -2.116   1.117  24.935  0.00  0.00    -0.348 OA
ATOM      9  C   UNL     1      -2.856   1.317  24.630  0.00  0.00    +0.187 C 
ATOM     10  C   UNL     1      -3.514   0.834  24.516  0.00  0.00    +0.213 C 
ATOM     11  C   UNL     1      -3.596   0.028  24.679  0.00  0.00    +0.141 C 
ENDROOT
BRANCH   5   2
ATOM      1  C   UNL     1      -3.543  -2.050  25.192  0.00  0.00    +0.196 C 
ATOM      2  S   UNL     1      -3.290  -1.270  25.093  0.00  0.00    +0.046 S 
ATOM      3  O   UNL     1      -3.177  -1.408  24.289  0.00  0.00    -0.157 OA
ATOM      4  O   UNL     1      -3.404  -1.132  25.899  0.00  0.00    -0.157 OA
ENDBRANCH   5   2
BRANCH  10  12
ATOM     12  O   UNL     1      -4.179   1.203  24.198  0.00  0.00    -0.475 OA
BRANCH  12  13
ATOM     13  C   UNL     1      -4.605   1.746  24.649  0.00  0.00    +0.139 A 
ATOM     14  C   UNL     1      -4.396   2.545  24.640  0.00  0.00    +0.037 A 
ATOM     15  C   UNL     1      -4.822   3.088  25.092  0.00  0.00    +0.003 A 
ATOM     16  C   UNL     1      -5.457   2.833  25.553  0.00  0.00    +0.000 A 
ATOM     17  C   UNL     1      -5.666   2.035  25.562  0.00  0.00    +0.003 A 
ATOM     18  C   UNL     1      -5.240   1.492  25.110  0.00  0.00    +0.037 A 
ENDBRANCH  12  13
ENDBRANCH  10  12
TORSDOF 3
ENDMDL
MODEL 5
REMARK VINA RESULT:      -8.3      2.183      4.418
REMARK  Name = 
REMARK  3 active torsions:
REMARK  status: ('A' for Active; 'I' for Inactive)
REMARK    1  A    between atoms: S_2  and  N_5
REMARK    2  A    between atoms: C_10  and  O_12
REMARK    3  A    between atoms: O_12  and  C_13
REMARK                            x       y       z     vdW  Elec       q    Type
REMARK                         _______ _______ _______ _____ _____    ______ ____
ROOT
ATOM      5  N   UNL     1      -1.039   0.576  25.005  0.00  0.00    -0.153 NA
ATOM      6  C   UNL     1      -0.596   0.371  24.340  0.00  0.00    +0.128 C 
ATOM      7  C   UNL     1      -0.011   0.810  23.958  0.00  0.00    +0.161 C 
ATOM      8  O   UNL     1       0.276   1.560  24.147  0.00  0.00    -0.348 OA
ATOM      9  C   UNL     1       0.048   2.057  24.764  0.00  0.00    +0.187 C 
ATOM     10  C   UNL     1      -0.524   1.928  25.345  0.00  0.00    +0.213 C 
ATOM     11  C   UNL     1      -1.008   1.268  25.453  0.00  0.00    +0.141 C 
ENDROOT
BRANCH   5   2
ATOM      1  C   UNL     1      -2.137  -0.550  25.507  0.00  0.00    +0.196 C 
ATOM      2  S   UNL     1      -1.588   0.013  25.256  0.00  0.00    +0.046 S 
ATOM      3  O   UNL     1      -1.076  -0.218  25.860  0.00  0.00    -0.157 OA
ATOM      4  O   UNL     1      -2.101   0.243  24.653  0.00  0.00    -0.157 OA
ENDBRANCH   5   2
BRANCH  10  12
ATOM     12  O   UNL     1      -0.624   2.538  25.891  0.00  0.00    -0.475 OA
BRANCH  12  13
ATOM     13  C   UNL     1      -1.012   3.231  25.668  0.00  0.00    +0.139 A 
ATOM     14  C   UNL     1      -0.599   3.825  25.269  0.00  0.00    +0.037 A 
ATOM     15  C   UNL     1      -0.987   4.518  25.046  0.00  0.00    +0.003 A 
ATOM     16  C   UNL     1      -1.787   4.617  25.221  0.00  0.00    +0.000 A 
ATOM     17  C   UNL     1      -2.199   4.024  25.619  0.00  0.00    +0.003 A 
ATOM     18  C   UNL     1      -1.812   3.331  25.842  0.00  0.00    +0.037 A 
ENDBRANCH  12  13
ENDBRANCH  10  12
TORSDOF 3
ENDMDL
MODEL 6
REMARK VINA RESULT:      -8.2      2.570      3.490
REMARK  Name = 
REMARK  3 active torsions:
REMARK  status: ('A' for Active; 'I' for Inactive)
REMARK    1  A    between atoms: S_2  and  N_5
REMARK    2  A    between atoms: C_10  and  O_12
REMARK    3  A    between atoms: O_12  and  C_13
REMARK                            x       y       z     vdW  Elec       q    Type
REMARK                         _______ _______ _______ _____ _____    ______ ____
ROOT
ATOM      5  N   UNL     1      -1.687   2.279  24.904  0.00  0.00    -0.153 NA
ATOM      6  C   UNL     1      -1.303   2.747  25.464  0.00  0.00    +0.128 C 
ATOM      7  C   UNL     1      -1.578   3.427  25.841  0.00  0.00    +0.161 C 
ATOM      8  O   UNL     1      -2.305   3.808  25.750  0.00  0.00    -0.348 OA
ATOM      9  C   UNL     1      -2.935   3.601  25.261  0.00  0.00    +0.187 C 
ATOM     10  C   UNL     1      -2.996   2.964  24.740  0.00  0.00    +0.213 C 
ATOM     11  C   UNL     1      -2.440   2.375  24.581  0.00  0.00    +0.141 C 
ENDROOT
BRANCH   5   2
ATOM      1  C   UNL     1      -0.835   0.976  24.353  0.00  0.00    +0.196 C 
ATOM      2  S   UNL     1      -1.261   1.628  24.629  0.00  0.00    +0.046 S 
ATOM      3  O   UNL     1      -1.432   1.221  25.325  0.00  0.00    -0.157 OA
ATOM      4  O   UNL     1      -1.090   2.034  23.931  0.00  0.00    -0.157 OA
ENDBRANCH   5   2
BRANCH  10  12
ATOM     12  O   UNL     1      -3.706   2.908  24.324  0.00  0.00    -0.475 OA
BRANCH  12  13
ATOM     13  C   UNL     1      -4.384   2.631  24.702  0.00  0.00    +0.139 A 
ATOM     14  C   UNL     1      -4.846   3.146  25.153  0.00  0.00    +0.037 A 
ATOM     15  C   UNL     1      -5.525   2.869  25.531  0.00  0.00    +0.003 A 
ATOM     16  C   UNL     1      -5.742   2.076  25.458  0.00  0.00    +0.000 A 
ATOM     17  C   UNL     1      -5.282   1.561  25.008  0.00  0.00    +0.003 A 
ATOM     18  C   UNL     1      -4.603   1.839  24.630  0.00  0.00    +0.037 A 
ENDBRANCH  12  13
ENDBRANCH  10  12
TORSDOF 3
ENDMDL
