MODEL 1
REMARK VINA RESULT:      -9.5      0.000      0.000
REMARK  Name = 
REMARK  8 active torsions:
REMARK  status: ('A' for Active; 'I' for Inactive)
REMARK    1  A    between atoms: O_2  and  C_3
REMARK    2  A    between atoms: C_3  and  C_4
REMARK    3  A    between atoms: C_6  and  C_7
REMARK    4  A    between atoms: C_7  and  C_8
REMARK    5  A    between atoms: C_13  and  C_14
REMARK    6  A    between atoms: C_14  and  C_15
REMARK    7  A    between atoms: N_17  and  C_18
REMARK    8  A    between atoms: C_18  and  C_19
REMARK                            x       y       z     vdW  Elec       q    Type
REMARK                         _______ _______ _______ _____ _____    ______ ____
ROOT
ATOM      8  C   UNL     1      -4.776   1.511  24.816  0.00  0.00    +0.024 C 
ATOM      9  C   UNL     1      -5.357   1.133  25.263  0.00  0.00    +0.089 C 
ATOM     10  N   UNL     1      -5.894   1.580  25.703  0.00  0.00    -0.218 NA
ATOM     11  C   UNL     1      -5.849   2.404  25.696  0.00  0.00    +0.089 C 
ATOM     12  C   UNL     1      -5.267   2.781  25.248  0.00  0.00    +0.019 C 
ATOM     13  C   UNL     1      -4.730   2.334  24.808  0.00  0.00    +0.012 C 
ENDROOT
BRANCH   8   7
ATOM      7  C   UNL     1      -4.239   1.064  24.376  0.00  0.00    +0.051 C 
BRANCH   7   6
ATOM      4  C   UNL     1      -3.941  -1.041  24.575  0.00  0.00    +0.184 A 
ATOM      5  C   UNL     1      -4.187  -0.386  24.137  0.00  0.00    +0.056 A 
ATOM      6  C   UNL     1      -4.068   0.288  24.598  0.00  0.00    +0.100 A 
ATOM     24  N   UNL     1      -3.750   0.051  25.321  0.00  0.00    -0.082 NA
ATOM     25  O   UNL     1      -3.671  -0.770  25.307  0.00  0.00    -0.356 OA
BRANCH   4   3
ATOM      3  C   UNL     1      -3.962  -1.826  24.327  0.00  0.00    +0.209 C 
BRANCH   3   2
ATOM      1  C   UNL     1      -3.491  -3.171  24.439  0.00  0.00    +0.175 C 
ATOM      2  O   UNL     1      -3.518  -2.397  24.725  0.00  0.00    -0.343 OA
ENDBRANCH   3   2
ENDBRANCH   4   3
ENDBRANCH   7   6
ENDBRANCH   8   7
BRANCH  13  14
ATOM     14  C   UNL     1      -4.149   2.712  24.362  0.00  0.00    +0.087 C 
BRANCH  14  15
ATOM     15  C   UNL     1      -3.839   3.434  24.612  0.00  0.00    +0.242 C 
ATOM     16  O   UNL     1      -4.336   4.087  24.703  0.00  0.00    -0.273 OA
ATOM     17  N   UNL     1      -3.033   3.504  24.773  0.00  0.00    -0.200 NA
BRANCH  17  18
ATOM     18  C   UNL     1      -2.723   4.226  25.023  0.00  0.00    +0.148 C 
BRANCH  18  19
ATOM     19  C   UNL     1      -1.907   4.339  25.048  0.00  0.00    +0.029 A 
ATOM     20  C   UNL     1      -1.513   5.060  24.973  0.00  0.00    +0.004 A 
ATOM     21  C   UNL     1      -0.703   4.917  25.030  0.00  0.00    +0.007 A 
ATOM     22  C   UNL     1      -0.595   4.105  25.140  0.00  0.00    +0.035 A 
ATOM     23  S   UNL     1      -1.338   3.749  25.151  0.00  0.00    -0.089 S 
ENDBRANCH  18  19
ENDBRANCH  17  18
ENDBRANCH  14  15
ENDBRANCH  13  14
TORSDOF 8
ENDMDL
MODEL 2
REMARK VINA RESULT:      -9.4      2.340      3.694
REMARK  Name = 
REMARK  8 active torsions:
REMARK  status: ('A' for Active; 'I' for Inactive)
REMARK    1  A    between atoms: O_2  and  C_3
REMARK    2  A    between atoms: C_3  and  C_4
REMARK    3  A    between atoms: C_6  and  C_7
REMARK    4  A    between atoms: C_7  and  C_8
REMARK    5  A    between atoms: C_13  and  C_14
REMARK    6  A    between atoms: C_14  and  C_15
REMARK    7  A    between atoms: N_17  and  C_18
REMARK    8  A    between atoms: C_18  and  C_19
REMARK                            x       y       z     vdW  Elec       q    Type
REMARK                         _______ _______ _______ _____ _____    ______ ____
ROOT
ATOM      8  C   UNL     1      -3.061  -1.319  24.877  0.00  0.00    +0.024 C 
ATOM      9  C   UNL     1      -2.978  -2.003  24.424  0.00  0.00    +0.089 C 
ATOM     10  N   UNL     1      -3.594  -2.248  23.932  0.00  0.00    -0.218 NA
ATOM     11  C   UNL     1      -4.292  -1.809  23.894  0.00  0.00    +0.089 C 
ATOM     12  C   UNL     1      -4.373  -1.125  24.348  0.00  0.00    +0.019 C 
ATOM     13  C   UNL     1      -3.757  -0.880  24.840  0.00  0.00    +0.012 C 
ENDROOT
BRANCH   8   7
ATOM      7  C   UNL     1      -2.444  -1.074  25.369  0.00  0.00    +0.051 C 
BRANCH   7   6
ATOM      4  C   UNL     1      -0.469  -0.848  24.591  0.00  0.00    +0.184 A 
ATOM      5  C   UNL     1      -1.218  -0.543  24.754  0.00  0.00    +0.056 A 
ATOM      6  C   UNL     1      -1.662  -1.139  25.114  0.00  0.00    +0.100 A 
ATOM     24  N   UNL     1      -1.188  -1.811  25.173  0.00  0.00    -0.082 NA
ATOM     25  O   UNL     1      -0.450  -1.632  24.851  0.00  0.00    -0.356 OA
BRANCH   4   3
ATOM      3  C   UNL     1       0.153  -0.441  24.233  0.00  0.00    +0.209 C 
BRANCH   3   2
ATOM      1  C   UNL     1       0.911  -0.122  23.064  0.00  0.00    +0.175 C 
ATOM      2  O   UNL     1       0.318  -0.562  23.433  0.00  0.00    -0.343 OA
ENDBRANCH   3   2
ENDBRANCH   4   3
ENDBRANCH   7   6
ENDBRANCH   8   7
BRANCH  13  14
ATOM     14  C   UNL     1      -3.839  -0.196  25.293  0.00  0.00    +0.087 C 
BRANCH  14  15
ATOM     15  C   UNL     1      -4.382   0.384  25.071  0.00  0.00    +0.242 C 
ATOM     16  O   UNL     1      -5.176   0.187  24.967  0.00  0.00    -0.273 OA
ATOM     17  N   UNL     1      -4.132   1.161  24.953  0.00  0.00    -0.200 NA
BRANCH  17  18
ATOM     18  C   UNL     1      -4.675   1.741  24.732  0.00  0.00    +0.148 C 
BRANCH  18  19
ATOM     19  C   UNL     1      -4.432   2.525  24.651  0.00  0.00    +0.029 A 
ATOM     20  C   UNL     1      -4.018   2.842  24.011  0.00  0.00    +0.004 A 
ATOM     21  C   UNL     1      -3.891   3.643  24.161  0.00  0.00    +0.007 A 
ATOM     22  C   UNL     1      -4.225   3.821  24.895  0.00  0.00    +0.035 A 
ATOM     23  S   UNL     1      -4.559   3.131  25.197  0.00  0.00    -0.089 S 
ENDBRANCH  18  19
ENDBRANCH  17  18
ENDBRANCH  14  15
ENDBRANCH  13  14
TORSDOF 8
ENDMDL
MODEL 3
REMARK VINA RESULT:      -9.3      1.822      4.633
REMARK  Name = 
REMARK  8 active torsions:
REMARK  status: ('A' for Active; 'I' for Inactive)
REMARK    1  A    between atoms: O_2  and  C_3
REMARK    2  A    between atoms: C_3  and  C_4
REMARK    3  A    between atoms: C_6  and  C_7
REMARK    4  A    between atoms: C_7  and  C_8
REMARK    5  A    between atoms: C_13  and  C_14
REMARK    6  A    between atoms: C_14  and  C_15
REMARK    7  A    between atoms: N_17  and  C_18
REMARK    8  A    between atoms: C_18  and  C_19
REMARK                            x       y       z     vdW  Elec       q    Type
REMARK                         _______ _______ _______ _____ _____    ______ ____
ROOT
ATOM      8  C   UNL     1      -4.028   2.963  24.917  0.00  0.00    +0.024 C 
ATOM      9  C   UNL     1      -4.265   3.601  25.384  0.00  0.00    +0.089 C 
ATOM     10  N   UNL     1      -4.949   3.544  25.843  0.00  0.00    -0.218 NA
ATOM     11  C   UNL     1      -5.395   2.849  25.834  0.00  0.00    +0.089 C 
ATOM     12  C   UNL     1      -5.157   2.212  25.367  0.00  0.00    +0.019 C 
ATOM     13  C   UNL     1      -4.473   2.270  24.908  0.00  0.00    +0.012 C 
ENDROOT
BRANCH   8   7
ATOM      7  C   UNL     1      -3.344   3.020  24.458  0.00  0.00    +0.051 C 
BRANCH   7   6
ATOM      4  C   UNL     1      -1.440   3.518  25.287  0.00  0.00    +0.184 A 
ATOM      5  C   UNL     1      -1.979   2.962  25.003  0.00  0.00    +0.056 A 
ATOM      6  C   UNL     1      -2.663   3.363  24.774  0.00  0.00    +0.100 A 
ATOM     24  N   UNL     1      -2.547   4.167  24.918  0.00  0.00    -0.082 NA
ATOM     25  O   UNL     1      -1.792   4.263  25.234  0.00  0.00    -0.356 OA
BRANCH   4   3
ATOM      3  C   UNL     1      -0.684   3.358  25.573  0.00  0.00    +0.209 C 
BRANCH   3   2
ATOM      1  C   UNL     1       0.186   2.545  26.364  0.00  0.00    +0.175 C 
ATOM      2  O   UNL     1      -0.576   2.785  26.158  0.00  0.00    -0.343 OA
ENDBRANCH   3   2
ENDBRANCH   4   3
ENDBRANCH   7   6
ENDBRANCH   8   7
BRANCH  13  14
ATOM     14  C   UNL     1      -4.236   1.633  24.441  0.00  0.00    +0.087 C 
BRANCH  14  15
ATOM     15  C   UNL     1      -4.593   0.895  24.536  0.00  0.00    +0.242 C 
ATOM     16  O   UNL     1      -5.414   0.840  24.597  0.00  0.00    -0.273 OA
ATOM     17  N   UNL     1      -4.131   0.214  24.570  0.00  0.00    -0.200 NA
BRANCH  17  18
ATOM     18  C   UNL     1      -4.488  -0.524  24.665  0.00  0.00    +0.148 C 
BRANCH  18  19
ATOM     19  C   UNL     1      -4.033  -1.211  24.626  0.00  0.00    +0.029 A 
ATOM     20  C   UNL     1      -4.034  -1.760  24.010  0.00  0.00    +0.004 A 
ATOM     21  C   UNL     1      -3.499  -2.358  24.200  0.00  0.00    +0.007 A 
ATOM     22  C   UNL     1      -3.167  -2.179  24.934  0.00  0.00    +0.035 A 
ATOM     23  S   UNL     1      -3.497  -1.471  25.197  0.00  0.00    -0.089 S 
ENDBRANCH  18  19
ENDBRANCH  17  18
ENDBRANCH  14  15
ENDBRANCH  13  14
TORSDOF 8
ENDMDL
MODEL 4
REMARK VINA RESULT:      -9.3      2.652      4.422
REMARK  Name = 
REMARK  8 active torsions:
REMARK  status: ('A' for Active; 'I' for Inactive)
REMARK    1  A    between atoms: O_2  and  C_3
REMARK    2  A    between atoms: C_3  and  C_4
REMARK    3  A    between atoms: C_6  and  C_7
REMARK    4  A    between atoms: C_7  and  C_8
REMARK    5  A    between atoms: C_13  and  C_14
REMARK    6  A    between atoms: C_14  and  C_15
REMARK    7  A    between atoms: N_17  and  C_18
REMARK    8  A    between atoms: C_18  and  C_19
REMARK                            x       y       z     vdW  Elec       q    Type
REMARK                         _______ _______ _______ _____ _____    ______ ____
ROOT
ATOM      8  C   UNL     1      -1.024   3.633  25.389  0.00  0.00    +0.024 C 
ATOM      9  C   UNL     1      -0.457   4.034  24.944  0.00  0.00    +0.089 C 
ATOM     10  N   UNL     1      -0.595   4.811  24.705  0.00  0.00    -0.218 NA
ATOM     11  C   UNL     1      -1.300   5.187  24.911  0.00  0.00    +0.089 C 
ATOM     12  C   UNL     1      -1.867   4.785  25.356  0.00  0.00    +0.019 C 
ATOM     13  C   UNL     1      -1.729   4.008  25.595  0.00  0.00    +0.012 C 
ENDROOT
BRANCH   8   7
ATOM      7  C   UNL     1      -0.886   2.854  25.629  0.00  0.00    +0.051 C 
BRANCH   7   6
ATOM      4  C   UNL     1       0.048   1.439  24.331  0.00  0.00    +0.184 A 
ATOM      5  C   UNL     1      -0.629   1.787  24.650  0.00  0.00    +0.056 A 
ATOM      6  C   UNL     1      -0.389   2.369  25.184  0.00  0.00    +0.100 A 
ATOM     24  N   UNL     1       0.436   2.380  25.196  0.00  0.00    -0.082 NA
ATOM     25  O   UNL     1       0.706   1.805  24.669  0.00  0.00    -0.356 OA
BRANCH   4   3
ATOM      3  C   UNL     1       0.064   0.831  23.774  0.00  0.00    +0.209 C 
BRANCH   3   2
ATOM      1  C   UNL     1       0.800  -0.124  23.006  0.00  0.00    +0.175 C 
ATOM      2  O   UNL     1       0.786   0.515  23.529  0.00  0.00    -0.343 OA
ENDBRANCH   3   2
ENDBRANCH   4   3
ENDBRANCH   7   6
ENDBRANCH   8   7
BRANCH  13  14
ATOM     14  C   UNL     1      -2.295   3.607  26.040  0.00  0.00    +0.087 C 
BRANCH  14  15
ATOM     15  C   UNL     1      -3.093   3.806  25.970  0.00  0.00    +0.242 C 
ATOM     16  O   UNL     1      -3.351   4.556  26.199  0.00  0.00    -0.273 OA
ATOM     17  N   UNL     1      -3.631   3.258  25.672  0.00  0.00    -0.200 NA
BRANCH  17  18
ATOM     18  C   UNL     1      -4.429   3.457  25.603  0.00  0.00    +0.148 C 
BRANCH  18  19
ATOM     19  C   UNL     1      -4.981   2.884  25.386  0.00  0.00    +0.029 A 
ATOM     20  C   UNL     1      -4.959   2.422  24.703  0.00  0.00    +0.004 A 
ATOM     21  C   UNL     1      -5.616   1.925  24.710  0.00  0.00    +0.007 A 
ATOM     22  C   UNL     1      -6.046   2.079  25.398  0.00  0.00    +0.035 A 
ATOM     23  S   UNL     1      -5.653   2.671  25.815  0.00  0.00    -0.089 S 
ENDBRANCH  18  19
ENDBRANCH  17  18
ENDBRANCH  14  15
ENDBRANCH  13  14
TORSDOF 8
ENDMDL
MODEL 5
REMARK VINA RESULT:      -8.9      3.029      6.040
REMARK  Name = 
REMARK  8 active torsions:
REMARK  status: ('A' for Active; 'I' for Inactive)
REMARK    1  A    between atoms: O_2  and  C_3
REMARK    2  A    between atoms: C_3  and  C_4
REMARK    3  A    between atoms: C_6  and  C_7
REMARK    4  A    between atoms: C_7  and  C_8
REMARK    5  A    between atoms: C_13  and  C_14
REMARK    6  A    between atoms: C_14  and  C_15
REMARK    7  A    between atoms: N_17  and  C_18
REMARK    8  A    between atoms: C_18  and  C_19
REMARK                            x       y       z     vdW  Elec       q    Type
REMARK                         _______ _______ _______ _____ _____    ______ ____
ROOT
ATOM      8  C   UNL     1      -0.531   0.791  24.850  0.00  0.00    +0.024 C 
ATOM      9  C   UNL     1      -0.103   1.238  24.304  0.00  0.00    +0.089 C 
ATOM     10  N   UNL     1       0.300   0.862  23.690  0.00  0.00    -0.218 NA
ATOM     11  C   UNL     1       0.275   0.039  23.623  0.00  0.00    +0.089 C 
ATOM     12  C   UNL     1      -0.153  -0.406  24.170  0.00  0.00    +0.019 C 
ATOM     13  C   UNL     1      -0.556  -0.030  24.783  0.00  0.00    +0.012 C 
ENDROOT
BRANCH   8   7
ATOM      7  C   UNL     1      -0.935   1.168  25.465  0.00  0.00    +0.051 C 
BRANCH   7   6
ATOM      4  C   UNL     1      -0.991   3.294  25.648  0.00  0.00    +0.184 A 
ATOM      5  C   UNL     1      -1.332   2.583  25.406  0.00  0.00    +0.056 A 
ATOM      6  C   UNL     1      -0.814   1.972  25.605  0.00  0.00    +0.100 A 
ATOM     24  N   UNL     1      -0.154   2.306  25.970  0.00  0.00    -0.082 NA
ATOM     25  O   UNL     1      -0.263   3.123  25.996  0.00  0.00    -0.356 OA
BRANCH   4   3
ATOM      3  C   UNL     1      -1.321   4.045  25.557  0.00  0.00    +0.209 C 
BRANCH   3   2
ATOM      1  C   UNL     1      -1.289   5.343  24.959  0.00  0.00    +0.175 C 
ATOM      2  O   UNL     1      -1.011   4.567  24.997  0.00  0.00    -0.343 OA
ENDBRANCH   3   2
ENDBRANCH   4   3
ENDBRANCH   7   6
ENDBRANCH   8   7
BRANCH  13  14
ATOM     14  C   UNL     1      -0.983  -0.476  25.330  0.00  0.00    +0.087 C 
BRANCH  14  15
ATOM     15  C   UNL     1      -1.287  -1.212  25.115  0.00  0.00    +0.242 C 
ATOM     16  O   UNL     1      -0.792  -1.871  25.092  0.00  0.00    -0.273 OA
ATOM     17  N   UNL     1      -2.085  -1.289  24.922  0.00  0.00    -0.200 NA
BRANCH  17  18
ATOM     18  C   UNL     1      -2.390  -2.025  24.707  0.00  0.00    +0.148 C 
BRANCH  18  19
ATOM     19  C   UNL     1      -3.157  -2.085  24.411  0.00  0.00    +0.029 A 
ATOM     20  C   UNL     1      -3.641  -1.455  24.187  0.00  0.00    +0.004 A 
ATOM     21  C   UNL     1      -4.359  -1.766  23.925  0.00  0.00    +0.007 A 
ATOM     22  C   UNL     1      -4.318  -2.588  23.986  0.00  0.00    +0.035 A 
ATOM     23  S   UNL     1      -3.576  -2.785  24.286  0.00  0.00    -0.089 S 
ENDBRANCH  18  19
ENDBRANCH  17  18
ENDBRANCH  14  15
ENDBRANCH  13  14
TORSDOF 8
ENDMDL
MODEL 6
REMARK VINA RESULT:      -8.9      2.723      3.601
REMARK  Name = 
REMARK  8 active torsions:
REMARK  status: ('A' for Active; 'I' for Inactive)
REMARK    1  A    between atoms: O_2  and  C_3
REMARK    2  A    between atoms: C_3  and  C_4
REMARK    3  A    between atoms: C_6  and  C_7
REMARK    4  A    between atoms: C_7  and  C_8
REMARK    5  A    between atoms: C_13  and  C_14
REMARK    6  A    between atoms: C_14  and  C_15
REMARK    7  A    between atoms: N_17  and  C_18
REMARK    8  A    between atoms: C_18  and  C_19
REMARK                            x       y       z     vdW  Elec       q    Type
REMARK                         _______ _______ _______ _____ _____    ______ ____
ROOT
ATOM      8  C   UNL     1      -0.567  -0.183  24.681  0.00  0.00    +0.024 C 
ATOM      9  C   UNL     1      -0.264  -0.640  24.065  0.00  0.00    +0.089 C 
ATOM     10  N   UNL     1       0.196  -0.288  23.478  0.00  0.00    -0.218 NA
ATOM     11  C   UNL     1       0.353   0.523  23.507  0.00  0.00    +0.089 C 
ATOM     12  C   UNL     1       0.049   0.979  24.124  0.00  0.00    +0.019 C 
ATOM     13  C   UNL     1      -0.411   0.626  24.711  0.00  0.00    +0.012 C 
ENDROOT
BRANCH   8   7
ATOM      7  C   UNL     1      -1.027  -0.536  25.269  0.00  0.00    +0.051 C 
BRANCH   7   6
ATOM      4  C   UNL     1      -2.516  -2.003  24.830  0.00  0.00    +0.184 A 
ATOM      5  C   UNL     1      -2.299  -1.226  25.002  0.00  0.00    +0.056 A 
ATOM      6  C   UNL     1      -1.479  -1.204  25.093  0.00  0.00    +0.100 A 
ATOM     24  N   UNL     1      -1.189  -1.967  24.977  0.00  0.00    -0.082 NA
ATOM     25  O   UNL     1      -1.829  -2.462  24.814  0.00  0.00    -0.356 OA
BRANCH   4   3
ATOM      3  C   UNL     1      -3.283  -2.274  24.697  0.00  0.00    +0.209 C 
BRANCH   3   2
ATOM      1  C   UNL     1      -4.412  -2.418  23.832  0.00  0.00    +0.175 C 
ATOM      2  O   UNL     1      -3.631  -2.180  23.954  0.00  0.00    -0.343 OA
ENDBRANCH   3   2
ENDBRANCH   4   3
ENDBRANCH   7   6
ENDBRANCH   8   7
BRANCH  13  14
ATOM     14  C   UNL     1      -0.714   1.082  25.327  0.00  0.00    +0.087 C 
BRANCH  14  15
ATOM     15  C   UNL     1      -0.429   1.846  25.454  0.00  0.00    +0.242 C 
ATOM     16  O   UNL     1       0.367   1.964  25.635  0.00  0.00    -0.273 OA
ATOM     17  N   UNL     1      -0.939   2.491  25.400  0.00  0.00    -0.200 NA
BRANCH  17  18
ATOM     18  C   UNL     1      -0.654   3.255  25.527  0.00  0.00    +0.148 C 
BRANCH  18  19
ATOM     19  C   UNL     1      -1.149   3.905  25.413  0.00  0.00    +0.029 A 
ATOM     20  C   UNL     1      -0.943   4.613  25.043  0.00  0.00    +0.004 A 
ATOM     21  C   UNL     1      -1.604   5.107  25.050  0.00  0.00    +0.007 A 
ATOM     22  C   UNL     1      -2.219   4.704  25.426  0.00  0.00    +0.035 A 
ATOM     23  S   UNL     1      -1.938   3.962  25.650  0.00  0.00    -0.089 S 
ENDBRANCH  18  19
ENDBRANCH  17  18
ENDBRANCH  14  15
ENDBRANCH  13  14
TORSDOF 8
ENDMDL
MODEL 7
REMARK VINA RESULT:      -8.7      2.243      5.082
REMARK  Name = 
REMARK  8 active torsions:
REMARK  status: ('A' for Active; 'I' for Inactive)
REMARK    1  A    between atoms: O_2  and  C_3
REMARK    2  A    between atoms: C_3  and  C_4
REMARK    3  A    between atoms: C_6  and  C_7
REMARK    4  A    between atoms: C_7  and  C_8
REMARK    5  A    between atoms: C_13  and  C_14
REMARK    6  A    between atoms: C_14  and  C_15
REMARK    7  A    between atoms: N_17  and  C_18
REMARK    8  A    between atoms: C_18  and  C_19
REMARK                            x       y       z     vdW  Elec       q    Type
REMARK                         _______ _______ _______ _____ _____    ______ ____
ROOT
ATOM      8  C   UNL     1      -1.467   2.428  24.994  0.00  0.00    +0.024 C 
ATOM      9  C   UNL     1      -1.268   3.007  25.546  0.00  0.00    +0.089 C 
ATOM     10  N   UNL     1      -0.681   2.858  26.107  0.00  0.00    -0.218 NA
ATOM     11  C   UNL     1      -0.293   2.129  26.114  0.00  0.00    +0.089 C 
ATOM     12  C   UNL     1      -0.493   1.551  25.561  0.00  0.00    +0.019 C 
ATOM     13  C   UNL     1      -1.080   1.700  25.001  0.00  0.00    +0.012 C 
ENDROOT
BRANCH   8   7
ATOM      7  C   UNL     1      -2.055   2.577  24.433  0.00  0.00    +0.051 C 
BRANCH   7   6
ATOM      4  C   UNL     1      -3.952   3.394  24.973  0.00  0.00    +0.184 A 
ATOM      5  C   UNL     1      -3.470   2.748  24.796  0.00  0.00    +0.056 A 
ATOM      6  C   UNL     1      -2.712   3.033  24.636  0.00  0.00    +0.100 A 
ATOM     24  N   UNL     1      -2.726   3.854  24.714  0.00  0.00    -0.082 NA
ATOM     25  O   UNL     1      -3.492   4.077  24.923  0.00  0.00    -0.356 OA
BRANCH   4   3
ATOM      3  C   UNL     1      -4.753   3.362  25.167  0.00  0.00    +0.209 C 
BRANCH   3   2
ATOM      1  C   UNL     1      -5.815   2.785  25.929  0.00  0.00    +0.175 C 
ATOM      2  O   UNL     1      -5.008   2.887  25.792  0.00  0.00    -0.343 OA
ENDBRANCH   3   2
ENDBRANCH   4   3
ENDBRANCH   7   6
ENDBRANCH   8   7
BRANCH  13  14
ATOM     14  C   UNL     1      -1.279   1.121  24.449  0.00  0.00    +0.087 C 
BRANCH  14  15
ATOM     15  C   UNL     1      -1.150   0.324  24.620  0.00  0.00    +0.242 C 
ATOM     16  O   UNL     1      -0.381   0.042  24.713  0.00  0.00    -0.273 OA
ATOM     17  N   UNL     1      -1.790  -0.189  24.700  0.00  0.00    -0.200 NA
BRANCH  17  18
ATOM     18  C   UNL     1      -1.661  -0.986  24.872  0.00  0.00    +0.148 C 
BRANCH  18  19
ATOM     19  C   UNL     1      -2.298  -1.509  24.906  0.00  0.00    +0.029 A 
ATOM     20  C   UNL     1      -2.990  -1.404  25.342  0.00  0.00    +0.004 A 
ATOM     21  C   UNL     1      -3.474  -2.060  25.215  0.00  0.00    +0.007 A 
ATOM     22  C   UNL     1      -3.081  -2.571  24.699  0.00  0.00    +0.035 A 
ATOM     23  S   UNL     1      -2.355  -2.231  24.508  0.00  0.00    -0.089 S 
ENDBRANCH  18  19
ENDBRANCH  17  18
ENDBRANCH  14  15
ENDBRANCH  13  14
TORSDOF 8
ENDMDL
MODEL 8
REMARK VINA RESULT:      -8.6      2.361      4.587
REMARK  Name = 
REMARK  8 active torsions:
REMARK  status: ('A' for Active; 'I' for Inactive)
REMARK    1  A    between atoms: O_2  and  C_3
REMARK    2  A    between atoms: C_3  and  C_4
REMARK    3  A    between atoms: C_6  and  C_7
REMARK    4  A    between atoms: C_7  and  C_8
REMARK    5  A    between atoms: C_13  and  C_14
REMARK    6  A    between atoms: C_14  and  C_15
REMARK    7  A    between atoms: N_17  and  C_18
REMARK    8  A    between atoms: C_18  and  C_19
REMARK                            x       y       z     vdW  Elec       q    Type
REMARK                         _______ _______ _______ _____ _____    ______ ____
ROOT
ATOM      8  C   UNL     1      -1.907   3.881  25.673  0.00  0.00    +0.024 C 
ATOM      9  C   UNL     1      -2.041   4.604  25.298  0.00  0.00    +0.089 C 
ATOM     10  N   UNL     1      -1.440   4.957  24.856  0.00  0.00    -0.218 NA
ATOM     11  C   UNL     1      -0.706   4.585  24.788  0.00  0.00    +0.089 C 
ATOM     12  C   UNL     1      -0.573   3.863  25.162  0.00  0.00    +0.019 C 
ATOM     13  C   UNL     1      -1.174   3.511  25.605  0.00  0.00    +0.012 C 
ENDROOT
BRANCH   8   7
ATOM      7  C   UNL     1      -2.509   3.529  26.116  0.00  0.00    +0.051 C 
BRANCH   7   6
ATOM      4  C   UNL     1      -4.477   3.278  25.328  0.00  0.00    +0.184 A 
ATOM      5  C   UNL     1      -3.720   2.988  25.480  0.00  0.00    +0.056 A 
ATOM      6  C   UNL     1      -3.292   3.582  25.862  0.00  0.00    +0.100 A 
ATOM     24  N   UNL     1      -3.785   4.237  25.947  0.00  0.00    -0.082 NA
ATOM     25  O   UNL     1      -4.518   4.050  25.618  0.00  0.00    -0.356 OA
BRANCH   4   3
ATOM      3  C   UNL     1      -5.087   2.868  24.954  0.00  0.00    +0.209 C 
BRANCH   3   2
ATOM      1  C   UNL     1      -6.124   1.885  24.992  0.00  0.00    +0.175 C 
ATOM      2  O   UNL     1      -5.507   2.288  25.364  0.00  0.00    -0.343 OA
ENDBRANCH   3   2
ENDBRANCH   4   3
ENDBRANCH   7   6
ENDBRANCH   8   7
BRANCH  13  14
ATOM     14  C   UNL     1      -1.041   2.788  25.979  0.00  0.00    +0.087 C 
BRANCH  14  15
ATOM     15  C   UNL     1      -0.518   2.242  25.648  0.00  0.00    +0.242 C 
ATOM     16  O   UNL     1       0.282   2.428  25.576  0.00  0.00    -0.273 OA
ATOM     17  N   UNL     1      -0.796   1.509  25.390  0.00  0.00    -0.200 NA
BRANCH  17  18
ATOM     18  C   UNL     1      -0.273   0.963  25.060  0.00  0.00    +0.148 C 
BRANCH  18  19
ATOM     19  C   UNL     1      -0.531   0.200  24.884  0.00  0.00    +0.029 A 
ATOM     20  C   UNL     1      -1.071  -0.244  25.323  0.00  0.00    +0.004 A 
ATOM     21  C   UNL     1      -1.167  -0.972  24.948  0.00  0.00    +0.007 A 
ATOM     22  C   UNL     1      -0.686  -0.980  24.277  0.00  0.00    +0.035 A 
ATOM     23  S   UNL     1      -0.294  -0.256  24.238  0.00  0.00    -0.089 S 
ENDBRANCH  18  19
ENDBRANCH  17  18
ENDBRANCH  14  15
ENDBRANCH  13  14
TORSDOF 8
ENDMDL
