MODEL 1
REMARK VINA RESULT:     -12.3      0.000      0.000
REMARK  Name = 
REMARK  3 active torsions:
REMARK  status: ('A' for Active; 'I' for Inactive)
REMARK    1  A    between atoms: N_3  and  C_18
REMARK    2  A    between atoms: N_7  and  C_8
REMARK    3  A    between atoms: C_8  and  C_9
REMARK                            x       y       z     vdW  Elec       q    Type
REMARK                         _______ _______ _______ _____ _____    ______ ____
ROOT
ATOM      1  O   UNL     1      -2.099   2.635  23.217  0.00  0.00    -0.252 OA
ATOM      2  C   UNL     1      -2.442   2.339  23.907  0.00  0.00    +0.307 C 
ATOM      3  N   UNL     1      -2.369   2.664  24.662  0.00  0.00    -0.264 N 
ATOM      4  C   UNL     1      -2.799   2.192  25.185  0.00  0.00    +0.116 C 
ATOM      5  C   UNL     1      -3.137   1.576  24.754  0.00  0.00    +0.113 C 
ATOM      6  C   UNL     1      -3.618   0.944  24.977  0.00  0.00    +0.094 C 
ATOM      7  N   UNL     1      -3.878   0.403  24.411  0.00  0.00    -0.266 NA
ATOM     15  C   UNL     1      -3.657   0.494  23.622  0.00  0.00    +0.094 C 
ATOM     16  C   UNL     1      -3.176   1.125  23.397  0.00  0.00    +0.112 C 
ATOM     17  N   UNL     1      -2.916   1.667  23.964  0.00  0.00    -0.261 N 
ENDROOT
BRANCH   3  18
ATOM     18  C   UNL     1      -1.941   3.341  24.859  0.00  0.00    +0.077 C 
ATOM     19  C   UNL     1      -2.332   4.059  24.968  0.00  0.00    +0.020 C 
ATOM     20  C   UNL     1      -1.905   4.737  25.165  0.00  0.00    +0.002 C 
ATOM     21  C   UNL     1      -1.086   4.696  25.254  0.00  0.00    +0.000 C 
ATOM     22  C   UNL     1      -0.694   3.978  25.147  0.00  0.00    +0.002 C 
ATOM     23  C   UNL     1      -1.122   3.301  24.949  0.00  0.00    +0.020 C 
ENDBRANCH   3  18
BRANCH   7   8
ATOM      8  C   UNL     1      -4.358  -0.229  24.635  0.00  0.00    +0.099 C 
BRANCH   8   9
ATOM      9  C   UNL     1      -4.048  -0.992  24.670  0.00  0.00    -0.006 A 
ATOM     10  C   UNL     1      -3.616  -1.233  25.331  0.00  0.00    -0.003 A 
ATOM     11  C   UNL     1      -3.305  -1.995  25.366  0.00  0.00    -0.000 A 
ATOM     12  C   UNL     1      -3.426  -2.519  24.740  0.00  0.00    -0.000 A 
ATOM     13  C   UNL     1      -3.857  -2.280  24.079  0.00  0.00    -0.000 A 
ATOM     14  C   UNL     1      -4.168  -1.516  24.044  0.00  0.00    -0.003 A 
ENDBRANCH   8   9
ENDBRANCH   7   8
TORSDOF 3
ENDMDL
MODEL 2
REMARK VINA RESULT:     -12.0      1.135      4.864
REMARK  Name = 
REMARK  3 active torsions:
REMARK  status: ('A' for Active; 'I' for Inactive)
REMARK    1  A    between atoms: N_3  and  C_18
REMARK    2  A    between atoms: N_7  and  C_8
REMARK    3  A    between atoms: C_8  and  C_9
REMARK                            x       y       z     vdW  Elec       q    Type
REMARK                         _______ _______ _______ _____ _____    ______ ____
ROOT
ATOM      1  O   UNL     1      -4.969   0.061  25.227  0.00  0.00    -0.252 OA
ATOM      2  C   UNL     1      -4.293   0.311  24.825  0.00  0.00    +0.307 C 
ATOM      3  N   UNL     1      -3.726  -0.179  24.480  0.00  0.00    -0.264 N 
ATOM      4  C   UNL     1      -3.148   0.302  24.139  0.00  0.00    +0.116 C 
ATOM      5  C   UNL     1      -3.358   1.087  24.274  0.00  0.00    +0.113 C 
ATOM      6  C   UNL     1      -2.997   1.800  24.066  0.00  0.00    +0.094 C 
ATOM      7  N   UNL     1      -3.343   2.516  24.281  0.00  0.00    -0.266 NA
ATOM     15  C   UNL     1      -4.050   2.522  24.705  0.00  0.00    +0.094 C 
ATOM     16  C   UNL     1      -4.412   1.811  24.913  0.00  0.00    +0.112 C 
ATOM     17  N   UNL     1      -4.066   1.093  24.698  0.00  0.00    -0.261 N 
ENDROOT
BRANCH   3  18
ATOM     18  C   UNL     1      -3.735  -1.004  24.475  0.00  0.00    +0.077 C 
ATOM     19  C   UNL     1      -4.135  -1.409  23.879  0.00  0.00    +0.020 C 
ATOM     20  C   UNL     1      -4.144  -2.234  23.875  0.00  0.00    +0.002 C 
ATOM     21  C   UNL     1      -3.753  -2.654  24.467  0.00  0.00    +0.000 C 
ATOM     22  C   UNL     1      -3.352  -2.249  25.064  0.00  0.00    +0.002 C 
ATOM     23  C   UNL     1      -3.343  -1.424  25.068  0.00  0.00    +0.020 C 
ENDBRANCH   3  18
BRANCH   7   8
ATOM      8  C   UNL     1      -2.981   3.229  24.073  0.00  0.00    +0.099 C 
BRANCH   8   9
ATOM      9  C   UNL     1      -2.423   3.570  24.574  0.00  0.00    -0.006 A 
ATOM     10  C   UNL     1      -2.664   4.081  25.175  0.00  0.00    -0.003 A 
ATOM     11  C   UNL     1      -2.106   4.423  25.676  0.00  0.00    -0.000 A 
ATOM     12  C   UNL     1      -1.305   4.254  25.576  0.00  0.00    -0.000 A 
ATOM     13  C   UNL     1      -1.062   3.743  24.976  0.00  0.00    -0.000 A 
ATOM     14  C   UNL     1      -1.622   3.401  24.474  0.00  0.00    -0.003 A 
ENDBRANCH   8   9
ENDBRANCH   7   8
TORSDOF 3
ENDMDL
MODEL 3
REMARK VINA RESULT:     -11.5      1.177      4.838
REMARK  Name = 
REMARK  3 active torsions:
REMARK  status: ('A' for Active; 'I' for Inactive)
REMARK    1  A    between atoms: N_3  and  C_18
REMARK    2  A    between atoms: N_7  and  C_8
REMARK    3  A    between atoms: C_8  and  C_9
REMARK                            x       y       z     vdW  Elec       q    Type
REMARK                         _______ _______ _______ _____ _____    ______ ____
ROOT
ATOM      1  O   UNL     1      -1.731  -0.669  24.227  0.00  0.00    -0.252 OA
ATOM      2  C   UNL     1      -2.417  -0.212  24.283  0.00  0.00    +0.307 C 
ATOM      3  N   UNL     1      -3.183  -0.499  24.389  0.00  0.00    -0.264 N 
ATOM      4  C   UNL     1      -3.696   0.147  24.414  0.00  0.00    +0.116 C 
ATOM      5  C   UNL     1      -3.246   0.832  24.323  0.00  0.00    +0.113 C 
ATOM      6  C   UNL     1      -3.453   1.631  24.304  0.00  0.00    +0.094 C 
ATOM      7  N   UNL     1      -2.872   2.206  24.204  0.00  0.00    -0.266 NA
ATOM     15  C   UNL     1      -2.081   1.984  24.123  0.00  0.00    +0.094 C 
ATOM     16  C   UNL     1      -1.873   1.186  24.142  0.00  0.00    +0.112 C 
ATOM     17  N   UNL     1      -2.456   0.610  24.242  0.00  0.00    -0.261 N 
ENDROOT
BRANCH   3  18
ATOM     18  C   UNL     1      -3.399  -1.292  24.458  0.00  0.00    +0.077 C 
ATOM     19  C   UNL     1      -3.182  -1.723  25.127  0.00  0.00    +0.020 C 
ATOM     20  C   UNL     1      -3.398  -2.516  25.196  0.00  0.00    +0.002 C 
ATOM     21  C   UNL     1      -3.831  -2.879  24.595  0.00  0.00    +0.000 C 
ATOM     22  C   UNL     1      -4.048  -2.449  23.925  0.00  0.00    +0.002 C 
ATOM     23  C   UNL     1      -3.832  -1.656  23.856  0.00  0.00    +0.020 C 
ENDBRANCH   3  18
BRANCH   7   8
ATOM      8  C   UNL     1      -3.079   3.005  24.184  0.00  0.00    +0.099 C 
BRANCH   8   9
ATOM      9  C   UNL     1      -3.009   3.466  24.864  0.00  0.00    -0.006 A 
ATOM     10  C   UNL     1      -2.307   3.874  25.015  0.00  0.00    -0.003 A 
ATOM     11  C   UNL     1      -2.236   4.335  25.695  0.00  0.00    -0.000 A 
ATOM     12  C   UNL     1      -2.867   4.390  26.223  0.00  0.00    -0.000 A 
ATOM     13  C   UNL     1      -3.569   3.984  26.073  0.00  0.00    -0.000 A 
ATOM     14  C   UNL     1      -3.639   3.521  25.392  0.00  0.00    -0.003 A 
ENDBRANCH   8   9
ENDBRANCH   7   8
TORSDOF 3
ENDMDL
