MODEL 1
REMARK VINA RESULT:     -16.1      0.000      0.000
REMARK  Name = 
REMARK  4 active torsions:
REMARK  status: ('A' for Active; 'I' for Inactive)
REMARK    1  A    between atoms: C_5  and  C_8
REMARK    2  A    between atoms: C_19  and  N_20
REMARK    3  A    between atoms: C_21  and  C_23
REMARK    4  A    between atoms: C_26  and  C_29
REMARK                            x       y       z     vdW  Elec       q    Type
REMARK                         _______ _______ _______ _____ _____    ______ ____
ROOT
ATOM      8  C   UNL     1      -0.826   2.353  24.952  0.00  0.00    +0.249 C 
ATOM      9  O   UNL     1       0.021   2.241  25.148  0.00  0.00    -0.270 OA
ATOM     10  N   UNL     1      -0.944   3.170  25.103  0.00  0.00    -0.276 N 
ATOM     11  C   UNL     1      -0.640   3.909  25.347  0.00  0.00    +0.096 C 
ATOM     12  C   UNL     1      -1.454   4.461  25.257  0.00  0.00    +0.043 C 
ATOM     13  C   UNL     1      -2.025   5.042  25.237  0.00  0.00    +0.011 C 
ATOM     14  C   UNL     1      -1.978   4.356  25.097  0.00  0.00    +0.058 C 
ATOM     15  C   UNL     1      -1.182   3.835  25.189  0.00  0.00    +0.099 C 
ATOM     16  C   UNL     1      -2.481   3.643  24.807  0.00  0.00    +0.041 A 
ATOM     17  C   UNL     1      -3.247   3.456  24.566  0.00  0.00    +0.014 A 
ATOM     18  C   UNL     1      -3.433   2.683  24.345  0.00  0.00    +0.023 A 
ATOM     19  C   UNL     1      -2.852   2.097  24.367  0.00  0.00    +0.130 A 
ATOM     31  C   UNL     1      -2.086   2.284  24.608  0.00  0.00    +0.276 A 
ATOM     32  O   UNL     1      -1.211   1.758  24.719  0.00  0.00    -0.266 OA
ATOM     33  N   UNL     1      -1.900   3.057  24.828  0.00  0.00    -0.298 N 
ATOM     34  C   UNL     1      -1.972   3.711  24.955  0.00  0.00    +0.110 C 
ENDROOT
BRANCH   8   5
ATOM      1  F   UNL     1      -4.273   0.942  23.778  0.00  0.00    -0.204 F 
ATOM      2  C   UNL     1      -3.389   1.293  24.012  0.00  0.00    +0.140 A 
ATOM      3  C   UNL     1      -3.113   1.533  24.836  0.00  0.00    +0.030 A 
ATOM      4  C   UNL     1      -2.300   1.873  25.155  0.00  0.00    +0.007 A 
ATOM      5  C   UNL     1      -1.656   2.012  24.660  0.00  0.00    +0.054 A 
ATOM      6  C   UNL     1      -1.713   1.851  23.853  0.00  0.00    +0.007 A 
ATOM      7  C   UNL     1      -2.416   1.550  23.541  0.00  0.00    +0.030 A 
ENDBRANCH   8   5
BRANCH  19  20
ATOM     20  N   UNL     1      -2.954   1.304  24.164  0.00  0.00    -0.171 NA
ATOM     21  C   UNL     1      -3.619   1.043  24.848  0.00  0.00    +0.269 C 
ATOM     22  O   UNL     1      -4.152   1.305  25.591  0.00  0.00    -0.268 OA
BRANCH  21  23
ATOM     23  C   UNL     1      -3.711   0.101  24.573  0.00  0.00    +0.055 A 
ATOM     24  C   UNL     1      -3.849  -0.205  23.819  0.00  0.00    +0.005 A 
ATOM     25  C   UNL     1      -3.907  -1.021  23.709  0.00  0.00    +0.010 A 
ATOM     26  C   UNL     1      -3.828  -1.530  24.354  0.00  0.00    +0.068 A 
ATOM     27  C   UNL     1      -3.691  -1.224  25.107  0.00  0.00    +0.010 A 
ATOM     28  C   UNL     1      -3.632  -0.409  25.217  0.00  0.00    +0.005 A 
BRANCH  26  29
ATOM     29  C   UNL     1      -3.889  -2.375  24.243  0.00  0.00    +0.100 C 
ATOM     30  N   UNL     1      -3.948  -3.199  24.139  0.00  0.00    -0.191 NA
ENDBRANCH  26  29
ENDBRANCH  21  23
ENDBRANCH  19  20
TORSDOF 4
ENDMDL
MODEL 2
REMARK VINA RESULT:     -15.6      1.281      4.614
REMARK  Name = 
REMARK  4 active torsions:
REMARK  status: ('A' for Active; 'I' for Inactive)
REMARK    1  A    between atoms: C_5  and  C_8
REMARK    2  A    between atoms: C_19  and  N_20
REMARK    3  A    between atoms: C_21  and  C_23
REMARK    4  A    between atoms: C_26  and  C_29
REMARK                            x       y       z     vdW  Elec       q    Type
REMARK                         _______ _______ _______ _____ _____    ______ ____
ROOT
ATOM      8  C   UNL     1      -2.052  -1.302  25.082  0.00  0.00    +0.249 C 
ATOM      9  O   UNL     1      -1.321  -1.717  25.326  0.00  0.00    -0.270 OA
ATOM     10  N   UNL     1      -2.518  -1.921  24.761  0.00  0.00    -0.276 N 
ATOM     11  C   UNL     1      -2.608  -2.729  24.569  0.00  0.00    +0.096 C 
ATOM     12  C   UNL     1      -3.514  -2.705  24.174  0.00  0.00    +0.043 C 
ATOM     13  C   UNL     1      -4.237  -2.852  23.829  0.00  0.00    +0.011 C 
ATOM     14  C   UNL     1      -3.888  -2.300  24.086  0.00  0.00    +0.058 C 
ATOM     15  C   UNL     1      -3.012  -2.340  24.464  0.00  0.00    +0.099 C 
ATOM     16  C   UNL     1      -3.969  -1.395  24.221  0.00  0.00    +0.041 A 
ATOM     17  C   UNL     1      -4.501  -0.775  24.104  0.00  0.00    +0.014 A 
ATOM     18  C   UNL     1      -4.299  -0.010  24.336  0.00  0.00    +0.023 A 
ATOM     19  C   UNL     1      -3.566   0.136  24.686  0.00  0.00    +0.130 A 
ATOM     31  C   UNL     1      -3.035  -0.484  24.804  0.00  0.00    +0.276 A 
ATOM     32  O   UNL     1      -2.092  -0.566  25.203  0.00  0.00    -0.266 OA
ATOM     33  N   UNL     1      -3.236  -1.249  24.571  0.00  0.00    -0.298 N 
ATOM     34  C   UNL     1      -3.590  -1.759  24.319  0.00  0.00    +0.110 C 
ENDROOT
BRANCH   8   5
ATOM      1  F   UNL     1      -4.167   1.963  24.726  0.00  0.00    -0.204 F 
ATOM      2  C   UNL     1      -3.650   1.144  24.877  0.00  0.00    +0.140 A 
ATOM      3  C   UNL     1      -3.201   0.675  24.252  0.00  0.00    +0.030 A 
ATOM      4  C   UNL     1      -2.686  -0.106  24.298  0.00  0.00    +0.007 A 
ATOM      5  C   UNL     1      -2.565  -0.513  25.005  0.00  0.00    +0.054 A 
ATOM      6  C   UNL     1      -2.902  -0.235  25.704  0.00  0.00    +0.007 A 
ATOM      7  C   UNL     1      -3.361   0.451  25.697  0.00  0.00    +0.030 A 
ENDBRANCH   8   5
BRANCH  19  20
ATOM     20  N   UNL     1      -3.289   0.868  24.947  0.00  0.00    -0.171 NA
ATOM     21  C   UNL     1      -3.220   1.337  24.078  0.00  0.00    +0.269 C 
ATOM     22  O   UNL     1      -3.333   1.299  23.134  0.00  0.00    -0.268 OA
BRANCH  21  23
ATOM     23  C   UNL     1      -2.889   2.196  24.431  0.00  0.00    +0.055 A 
ATOM     24  C   UNL     1      -3.191   2.649  25.050  0.00  0.00    +0.005 A 
ATOM     25  C   UNL     1      -2.825   3.359  25.258  0.00  0.00    +0.010 A 
ATOM     26  C   UNL     1      -2.157   3.614  24.845  0.00  0.00    +0.068 A 
ATOM     27  C   UNL     1      -1.855   3.160  24.227  0.00  0.00    +0.010 A 
ATOM     28  C   UNL     1      -2.221   2.451  24.019  0.00  0.00    +0.005 A 
BRANCH  26  29
ATOM     29  C   UNL     1      -1.776   4.348  25.059  0.00  0.00    +0.100 C 
ATOM     30  N   UNL     1      -1.402   5.064  25.263  0.00  0.00    -0.191 NA
ENDBRANCH  26  29
ENDBRANCH  21  23
ENDBRANCH  19  20
TORSDOF 4
ENDMDL
MODEL 3
REMARK VINA RESULT:     -15.6      2.346      4.399
REMARK  Name = 
REMARK  4 active torsions:
REMARK  status: ('A' for Active; 'I' for Inactive)
REMARK    1  A    between atoms: C_5  and  C_8
REMARK    2  A    between atoms: C_19  and  N_20
REMARK    3  A    between atoms: C_21  and  C_23
REMARK    4  A    between atoms: C_26  and  C_29
REMARK                            x       y       z     vdW  Elec       q    Type
REMARK                         _______ _______ _______ _____ _____    ______ ____
ROOT
ATOM      8  C   UNL     1      -1.738  -0.735  25.684  0.00  0.00    +0.249 C 
ATOM      9  O   UNL     1      -1.007  -0.586  26.143  0.00  0.00    -0.270 OA
ATOM     10  N   UNL     1      -1.555  -1.442  25.270  0.00  0.00    -0.276 N 
ATOM     11  C   UNL     1      -1.015  -2.054  25.095  0.00  0.00    +0.096 C 
ATOM     12  C   UNL     1      -1.560  -2.579  24.459  0.00  0.00    +0.043 C 
ATOM     13  C   UNL     1      -1.873  -3.112  23.929  0.00  0.00    +0.011 C 
ATOM     14  C   UNL     1      -2.075  -2.522  24.251  0.00  0.00    +0.058 C 
ATOM     15  C   UNL     1      -1.536  -2.026  24.864  0.00  0.00    +0.099 C 
ATOM     16  C   UNL     1      -2.786  -1.944  24.319  0.00  0.00    +0.041 A 
ATOM     17  C   UNL     1      -3.550  -1.833  24.029  0.00  0.00    +0.014 A 
ATOM     18  C   UNL     1      -3.995  -1.183  24.277  0.00  0.00    +0.023 A 
ATOM     19  C   UNL     1      -3.674  -0.645  24.814  0.00  0.00    +0.130 A 
ATOM     31  C   UNL     1      -2.910  -0.756  25.104  0.00  0.00    +0.276 A 
ATOM     32  O   UNL     1      -2.301  -0.250  25.758  0.00  0.00    -0.266 OA
ATOM     33  N   UNL     1      -2.466  -1.406  24.856  0.00  0.00    -0.298 N 
ATOM     34  C   UNL     1      -2.299  -1.970  24.536  0.00  0.00    +0.110 C 
ENDROOT
BRANCH   8   5
ATOM      1  F   UNL     1      -5.355   0.267  24.603  0.00  0.00    -0.204 F 
ATOM      2  C   UNL     1      -4.472  -0.004  24.929  0.00  0.00    +0.140 A 
ATOM      3  C   UNL     1      -3.693   0.067  24.480  0.00  0.00    +0.030 A 
ATOM      4  C   UNL     1      -2.813  -0.161  24.704  0.00  0.00    +0.007 A 
ATOM      5  C   UNL     1      -2.616  -0.496  25.431  0.00  0.00    +0.054 A 
ATOM      6  C   UNL     1      -3.203  -0.643  25.991  0.00  0.00    +0.007 A 
ATOM      7  C   UNL     1      -3.989  -0.453  25.824  0.00  0.00    +0.030 A 
ENDBRANCH   8   5
BRANCH  19  20
ATOM     20  N   UNL     1      -4.049   0.027  25.111  0.00  0.00    -0.171 NA
ATOM     21  C   UNL     1      -4.071   0.580  24.290  0.00  0.00    +0.269 C 
ATOM     22  O   UNL     1      -3.855   0.655  23.367  0.00  0.00    -0.268 OA
BRANCH  21  23
ATOM     23  C   UNL     1      -4.522   1.363  24.685  0.00  0.00    +0.055 A 
ATOM     24  C   UNL     1      -5.138   1.381  25.233  0.00  0.00    +0.005 A 
ATOM     25  C   UNL     1      -5.437   2.106  25.494  0.00  0.00    +0.010 A 
ATOM     26  C   UNL     1      -5.118   2.810  25.205  0.00  0.00    +0.068 A 
ATOM     27  C   UNL     1      -4.502   2.791  24.658  0.00  0.00    +0.010 A 
ATOM     28  C   UNL     1      -4.203   2.067  24.398  0.00  0.00    +0.005 A 
BRANCH  26  29
ATOM     29  C   UNL     1      -5.425   3.561  25.474  0.00  0.00    +0.100 C 
ATOM     30  N   UNL     1      -5.725   4.291  25.740  0.00  0.00    -0.191 NA
ENDBRANCH  26  29
ENDBRANCH  21  23
ENDBRANCH  19  20
TORSDOF 4
ENDMDL
MODEL 4
REMARK VINA RESULT:     -15.5      0.937      1.602
REMARK  Name = 
REMARK  4 active torsions:
REMARK  status: ('A' for Active; 'I' for Inactive)
REMARK    1  A    between atoms: C_5  and  C_8
REMARK    2  A    between atoms: C_19  and  N_20
REMARK    3  A    between atoms: C_21  and  C_23
REMARK    4  A    between atoms: C_26  and  C_29
REMARK                            x       y       z     vdW  Elec       q    Type
REMARK                         _______ _______ _______ _____ _____    ______ ____
ROOT
ATOM      8  C   UNL     1      -3.514   3.452  25.397  0.00  0.00    +0.249 C 
ATOM      9  O   UNL     1      -4.167   3.837  25.836  0.00  0.00    -0.270 OA
ATOM     10  N   UNL     1      -2.898   4.018  25.447  0.00  0.00    -0.276 N 
ATOM     11  C   UNL     1      -2.622   4.760  25.715  0.00  0.00    +0.096 C 
ATOM     12  C   UNL     1      -1.702   4.734  25.354  0.00  0.00    +0.043 C 
ATOM     13  C   UNL     1      -0.931   4.866  25.128  0.00  0.00    +0.011 C 
ATOM     14  C   UNL     1      -1.413   4.361  25.057  0.00  0.00    +0.058 C 
ATOM     15  C   UNL     1      -2.298   4.401  25.413  0.00  0.00    +0.099 C 
ATOM     16  C   UNL     1      -1.536   3.529  24.687  0.00  0.00    +0.041 A 
ATOM     17  C   UNL     1      -1.134   2.957  24.248  0.00  0.00    +0.014 A 
ATOM     18  C   UNL     1      -1.514   2.255  24.039  0.00  0.00    +0.023 A 
ATOM     19  C   UNL     1      -2.296   2.125  24.270  0.00  0.00    +0.130 A 
ATOM     31  C   UNL     1      -2.697   2.696  24.708  0.00  0.00    +0.276 A 
ATOM     32  O   UNL     1      -3.642   2.776  25.106  0.00  0.00    -0.266 OA
ATOM     33  N   UNL     1      -2.317   3.398  24.917  0.00  0.00    -0.298 N 
ATOM     34  C   UNL     1      -1.840   3.865  24.970  0.00  0.00    +0.110 C 
ENDROOT
BRANCH   8   5
ATOM      1  F   UNL     1      -2.071   0.435  23.379  0.00  0.00    -0.204 F 
ATOM      2  C   UNL     1      -2.466   1.207  23.834  0.00  0.00    +0.140 A 
ATOM      3  C   UNL     1      -2.303   1.468  24.681  0.00  0.00    +0.030 A 
ATOM      4  C   UNL     1      -2.627   2.180  25.197  0.00  0.00    +0.007 A 
ATOM      5  C   UNL     1      -3.170   2.725  24.902  0.00  0.00    +0.054 A 
ATOM      6  C   UNL     1      -3.448   2.655  24.128  0.00  0.00    +0.007 A 
ATOM      7  C   UNL     1      -3.181   2.038  23.649  0.00  0.00    +0.030 A 
ENDBRANCH   8   5
BRANCH  19  20
ATOM     20  N   UNL     1      -2.746   1.454  24.103  0.00  0.00    -0.171 NA
ATOM     21  C   UNL     1      -2.261   0.789  24.652  0.00  0.00    +0.269 C 
ATOM     22  O   UNL     1      -1.541   0.612  25.250  0.00  0.00    -0.268 OA
BRANCH  21  23
ATOM     23  C   UNL     1      -2.825   0.013  24.427  0.00  0.00    +0.055 A 
ATOM     24  C   UNL     1      -3.440  -0.036  23.879  0.00  0.00    +0.005 A 
ATOM     25  C   UNL     1      -3.845  -0.748  23.776  0.00  0.00    +0.010 A 
ATOM     26  C   UNL     1      -3.633  -1.410  24.222  0.00  0.00    +0.068 A 
ATOM     27  C   UNL     1      -3.019  -1.361  24.769  0.00  0.00    +0.010 A 
ATOM     28  C   UNL     1      -2.614  -0.649  24.872  0.00  0.00    +0.005 A 
BRANCH  26  29
ATOM     29  C   UNL     1      -4.051  -2.148  24.117  0.00  0.00    +0.100 C 
ATOM     30  N   UNL     1      -4.457  -2.868  24.010  0.00  0.00    -0.191 NA
ENDBRANCH  26  29
ENDBRANCH  21  23
ENDBRANCH  19  20
TORSDOF 4
ENDMDL
MODEL 5
REMARK VINA RESULT:     -14.9      1.539      2.176
REMARK  Name = 
REMARK  4 active torsions:
REMARK  status: ('A' for Active; 'I' for Inactive)
REMARK    1  A    between atoms: C_5  and  C_8
REMARK    2  A    between atoms: C_19  and  N_20
REMARK    3  A    between atoms: C_21  and  C_23
REMARK    4  A    between atoms: C_26  and  C_29
REMARK                            x       y       z     vdW  Elec       q    Type
REMARK                         _______ _______ _______ _____ _____    ______ ____
ROOT
ATOM      8  C   UNL     1      -3.020   2.764  24.825  0.00  0.00    +0.249 C 
ATOM      9  O   UNL     1      -2.296   3.257  24.833  0.00  0.00    -0.270 OA
ATOM     10  N   UNL     1      -3.614   3.303  25.068  0.00  0.00    -0.276 N 
ATOM     11  C   UNL     1      -3.834   4.073  25.309  0.00  0.00    +0.096 C 
ATOM     12  C   UNL     1      -4.804   3.936  25.437  0.00  0.00    +0.043 C 
ATOM     13  C   UNL     1      -5.603   3.987  25.586  0.00  0.00    +0.011 C 
ATOM     14  C   UNL     1      -5.144   3.498  25.379  0.00  0.00    +0.058 C 
ATOM     15  C   UNL     1      -4.209   3.646  25.260  0.00  0.00    +0.099 C 
ATOM     16  C   UNL     1      -5.095   2.613  25.137  0.00  0.00    +0.041 A 
ATOM     17  C   UNL     1      -5.572   1.947  25.042  0.00  0.00    +0.014 A 
ATOM     18  C   UNL     1      -5.240   1.233  24.797  0.00  0.00    +0.023 A 
ATOM     19  C   UNL     1      -4.430   1.184  24.647  0.00  0.00    +0.130 A 
ATOM     31  C   UNL     1      -3.953   1.850  24.742  0.00  0.00    +0.276 A 
ATOM     32  O   UNL     1      -2.951   2.048  24.625  0.00  0.00    -0.266 OA
ATOM     33  N   UNL     1      -4.285   2.564  24.987  0.00  0.00    -0.298 N 
ATOM     34  C   UNL     1      -4.742   3.012  25.183  0.00  0.00    +0.110 C 
ENDROOT
BRANCH   8   5
ATOM      1  F   UNL     1      -4.812  -0.660  24.262  0.00  0.00    -0.204 F 
ATOM      2  C   UNL     1      -4.356   0.203  24.341  0.00  0.00    +0.140 A 
ATOM      3  C   UNL     1      -4.173   0.641  25.107  0.00  0.00    +0.030 A 
ATOM      4  C   UNL     1      -3.748   1.457  25.282  0.00  0.00    +0.007 A 
ATOM      5  C   UNL     1      -3.452   1.937  24.680  0.00  0.00    +0.054 A 
ATOM      6  C   UNL     1      -3.524   1.704  23.892  0.00  0.00    +0.007 A 
ATOM      7  C   UNL     1      -3.894   0.990  23.706  0.00  0.00    +0.030 A 
ENDBRANCH   8   5
BRANCH  19  20
ATOM     20  N   UNL     1      -4.021   0.512  24.400  0.00  0.00    -0.171 NA
ATOM     21  C   UNL     1      -4.139  -0.057  25.201  0.00  0.00    +0.269 C 
ATOM     22  O   UNL     1      -4.502  -0.146  26.076  0.00  0.00    -0.268 OA
BRANCH  21  23
ATOM     23  C   UNL     1      -3.641  -0.839  24.867  0.00  0.00    +0.055 A 
ATOM     24  C   UNL     1      -3.771  -1.279  24.181  0.00  0.00    +0.005 A 
ATOM     25  C   UNL     1      -3.283  -1.921  24.004  0.00  0.00    +0.010 A 
ATOM     26  C   UNL     1      -2.666  -2.122  24.514  0.00  0.00    +0.068 A 
ATOM     27  C   UNL     1      -2.537  -1.682  25.200  0.00  0.00    +0.010 A 
ATOM     28  C   UNL     1      -3.024  -1.041  25.376  0.00  0.00    +0.005 A 
BRANCH  26  29
ATOM     29  C   UNL     1      -2.159  -2.785  24.333  0.00  0.00    +0.100 C 
ATOM     30  N   UNL     1      -1.669  -3.436  24.159  0.00  0.00    -0.191 NA
ENDBRANCH  26  29
ENDBRANCH  21  23
ENDBRANCH  19  20
TORSDOF 4
ENDMDL
MODEL 6
REMARK VINA RESULT:     -14.8      1.503      4.718
REMARK  Name = 
REMARK  4 active torsions:
REMARK  status: ('A' for Active; 'I' for Inactive)
REMARK    1  A    between atoms: C_5  and  C_8
REMARK    2  A    between atoms: C_19  and  N_20
REMARK    3  A    between atoms: C_21  and  C_23
REMARK    4  A    between atoms: C_26  and  C_29
REMARK                            x       y       z     vdW  Elec       q    Type
REMARK                         _______ _______ _______ _____ _____    ______ ____
ROOT
ATOM      8  C   UNL     1      -3.849  -0.109  24.470  0.00  0.00    +0.249 C 
ATOM      9  O   UNL     1      -4.724  -0.071  24.462  0.00  0.00    -0.270 OA
ATOM     10  N   UNL     1      -3.700  -0.930  24.555  0.00  0.00    -0.276 N 
ATOM     11  C   UNL     1      -3.989  -1.709  24.634  0.00  0.00    +0.096 C 
ATOM     12  C   UNL     1      -3.132  -2.199  24.688  0.00  0.00    +0.043 C 
ATOM     13  C   UNL     1      -2.525  -2.739  24.747  0.00  0.00    +0.011 C 
ATOM     14  C   UNL     1      -2.596  -2.044  24.675  0.00  0.00    +0.058 C 
ATOM     15  C   UNL     1      -3.433  -1.586  24.624  0.00  0.00    +0.099 C 
ATOM     16  C   UNL     1      -2.102  -1.273  24.598  0.00  0.00    +0.041 A 
ATOM     17  C   UNL     1      -1.320  -1.014  24.575  0.00  0.00    +0.014 A 
ATOM     18  C   UNL     1      -1.154  -0.210  24.493  0.00  0.00    +0.023 A 
ATOM     19  C   UNL     1      -1.771   0.335  24.434  0.00  0.00    +0.130 A 
ATOM     31  C   UNL     1      -2.554   0.075  24.457  0.00  0.00    +0.276 A 
ATOM     32  O   UNL     1      -3.472   0.533  24.405  0.00  0.00    -0.266 OA
ATOM     33  N   UNL     1      -2.719  -0.729  24.539  0.00  0.00    -0.298 N 
ATOM     34  C   UNL     1      -2.624  -1.388  24.607  0.00  0.00    +0.110 C 
ENDROOT
BRANCH   8   5
ATOM      1  F   UNL     1      -0.355   1.632  24.343  0.00  0.00    -0.204 F 
ATOM      2  C   UNL     1      -1.238   1.208  24.313  0.00  0.00    +0.140 A 
ATOM      3  C   UNL     1      -1.667   0.823  25.006  0.00  0.00    +0.030 A 
ATOM      4  C   UNL     1      -2.499   0.399  25.075  0.00  0.00    +0.007 A 
ATOM      5  C   UNL     1      -3.006   0.314  24.430  0.00  0.00    +0.054 A 
ATOM      6  C   UNL     1      -2.786   0.607  23.691  0.00  0.00    +0.007 A 
ATOM      7  C   UNL     1      -2.059   0.987  23.597  0.00  0.00    +0.030 A 
ENDBRANCH   8   5
BRANCH  19  20
ATOM     20  N   UNL     1      -1.693   1.151  24.350  0.00  0.00    -0.171 NA
ATOM     21  C   UNL     1      -1.267   1.366  25.217  0.00  0.00    +0.269 C 
ATOM     22  O   UNL     1      -0.934   1.046  26.049  0.00  0.00    -0.268 OA
BRANCH  21  23
ATOM     23  C   UNL     1      -1.192   2.339  25.076  0.00  0.00    +0.055 A 
ATOM     24  C   UNL     1      -0.883   2.744  24.427  0.00  0.00    +0.005 A 
ATOM     25  C   UNL     1      -0.874   3.569  24.422  0.00  0.00    +0.010 A 
ATOM     26  C   UNL     1      -1.173   3.988  25.068  0.00  0.00    +0.068 A 
ATOM     27  C   UNL     1      -1.480   3.583  25.716  0.00  0.00    +0.010 A 
ATOM     28  C   UNL     1      -1.490   2.758  25.721  0.00  0.00    +0.005 A 
BRANCH  26  29
ATOM     29  C   UNL     1      -1.163   4.842  25.065  0.00  0.00    +0.100 C 
ATOM     30  N   UNL     1      -1.158   5.675  25.060  0.00  0.00    -0.191 NA
ENDBRANCH  26  29
ENDBRANCH  21  23
ENDBRANCH  19  20
TORSDOF 4
ENDMDL
MODEL 7
REMARK VINA RESULT:     -14.2      1.978      3.221
REMARK  Name = 
REMARK  4 active torsions:
REMARK  status: ('A' for Active; 'I' for Inactive)
REMARK    1  A    between atoms: C_5  and  C_8
REMARK    2  A    between atoms: C_19  and  N_20
REMARK    3  A    between atoms: C_21  and  C_23
REMARK    4  A    between atoms: C_26  and  C_29
REMARK                            x       y       z     vdW  Elec       q    Type
REMARK                         _______ _______ _______ _____ _____    ______ ____
ROOT
ATOM      8  C   UNL     1      -3.736   3.334  24.767  0.00  0.00    +0.249 C 
ATOM      9  O   UNL     1      -3.635   4.202  24.830  0.00  0.00    -0.270 OA
ATOM     10  N   UNL     1      -4.486   3.209  25.120  0.00  0.00    -0.276 N 
ATOM     11  C   UNL     1      -5.166   3.517  25.495  0.00  0.00    +0.096 C 
ATOM     12  C   UNL     1      -5.672   2.680  25.634  0.00  0.00    +0.043 C 
ATOM     13  C   UNL     1      -6.205   2.093  25.820  0.00  0.00    +0.011 C 
ATOM     14  C   UNL     1      -5.574   2.144  25.517  0.00  0.00    +0.058 C 
ATOM     15  C   UNL     1      -5.097   2.962  25.389  0.00  0.00    +0.099 C 
ATOM     16  C   UNL     1      -4.918   1.632  25.127  0.00  0.00    +0.041 A 
ATOM     17  C   UNL     1      -4.744   0.848  24.940  0.00  0.00    +0.014 A 
ATOM     18  C   UNL     1      -4.032   0.661  24.566  0.00  0.00    +0.023 A 
ATOM     19  C   UNL     1      -3.495   1.259  24.379  0.00  0.00    +0.130 A 
ATOM     31  C   UNL     1      -3.669   2.043  24.566  0.00  0.00    +0.276 A 
ATOM     32  O   UNL     1      -3.187   2.943  24.446  0.00  0.00    -0.266 OA
ATOM     33  N   UNL     1      -4.380   2.230  24.941  0.00  0.00    -0.298 N 
ATOM     34  C   UNL     1      -4.981   2.153  25.226  0.00  0.00    +0.110 C 
ENDROOT
BRANCH   8   5
ATOM      1  F   UNL     1      -2.420  -0.186  23.703  0.00  0.00    -0.204 F 
ATOM      2  C   UNL     1      -2.763   0.708  23.909  0.00  0.00    +0.140 A 
ATOM      3  C   UNL     1      -2.815   1.083  24.727  0.00  0.00    +0.030 A 
ATOM      4  C   UNL     1      -3.122   1.918  25.021  0.00  0.00    +0.007 A 
ATOM      5  C   UNL     1      -3.420   2.485  24.501  0.00  0.00    +0.054 A 
ATOM      6  C   UNL     1      -3.455   2.327  23.693  0.00  0.00    +0.007 A 
ATOM      7  C   UNL     1      -3.192   1.600  23.403  0.00  0.00    +0.030 A 
ENDBRANCH   8   5
BRANCH  19  20
ATOM     20  N   UNL     1      -2.766   1.158  24.007  0.00  0.00    -0.171 NA
ATOM     21  C   UNL     1      -2.292   0.645  24.708  0.00  0.00    +0.269 C 
ATOM     22  O   UNL     1      -2.325   0.246  25.572  0.00  0.00    -0.268 OA
BRANCH  21  23
ATOM     23  C   UNL     1      -1.437   0.547  24.228  0.00  0.00    +0.055 A 
ATOM     24  C   UNL     1      -1.158   0.974  23.580  0.00  0.00    +0.005 A 
ATOM     25  C   UNL     1      -0.416   0.801  23.260  0.00  0.00    +0.010 A 
ATOM     26  C   UNL     1       0.044   0.200  23.590  0.00  0.00    +0.068 A 
ATOM     27  C   UNL     1      -0.235  -0.226  24.238  0.00  0.00    +0.010 A 
ATOM     28  C   UNL     1      -0.976  -0.053  24.557  0.00  0.00    +0.005 A 
BRANCH  26  29
ATOM     29  C   UNL     1       0.811   0.019  23.261  0.00  0.00    +0.100 C 
ATOM     30  N   UNL     1       1.557  -0.158  22.935  0.00  0.00    -0.191 NA
ENDBRANCH  26  29
ENDBRANCH  21  23
ENDBRANCH  19  20
TORSDOF 4
ENDMDL
