MODEL 1
REMARK VINA RESULT:      -8.8      0.000      0.000
REMARK  Name = 
REMARK  5 active torsions:
REMARK  status: ('A' for Active; 'I' for Inactive)
REMARK    1  A    between atoms: N_4  and  C_5
REMARK    2  A    between atoms: C_7  and  C_13
REMARK    3  A    between atoms: N_15  and  C_16
REMARK    4  A    between atoms: C_16  and  C_17
REMARK    5  A    between atoms: C_17  and  C_18
REMARK                            x       y       z     vdW  Elec       q    Type
REMARK                         _______ _______ _______ _____ _____    ______ ____
ROOT
ATOM      5  C   UNL     1      -3.784   3.117  24.852  0.00  0.00    +0.150 C 
ATOM      6  C   UNL     1      -3.561   2.394  24.523  0.00  0.00    -0.002 C 
ATOM      7  C   UNL     1      -4.097   1.768  24.503  0.00  0.00    +0.033 C 
ATOM      8  C   UNL     1      -4.856   1.864  24.811  0.00  0.00    +0.066 C 
ATOM      9  C   UNL     1      -5.079   2.587  25.140  0.00  0.00    +0.189 C 
ATOM     10  O   UNL     1      -5.838   2.683  25.448  0.00  0.00    -0.220 OA
ATOM     11  C   UNL     1      -4.543   3.214  25.161  0.00  0.00    +0.206 C 
ATOM     12  O   UNL     1      -4.766   3.937  25.489  0.00  0.00    -0.218 OA
ENDROOT
BRANCH   5   4
ATOM      1  C   UNL     1      -2.019   4.307  25.337  0.00  0.00    +0.096 C 
ATOM      2  C   UNL     1      -2.555   3.680  25.317  0.00  0.00    +0.242 C 
ATOM      3  O   UNL     1      -2.400   2.990  25.740  0.00  0.00    -0.273 OA
ATOM      4  N   UNL     1      -3.248   3.743  24.872  0.00  0.00    -0.200 NA
ENDBRANCH   5   4
BRANCH   7  13
ATOM     13  C   UNL     1      -3.874   1.045  24.174  0.00  0.00    +0.261 C 
ATOM     14  O   UNL     1      -3.505   1.024  23.435  0.00  0.00    -0.269 OA
ATOM     15  N   UNL     1      -4.020   0.343  24.582  0.00  0.00    -0.201 NA
BRANCH  15  16
ATOM     16  C   UNL     1      -3.797  -0.380  24.253  0.00  0.00    +0.125 C 
BRANCH  16  17
ATOM     17  C   UNL     1      -3.956  -1.083  24.654  0.00  0.00    +0.112 C 
BRANCH  17  18
ATOM     18  C   UNL     1      -3.806  -1.808  24.292  0.00  0.00    +0.263 C 
ATOM     19  N   UNL     1      -3.112  -2.221  24.465  0.00  0.00    -0.088 NA
ATOM     20  O   UNL     1      -4.349  -2.122  23.755  0.00  0.00    -0.272 OA
ENDBRANCH  17  18
ENDBRANCH  16  17
ENDBRANCH  15  16
ENDBRANCH   7  13
TORSDOF 5
ENDMDL
MODEL 2
REMARK VINA RESULT:      -8.8      1.475      4.099
REMARK  Name = 
REMARK  5 active torsions:
REMARK  status: ('A' for Active; 'I' for Inactive)
REMARK    1  A    between atoms: N_4  and  C_5
REMARK    2  A    between atoms: C_7  and  C_13
REMARK    3  A    between atoms: N_15  and  C_16
REMARK    4  A    between atoms: C_16  and  C_17
REMARK    5  A    between atoms: C_17  and  C_18
REMARK                            x       y       z     vdW  Elec       q    Type
REMARK                         _______ _______ _______ _____ _____    ______ ____
ROOT
ATOM      5  C   UNL     1      -4.897   1.628  24.939  0.00  0.00    +0.150 C 
ATOM      6  C   UNL     1      -4.319   2.157  24.681  0.00  0.00    -0.002 C 
ATOM      7  C   UNL     1      -4.304   2.928  24.975  0.00  0.00    +0.033 C 
ATOM      8  C   UNL     1      -4.866   3.169  25.527  0.00  0.00    +0.066 C 
ATOM      9  C   UNL     1      -5.444   2.640  25.786  0.00  0.00    +0.189 C 
ATOM     10  O   UNL     1      -6.007   2.882  26.339  0.00  0.00    -0.220 OA
ATOM     11  C   UNL     1      -5.460   1.870  25.492  0.00  0.00    +0.206 C 
ATOM     12  O   UNL     1      -6.037   1.341  25.750  0.00  0.00    -0.218 OA
ENDROOT
BRANCH   5   4
ATOM      1  C   UNL     1      -4.286  -0.416  24.478  0.00  0.00    +0.096 C 
ATOM      2  C   UNL     1      -4.271   0.354  24.773  0.00  0.00    +0.242 C 
ATOM      3  O   UNL     1      -3.615   0.622  25.195  0.00  0.00    -0.273 OA
ATOM      4  N   UNL     1      -4.912   0.858  24.645  0.00  0.00    -0.200 NA
ENDBRANCH   5   4
BRANCH   7  13
ATOM     13  C   UNL     1      -3.726   3.456  24.716  0.00  0.00    +0.261 C 
ATOM     14  O   UNL     1      -3.803   3.825  23.982  0.00  0.00    -0.269 OA
ATOM     15  N   UNL     1      -3.070   3.616  25.191  0.00  0.00    -0.201 NA
BRANCH  15  16
ATOM     16  C   UNL     1      -2.492   4.145  24.933  0.00  0.00    +0.125 C 
BRANCH  16  17
ATOM     17  C   UNL     1      -1.854   4.330  25.421  0.00  0.00    +0.112 C 
BRANCH  17  18
ATOM     18  C   UNL     1      -1.214   4.755  25.121  0.00  0.00    +0.263 C 
ATOM     19  N   UNL     1      -0.541   4.358  24.857  0.00  0.00    -0.088 NA
ATOM     20  O   UNL     1      -1.248   5.580  25.085  0.00  0.00    -0.272 OA
ENDBRANCH  17  18
ENDBRANCH  16  17
ENDBRANCH  15  16
ENDBRANCH   7  13
TORSDOF 5
ENDMDL
MODEL 3
REMARK VINA RESULT:      -8.7      1.827      4.436
REMARK  Name = 
REMARK  5 active torsions:
REMARK  status: ('A' for Active; 'I' for Inactive)
REMARK    1  A    between atoms: N_4  and  C_5
REMARK    2  A    between atoms: C_7  and  C_13
REMARK    3  A    between atoms: N_15  and  C_16
REMARK    4  A    between atoms: C_16  and  C_17
REMARK    5  A    between atoms: C_17  and  C_18
REMARK                            x       y       z     vdW  Elec       q    Type
REMARK                         _______ _______ _______ _____ _____    ______ ____
ROOT
ATOM      5  C   UNL     1      -2.745  -1.514  24.833  0.00  0.00    +0.150 C 
ATOM      6  C   UNL     1      -3.017  -0.737  24.780  0.00  0.00    -0.002 C 
ATOM      7  C   UNL     1      -3.724  -0.573  24.389  0.00  0.00    +0.033 C 
ATOM      8  C   UNL     1      -4.160  -1.186  24.051  0.00  0.00    +0.066 C 
ATOM      9  C   UNL     1      -3.889  -1.963  24.104  0.00  0.00    +0.189 C 
ATOM     10  O   UNL     1      -4.325  -2.576  23.766  0.00  0.00    -0.220 OA
ATOM     11  C   UNL     1      -3.182  -2.127  24.495  0.00  0.00    +0.206 C 
ATOM     12  O   UNL     1      -2.910  -2.904  24.548  0.00  0.00    -0.218 OA
ENDROOT
BRANCH   5   4
ATOM      1  C   UNL     1      -0.620  -1.527  25.333  0.00  0.00    +0.096 C 
ATOM      2  C   UNL     1      -1.328  -1.363  24.942  0.00  0.00    +0.242 C 
ATOM      3  O   UNL     1      -1.327  -0.885  24.270  0.00  0.00    -0.273 OA
ATOM      4  N   UNL     1      -2.038  -1.678  25.224  0.00  0.00    -0.200 NA
ENDBRANCH   5   4
BRANCH   7  13
ATOM     13  C   UNL     1      -3.995   0.204  24.336  0.00  0.00    +0.261 C 
ATOM     14  O   UNL     1      -3.761   0.681  23.704  0.00  0.00    -0.269 OA
ATOM     15  N   UNL     1      -4.501   0.506  24.914  0.00  0.00    -0.201 NA
BRANCH  15  16
ATOM     16  C   UNL     1      -4.772   1.283  24.862  0.00  0.00    +0.125 C 
BRANCH  16  17
ATOM     17  C   UNL     1      -5.233   1.602  25.467  0.00  0.00    +0.112 C 
BRANCH  17  18
ATOM     18  C   UNL     1      -5.685   2.277  25.330  0.00  0.00    +0.263 C 
ATOM     19  N   UNL     1      -5.411   3.015  25.577  0.00  0.00    -0.088 NA
ATOM     20  O   UNL     1      -6.413   2.215  24.944  0.00  0.00    -0.272 OA
ENDBRANCH  17  18
ENDBRANCH  16  17
ENDBRANCH  15  16
ENDBRANCH   7  13
TORSDOF 5
ENDMDL
MODEL 4
REMARK VINA RESULT:      -8.5      1.407      2.105
REMARK  Name = 
REMARK  5 active torsions:
REMARK  status: ('A' for Active; 'I' for Inactive)
REMARK    1  A    between atoms: N_4  and  C_5
REMARK    2  A    between atoms: C_7  and  C_13
REMARK    3  A    between atoms: N_15  and  C_16
REMARK    4  A    between atoms: C_16  and  C_17
REMARK    5  A    between atoms: C_17  and  C_18
REMARK                            x       y       z     vdW  Elec       q    Type
REMARK                         _______ _______ _______ _____ _____    ______ ____
ROOT
ATOM      5  C   UNL     1      -3.888   2.359  24.491  0.00  0.00    +0.150 C 
ATOM      6  C   UNL     1      -3.704   1.605  24.771  0.00  0.00    -0.002 C 
ATOM      7  C   UNL     1      -3.258   1.089  24.306  0.00  0.00    +0.033 C 
ATOM      8  C   UNL     1      -2.996   1.327  23.562  0.00  0.00    +0.066 C 
ATOM      9  C   UNL     1      -3.180   2.081  23.281  0.00  0.00    +0.189 C 
ATOM     10  O   UNL     1      -2.917   2.320  22.536  0.00  0.00    -0.220 OA
ATOM     11  C   UNL     1      -3.625   2.597  23.745  0.00  0.00    +0.206 C 
ATOM     12  O   UNL     1      -3.809   3.351  23.466  0.00  0.00    -0.218 OA
ENDROOT
BRANCH   5   4
ATOM      1  C   UNL     1      -5.563   3.206  25.604  0.00  0.00    +0.096 C 
ATOM      2  C   UNL     1      -5.117   2.691  25.139  0.00  0.00    +0.242 C 
ATOM      3  O   UNL     1      -5.454   1.992  24.858  0.00  0.00    -0.273 OA
ATOM      4  N   UNL     1      -4.334   2.874  24.955  0.00  0.00    -0.200 NA
ENDBRANCH   5   4
BRANCH   7  13
ATOM     13  C   UNL     1      -3.075   0.336  24.586  0.00  0.00    +0.261 C 
ATOM     14  O   UNL     1      -2.434   0.230  25.096  0.00  0.00    -0.269 OA
ATOM     15  N   UNL     1      -3.531  -0.313  24.358  0.00  0.00    -0.201 NA
BRANCH  15  16
ATOM     16  C   UNL     1      -3.348  -1.067  24.638  0.00  0.00    +0.125 C 
BRANCH  16  17
ATOM     17  C   UNL     1      -3.865  -1.695  24.502  0.00  0.00    +0.112 C 
BRANCH  17  18
ATOM     18  C   UNL     1      -3.623  -2.468  24.653  0.00  0.00    +0.263 C 
ATOM     19  N   UNL     1      -3.492  -2.990  24.028  0.00  0.00    -0.088 NA
ATOM     20  O   UNL     1      -3.513  -2.721  25.432  0.00  0.00    -0.272 OA
ENDBRANCH  17  18
ENDBRANCH  16  17
ENDBRANCH  15  16
ENDBRANCH   7  13
TORSDOF 5
ENDMDL
MODEL 5
REMARK VINA RESULT:      -8.0      2.010      2.828
REMARK  Name = 
REMARK  5 active torsions:
REMARK  status: ('A' for Active; 'I' for Inactive)
REMARK    1  A    between atoms: N_4  and  C_5
REMARK    2  A    between atoms: C_7  and  C_13
REMARK    3  A    between atoms: N_15  and  C_16
REMARK    4  A    between atoms: C_16  and  C_17
REMARK    5  A    between atoms: C_17  and  C_18
REMARK                            x       y       z     vdW  Elec       q    Type
REMARK                         _______ _______ _______ _____ _____    ______ ____
ROOT
ATOM      5  C   UNL     1      -4.244   2.763  24.834  0.00  0.00    +0.150 C 
ATOM      6  C   UNL     1      -3.701   2.305  24.416  0.00  0.00    -0.002 C 
ATOM      7  C   UNL     1      -2.893   2.460  24.481  0.00  0.00    +0.033 C 
ATOM      8  C   UNL     1      -2.629   3.073  24.965  0.00  0.00    +0.066 C 
ATOM      9  C   UNL     1      -3.172   3.532  25.385  0.00  0.00    +0.189 C 
ATOM     10  O   UNL     1      -2.908   4.144  25.869  0.00  0.00    -0.220 OA
ATOM     11  C   UNL     1      -3.979   3.377  25.319  0.00  0.00    +0.206 C 
ATOM     12  O   UNL     1      -4.523   3.835  25.737  0.00  0.00    -0.218 OA
ENDROOT
BRANCH   5   4
ATOM      1  C   UNL     1      -6.165   1.736  24.973  0.00  0.00    +0.096 C 
ATOM      2  C   UNL     1      -5.357   1.891  25.039  0.00  0.00    +0.242 C 
ATOM      3  O   UNL     1      -4.855   1.329  25.374  0.00  0.00    -0.273 OA
ATOM      4  N   UNL     1      -5.051   2.608  24.769  0.00  0.00    -0.200 NA
ENDBRANCH   5   4
BRANCH   7  13
ATOM     13  C   UNL     1      -2.350   2.002  24.063  0.00  0.00    +0.261 C 
ATOM     14  O   UNL     1      -2.325   2.042  23.238  0.00  0.00    -0.269 OA
ATOM     15  N   UNL     1      -1.832   1.503  24.467  0.00  0.00    -0.201 NA
BRANCH  15  16
ATOM     16  C   UNL     1      -1.288   1.044  24.049  0.00  0.00    +0.125 C 
BRANCH  16  17
ATOM     17  C   UNL     1      -0.709   0.619  24.453  0.00  0.00    +0.112 C 
BRANCH  17  18
ATOM     18  C   UNL     1      -0.270   0.043  24.059  0.00  0.00    +0.263 C 
ATOM     19  N   UNL     1      -0.418  -0.757  24.197  0.00  0.00    -0.088 NA
ATOM     20  O   UNL     1       0.319   0.267  23.525  0.00  0.00    -0.272 OA
ENDBRANCH  17  18
ENDBRANCH  16  17
ENDBRANCH  15  16
ENDBRANCH   7  13
TORSDOF 5
ENDMDL
