MODEL 1
REMARK VINA RESULT:     -10.6      0.000      0.000
REMARK  Name = 
REMARK  8 active torsions:
REMARK  status: ('A' for Active; 'I' for Inactive)
REMARK    1  A    between atoms: C_3  and  C_4
REMARK    2  A    between atoms: C_4  and  N_5
REMARK    3  A    between atoms: C_9  and  C_22
REMARK    4  A    between atoms: C_11  and  C_12
REMARK    5  A    between atoms: C_12  and  C_13
REMARK    6  A    between atoms: N_24  and  C_25
REMARK    7  A    between atoms: C_25  and  C_26
REMARK    8  A    between atoms: C_26  and  N_27
REMARK                            x       y       z     vdW  Elec       q    Type
REMARK                         _______ _______ _______ _____ _____    ______ ____
ROOT
ATOM      5  N   UNL     1      -3.065   2.745  25.117  0.00  0.00    -0.315 N 
ATOM      6  C   UNL     1      -2.300   2.457  24.998  0.00  0.00    +0.072 A 
ATOM      7  C   UNL     1      -2.356   1.652  24.823  0.00  0.00    -0.002 A 
ATOM      8  C   UNL     1      -1.702   1.174  24.670  0.00  0.00    +0.055 C 
ATOM      9  C   UNL     1      -1.683   0.370  24.490  0.00  0.00    +0.155 C 
ATOM     10  N   UNL     1      -2.315  -0.156  24.419  0.00  0.00    -0.207 NA
ATOM     11  C   UNL     1      -3.121  -0.007  24.509  0.00  0.00    +0.095 C 
ATOM     16  C   UNL     1      -3.495   0.705  24.694  0.00  0.00    -0.005 A 
ATOM     17  C   UNL     1      -4.361   0.683  24.751  0.00  0.00    -0.003 A 
ATOM     18  C   UNL     1      -4.799   1.359  24.933  0.00  0.00    +0.001 A 
ATOM     19  C   UNL     1      -4.415   2.077  25.065  0.00  0.00    +0.017 A 
ATOM     20  C   UNL     1      -3.592   2.119  25.015  0.00  0.00    +0.060 A 
ATOM     21  C   UNL     1      -3.154   1.443  24.834  0.00  0.00    +0.011 A 
ENDROOT
BRANCH   9  22
ATOM     22  C   UNL     1      -0.934   0.048  24.365  0.00  0.00    +0.258 C 
ATOM     23  O   UNL     1      -0.595  -0.444  24.934  0.00  0.00    -0.272 OA
ATOM     24  N   UNL     1      -0.523   0.218  23.669  0.00  0.00    -0.203 NA
BRANCH  24  25
ATOM     25  C   UNL     1       0.226  -0.105  23.544  0.00  0.00    +0.132 C 
BRANCH  25  26
ATOM     26  C   UNL     1       0.780   0.305  23.089  0.00  0.00    +0.096 C 
BRANCH  26  27
ATOM     27  N   UNL     1       1.382  -0.108  22.704  0.00  0.00    -0.269 NA
ATOM     28  C   UNL     1       2.152  -0.083  23.000  0.00  0.00    +0.090 C 
ATOM     29  C   UNL     1       1.215  -0.544  22.024  0.00  0.00    +0.090 C 
ENDBRANCH  26  27
ENDBRANCH  25  26
ENDBRANCH  24  25
ENDBRANCH   9  22
BRANCH   5   4
ATOM      4  C   UNL     1      -3.266   3.523  25.304  0.00  0.00    +0.183 C 
BRANCH   4   3
ATOM      1  C   UNL     1      -1.555   5.306  25.185  0.00  0.00    +0.090 C 
ATOM      2  C   UNL     1      -2.125   4.712  25.225  0.00  0.00    -0.088 C 
ATOM      3  C   UNL     1      -2.696   4.117  25.264  0.00  0.00    -0.066 C 
ENDBRANCH   4   3
ENDBRANCH   5   4
BRANCH  11  12
ATOM     12  C   UNL     1      -3.619  -0.655  24.401  0.00  0.00    +0.022 C 
BRANCH  12  13
ATOM     13  C   UNL     1      -3.414  -1.390  24.713  0.00  0.00    +0.002 C 
ATOM     14  C   UNL     1      -3.185  -2.002  24.210  0.00  0.00    +0.000 C 
ATOM     15  C   UNL     1      -3.437  -1.514  25.528  0.00  0.00    +0.000 C 
ENDBRANCH  12  13
ENDBRANCH  11  12
TORSDOF 8
ENDMDL
MODEL 2
REMARK VINA RESULT:     -10.2      2.283      3.436
REMARK  Name = 
REMARK  8 active torsions:
REMARK  status: ('A' for Active; 'I' for Inactive)
REMARK    1  A    between atoms: C_3  and  C_4
REMARK    2  A    between atoms: C_4  and  N_5
REMARK    3  A    between atoms: C_9  and  C_22
REMARK    4  A    between atoms: C_11  and  C_12
REMARK    5  A    between atoms: C_12  and  C_13
REMARK    6  A    between atoms: N_24  and  C_25
REMARK    7  A    between atoms: C_25  and  C_26
REMARK    8  A    between atoms: C_26  and  N_27
REMARK                            x       y       z     vdW  Elec       q    Type
REMARK                         _______ _______ _______ _____ _____    ______ ____
ROOT
ATOM      5  N   UNL     1      -1.825   3.069  25.215  0.00  0.00    -0.315 N 
ATOM      6  C   UNL     1      -1.866   2.296  24.928  0.00  0.00    +0.072 A 
ATOM      7  C   UNL     1      -2.662   2.099  24.841  0.00  0.00    -0.002 A 
ATOM      8  C   UNL     1      -2.922   1.367  24.565  0.00  0.00    +0.055 C 
ATOM      9  C   UNL     1      -3.695   1.103  24.454  0.00  0.00    +0.155 C 
ATOM     10  N   UNL     1      -4.401   1.507  24.592  0.00  0.00    -0.207 NA
ATOM     11  C   UNL     1      -4.507   2.274  24.876  0.00  0.00    +0.095 C 
ATOM     16  C   UNL     1      -3.934   2.827  25.091  0.00  0.00    -0.005 A 
ATOM     17  C   UNL     1      -4.225   3.596  25.372  0.00  0.00    -0.003 A 
ATOM     18  C   UNL     1      -3.708   4.195  25.603  0.00  0.00    +0.001 A 
ATOM     19  C   UNL     1      -2.892   4.072  25.571  0.00  0.00    +0.017 A 
ATOM     20  C   UNL     1      -2.595   3.348  25.307  0.00  0.00    +0.060 A 
ATOM     21  C   UNL     1      -3.113   2.749  25.075  0.00  0.00    +0.011 A 
ENDROOT
BRANCH   9  22
ATOM     22  C   UNL     1      -3.774   0.333  24.166  0.00  0.00    +0.258 C 
ATOM     23  O   UNL     1      -3.959   0.206  23.373  0.00  0.00    -0.272 OA
ATOM     24  N   UNL     1      -3.667  -0.309  24.674  0.00  0.00    -0.203 NA
BRANCH  24  25
ATOM     25  C   UNL     1      -3.746  -1.078  24.387  0.00  0.00    +0.132 C 
BRANCH  25  26
ATOM     26  C   UNL     1      -3.599  -1.721  24.884  0.00  0.00    +0.096 C 
BRANCH  26  27
ATOM     27  N   UNL     1      -3.371  -2.446  24.563  0.00  0.00    -0.269 NA
ATOM     28  C   UNL     1      -2.583  -2.688  24.611  0.00  0.00    +0.090 C 
ATOM     29  C   UNL     1      -3.929  -2.929  24.195  0.00  0.00    +0.090 C 
ENDBRANCH  26  27
ENDBRANCH  25  26
ENDBRANCH  24  25
ENDBRANCH   9  22
BRANCH   5   4
ATOM      4  C   UNL     1      -1.134   3.488  25.383  0.00  0.00    +0.183 C 
BRANCH   4   3
ATOM      1  C   UNL     1       0.623   2.464  26.792  0.00  0.00    +0.090 C 
ATOM      2  C   UNL     1       0.037   2.806  26.322  0.00  0.00    -0.088 C 
ATOM      3  C   UNL     1      -0.549   3.147  25.852  0.00  0.00    -0.066 C 
ENDBRANCH   4   3
ENDBRANCH   5   4
BRANCH  11  12
ATOM     12  C   UNL     1      -5.291   2.521  24.955  0.00  0.00    +0.022 C 
BRANCH  12  13
ATOM     13  C   UNL     1      -5.862   1.997  25.236  0.00  0.00    +0.002 C 
ATOM     14  C   UNL     1      -6.414   1.670  24.717  0.00  0.00    +0.000 C 
ATOM     15  C   UNL     1      -5.882   1.799  26.036  0.00  0.00    +0.000 C 
ENDBRANCH  12  13
ENDBRANCH  11  12
TORSDOF 8
ENDMDL
MODEL 3
REMARK VINA RESULT:      -9.8      0.992      3.449
REMARK  Name = 
REMARK  8 active torsions:
REMARK  status: ('A' for Active; 'I' for Inactive)
REMARK    1  A    between atoms: C_3  and  C_4
REMARK    2  A    between atoms: C_4  and  N_5
REMARK    3  A    between atoms: C_9  and  C_22
REMARK    4  A    between atoms: C_11  and  C_12
REMARK    5  A    between atoms: C_12  and  C_13
REMARK    6  A    between atoms: N_24  and  C_25
REMARK    7  A    between atoms: C_25  and  C_26
REMARK    8  A    between atoms: C_26  and  N_27
REMARK                            x       y       z     vdW  Elec       q    Type
REMARK                         _______ _______ _______ _____ _____    ______ ____
ROOT
ATOM      5  N   UNL     1      -3.897   0.302  24.567  0.00  0.00    -0.315 N 
ATOM      6  C   UNL     1      -3.091   0.122  24.561  0.00  0.00    +0.072 A 
ATOM      7  C   UNL     1      -2.671   0.831  24.612  0.00  0.00    -0.002 A 
ATOM      8  C   UNL     1      -1.848   0.872  24.620  0.00  0.00    +0.055 C 
ATOM      9  C   UNL     1      -1.367   1.540  24.669  0.00  0.00    +0.155 C 
ATOM     10  N   UNL     1      -1.590   2.332  24.721  0.00  0.00    -0.207 NA
ATOM     11  C   UNL     1      -2.350   2.652  24.737  0.00  0.00    +0.095 C 
ATOM     16  C   UNL     1      -3.075   2.259  24.705  0.00  0.00    -0.005 A 
ATOM     17  C   UNL     1      -3.786   2.757  24.733  0.00  0.00    -0.003 A 
ATOM     18  C   UNL     1      -4.543   2.429  24.705  0.00  0.00    +0.001 A 
ATOM     19  C   UNL     1      -4.638   1.612  24.650  0.00  0.00    +0.017 A 
ATOM     20  C   UNL     1      -3.975   1.121  24.622  0.00  0.00    +0.060 A 
ATOM     21  C   UNL     1      -3.218   1.448  24.649  0.00  0.00    +0.011 A 
ENDROOT
BRANCH   9  22
ATOM     22  C   UNL     1      -0.554   1.397  24.665  0.00  0.00    +0.258 C 
ATOM     23  O   UNL     1      -0.127   1.426  25.370  0.00  0.00    -0.272 OA
ATOM     24  N   UNL     1      -0.169   1.226  23.955  0.00  0.00    -0.203 NA
BRANCH  24  25
ATOM     25  C   UNL     1       0.643   1.083  23.952  0.00  0.00    +0.132 C 
BRANCH  25  26
ATOM     26  C   UNL     1       1.063   1.111  23.241  0.00  0.00    +0.096 C 
BRANCH  26  27
ATOM     27  N   UNL     1       1.642   0.544  23.083  0.00  0.00    -0.269 NA
ATOM     28  C   UNL     1       2.437   0.717  23.221  0.00  0.00    +0.090 C 
ATOM     29  C   UNL     1       1.425  -0.195  22.787  0.00  0.00    +0.090 C 
ENDBRANCH  26  27
ENDBRANCH  25  26
ENDBRANCH  24  25
ENDBRANCH   9  22
BRANCH   5   4
ATOM      4  C   UNL     1      -4.515  -0.242  24.526  0.00  0.00    +0.183 C 
BRANCH   4   3
ATOM      1  C   UNL     1      -4.052  -2.597  23.925  0.00  0.00    +0.090 C 
ATOM      2  C   UNL     1      -4.207  -1.812  24.125  0.00  0.00    -0.088 C 
ATOM      3  C   UNL     1      -4.361  -1.027  24.326  0.00  0.00    -0.066 C 
ENDBRANCH   4   3
ENDBRANCH   5   4
BRANCH  11  12
ATOM     12  C   UNL     1      -2.391   3.474  24.792  0.00  0.00    +0.022 C 
BRANCH  12  13
ATOM     13  C   UNL     1      -1.865   3.882  25.278  0.00  0.00    +0.002 C 
ATOM     14  C   UNL     1      -1.956   3.856  26.098  0.00  0.00    +0.000 C 
ATOM     15  C   UNL     1      -1.247   4.316  24.946  0.00  0.00    +0.000 C 
ENDBRANCH  12  13
ENDBRANCH  11  12
TORSDOF 8
ENDMDL
MODEL 4
REMARK VINA RESULT:      -9.7      1.799      5.257
REMARK  Name = 
REMARK  8 active torsions:
REMARK  status: ('A' for Active; 'I' for Inactive)
REMARK    1  A    between atoms: C_3  and  C_4
REMARK    2  A    between atoms: C_4  and  N_5
REMARK    3  A    between atoms: C_9  and  C_22
REMARK    4  A    between atoms: C_11  and  C_12
REMARK    5  A    between atoms: C_12  and  C_13
REMARK    6  A    between atoms: N_24  and  C_25
REMARK    7  A    between atoms: C_25  and  C_26
REMARK    8  A    between atoms: C_26  and  N_27
REMARK                            x       y       z     vdW  Elec       q    Type
REMARK                         _______ _______ _______ _____ _____    ______ ____
ROOT
ATOM      5  N   UNL     1      -2.226  -1.187  24.657  0.00  0.00    -0.315 N 
ATOM      6  C   UNL     1      -2.831  -0.627  24.605  0.00  0.00    +0.072 A 
ATOM      7  C   UNL     1      -2.483   0.118  24.541  0.00  0.00    -0.002 A 
ATOM      8  C   UNL     1      -2.915   0.817  24.477  0.00  0.00    +0.055 C 
ATOM      9  C   UNL     1      -2.636   1.590  24.411  0.00  0.00    +0.155 C 
ATOM     10  N   UNL     1      -1.855   1.855  24.392  0.00  0.00    -0.207 NA
ATOM     11  C   UNL     1      -1.161   1.413  24.434  0.00  0.00    +0.095 C 
ATOM     16  C   UNL     1      -1.075   0.595  24.507  0.00  0.00    -0.005 A 
ATOM     17  C   UNL     1      -0.261   0.293  24.538  0.00  0.00    -0.003 A 
ATOM     18  C   UNL     1      -0.103  -0.513  24.610  0.00  0.00    +0.001 A 
ATOM     19  C   UNL     1      -0.725  -1.054  24.654  0.00  0.00    +0.017 A 
ATOM     20  C   UNL     1      -1.505  -0.787  24.626  0.00  0.00    +0.060 A 
ATOM     21  C   UNL     1      -1.664   0.019  24.554  0.00  0.00    +0.011 A 
ENDROOT
BRANCH   9  22
ATOM     22  C   UNL     1      -3.214   2.177  24.356  0.00  0.00    +0.258 C 
ATOM     23  O   UNL     1      -3.360   2.546  23.633  0.00  0.00    -0.272 OA
ATOM     24  N   UNL     1      -3.646   2.393  25.026  0.00  0.00    -0.203 NA
BRANCH  24  25
ATOM     25  C   UNL     1      -4.224   2.979  24.971  0.00  0.00    +0.132 C 
BRANCH  25  26
ATOM     26  C   UNL     1      -4.582   3.270  25.656  0.00  0.00    +0.096 C 
BRANCH  26  27
ATOM     27  N   UNL     1      -5.385   3.461  25.651  0.00  0.00    -0.269 NA
ATOM     28  C   UNL     1      -5.623   4.234  25.486  0.00  0.00    +0.090 C 
ATOM     29  C   UNL     1      -5.948   2.880  25.810  0.00  0.00    +0.090 C 
ENDBRANCH  26  27
ENDBRANCH  25  26
ENDBRANCH  24  25
ENDBRANCH   9  22
BRANCH   5   4
ATOM      4  C   UNL     1      -2.325  -2.003  24.729  0.00  0.00    +0.183 C 
BRANCH   4   3
ATOM      1  C   UNL     1      -4.372  -3.081  23.850  0.00  0.00    +0.090 C 
ATOM      2  C   UNL     1      -3.690  -2.721  24.143  0.00  0.00    -0.088 C 
ATOM      3  C   UNL     1      -3.007  -2.362  24.436  0.00  0.00    -0.066 C 
ENDBRANCH   4   3
ENDBRANCH   5   4
BRANCH  11  12
ATOM     12  C   UNL     1      -0.458   1.844  24.400  0.00  0.00    +0.022 C 
BRANCH  12  13
ATOM     13  C   UNL     1      -0.408   2.581  24.768  0.00  0.00    +0.002 C 
ATOM     14  C   UNL     1      -0.334   2.629  25.588  0.00  0.00    +0.000 C 
ATOM     15  C   UNL     1      -0.432   3.270  24.315  0.00  0.00    +0.000 C 
ENDBRANCH  12  13
ENDBRANCH  11  12
TORSDOF 8
ENDMDL
MODEL 5
REMARK VINA RESULT:      -9.7      1.704      3.514
REMARK  Name = 
REMARK  8 active torsions:
REMARK  status: ('A' for Active; 'I' for Inactive)
REMARK    1  A    between atoms: C_3  and  C_4
REMARK    2  A    between atoms: C_4  and  N_5
REMARK    3  A    between atoms: C_9  and  C_22
REMARK    4  A    between atoms: C_11  and  C_12
REMARK    5  A    between atoms: C_12  and  C_13
REMARK    6  A    between atoms: N_24  and  C_25
REMARK    7  A    between atoms: C_25  and  C_26
REMARK    8  A    between atoms: C_26  and  N_27
REMARK                            x       y       z     vdW  Elec       q    Type
REMARK                         _______ _______ _______ _____ _____    ______ ____
ROOT
ATOM      5  N   UNL     1      -4.149   3.074  25.276  0.00  0.00    -0.315 N 
ATOM      6  C   UNL     1      -3.986   2.318  24.988  0.00  0.00    +0.072 A 
ATOM      7  C   UNL     1      -3.166   2.234  24.944  0.00  0.00    -0.002 A 
ATOM      8  C   UNL     1      -2.793   1.548  24.679  0.00  0.00    +0.055 C 
ATOM      9  C   UNL     1      -1.987   1.395  24.610  0.00  0.00    +0.155 C 
ATOM     10  N   UNL     1      -1.352   1.891  24.788  0.00  0.00    -0.207 NA
ATOM     11  C   UNL     1      -1.368   2.662  25.079  0.00  0.00    +0.095 C 
ATOM     16  C   UNL     1      -2.023   3.129  25.265  0.00  0.00    -0.005 A 
ATOM     17  C   UNL     1      -1.857   3.927  25.564  0.00  0.00    -0.003 A 
ATOM     18  C   UNL     1      -2.465   4.446  25.769  0.00  0.00    +0.001 A 
ATOM     19  C   UNL     1      -3.252   4.211  25.692  0.00  0.00    +0.017 A 
ATOM     20  C   UNL     1      -3.431   3.456  25.410  0.00  0.00    +0.060 A 
ATOM     21  C   UNL     1      -2.823   2.937  25.205  0.00  0.00    +0.011 A 
ENDROOT
BRANCH   9  22
ATOM     22  C   UNL     1      -1.786   0.647  24.324  0.00  0.00    +0.258 C 
ATOM     23  O   UNL     1      -1.455   0.567  23.573  0.00  0.00    -0.272 OA
ATOM     24  N   UNL     1      -1.918  -0.021  24.791  0.00  0.00    -0.203 NA
BRANCH  24  25
ATOM     25  C   UNL     1      -1.717  -0.769  24.506  0.00  0.00    +0.132 C 
BRANCH  25  26
ATOM     26  C   UNL     1      -1.809  -1.432  24.988  0.00  0.00    +0.096 C 
BRANCH  26  27
ATOM     27  N   UNL     1      -1.963  -2.169  24.650  0.00  0.00    -0.269 NA
ATOM     28  C   UNL     1      -2.737  -2.456  24.622  0.00  0.00    +0.090 C 
ATOM     29  C   UNL     1      -1.345  -2.619  24.341  0.00  0.00    +0.090 C 
ENDBRANCH  26  27
ENDBRANCH  25  26
ENDBRANCH  24  25
ENDBRANCH   9  22
BRANCH   5   4
ATOM      4  C   UNL     1      -4.900   3.391  25.407  0.00  0.00    +0.183 C 
BRANCH   4   3
ATOM      1  C   UNL     1      -6.688   1.980  26.372  0.00  0.00    +0.090 C 
ATOM      2  C   UNL     1      -6.092   2.451  26.050  0.00  0.00    -0.088 C 
ATOM      3  C   UNL     1      -5.495   2.921  25.728  0.00  0.00    -0.066 C 
ENDBRANCH   4   3
ENDBRANCH   5   4
BRANCH  11  12
ATOM     12  C   UNL     1      -0.632   3.014  25.201  0.00  0.00    +0.022 C 
BRANCH  12  13
ATOM     13  C   UNL     1       0.006   2.559  25.457  0.00  0.00    +0.002 C 
ATOM     14  C   UNL     1       0.093   2.383  26.258  0.00  0.00    +0.000 C 
ATOM     15  C   UNL     1       0.558   2.278  24.911  0.00  0.00    +0.000 C 
ENDBRANCH  12  13
ENDBRANCH  11  12
TORSDOF 8
ENDMDL
MODEL 6
REMARK VINA RESULT:      -9.6      1.406      4.192
REMARK  Name = 
REMARK  8 active torsions:
REMARK  status: ('A' for Active; 'I' for Inactive)
REMARK    1  A    between atoms: C_3  and  C_4
REMARK    2  A    between atoms: C_4  and  N_5
REMARK    3  A    between atoms: C_9  and  C_22
REMARK    4  A    between atoms: C_11  and  C_12
REMARK    5  A    between atoms: C_12  and  C_13
REMARK    6  A    between atoms: N_24  and  C_25
REMARK    7  A    between atoms: C_25  and  C_26
REMARK    8  A    between atoms: C_26  and  N_27
REMARK                            x       y       z     vdW  Elec       q    Type
REMARK                         _______ _______ _______ _____ _____    ______ ____
ROOT
ATOM      5  N   UNL     1      -1.902  -0.420  24.627  0.00  0.00    -0.315 N 
ATOM      6  C   UNL     1      -1.764   0.388  24.527  0.00  0.00    +0.072 A 
ATOM      7  C   UNL     1      -2.484   0.782  24.611  0.00  0.00    -0.002 A 
ATOM      8  C   UNL     1      -2.564   1.600  24.548  0.00  0.00    +0.055 C 
ATOM      9  C   UNL     1      -3.246   2.057  24.619  0.00  0.00    +0.155 C 
ATOM     10  N   UNL     1      -4.018   1.808  24.773  0.00  0.00    -0.207 NA
ATOM     11  C   UNL     1      -4.297   1.041  24.893  0.00  0.00    +0.095 C 
ATOM     16  C   UNL     1      -3.874   0.333  24.888  0.00  0.00    -0.005 A 
ATOM     17  C   UNL     1      -4.331  -0.391  25.034  0.00  0.00    -0.003 A 
ATOM     18  C   UNL     1      -3.971  -1.134  25.043  0.00  0.00    +0.001 A 
ATOM     19  C   UNL     1      -3.159  -1.201  24.912  0.00  0.00    +0.017 A 
ATOM     20  C   UNL     1      -2.707  -0.525  24.772  0.00  0.00    +0.060 A 
ATOM     21  C   UNL     1      -3.067   0.218  24.763  0.00  0.00    +0.011 A 
ENDROOT
BRANCH   9  22
ATOM     22  C   UNL     1      -3.145   2.870  24.526  0.00  0.00    +0.258 C 
ATOM     23  O   UNL     1      -3.518   3.264  23.904  0.00  0.00    -0.272 OA
ATOM     24  N   UNL     1      -2.670   3.290  25.054  0.00  0.00    -0.203 NA
BRANCH  24  25
ATOM     25  C   UNL     1      -2.569   4.103  24.961  0.00  0.00    +0.132 C 
BRANCH  25  26
ATOM     26  C   UNL     1      -2.076   4.519  25.476  0.00  0.00    +0.096 C 
BRANCH  26  27
ATOM     27  N   UNL     1      -1.578   5.108  25.183  0.00  0.00    -0.269 NA
ATOM     28  C   UNL     1      -0.799   4.925  24.979  0.00  0.00    +0.090 C 
ATOM     29  C   UNL     1      -1.857   5.879  25.095  0.00  0.00    +0.090 C 
ENDBRANCH  26  27
ENDBRANCH  25  26
ENDBRANCH  24  25
ENDBRANCH   9  22
BRANCH   5   4
ATOM      4  C   UNL     1      -1.335  -1.018  24.587  0.00  0.00    +0.183 C 
BRANCH   4   3
ATOM      1  C   UNL     1       0.838  -0.590  23.484  0.00  0.00    +0.090 C 
ATOM      2  C   UNL     1       0.114  -0.732  23.852  0.00  0.00    -0.088 C 
ATOM      3  C   UNL     1      -0.611  -0.875  24.220  0.00  0.00    -0.066 C 
ENDBRANCH   4   3
ENDBRANCH   5   4
BRANCH  11  12
ATOM     12  C   UNL     1      -5.107   0.973  25.036  0.00  0.00    +0.022 C 
BRANCH  12  13
ATOM     13  C   UNL     1      -5.541   1.633  25.274  0.00  0.00    +0.002 C 
ATOM     14  C   UNL     1      -5.982   2.058  24.722  0.00  0.00    +0.000 C 
ATOM     15  C   UNL     1      -5.534   1.868  26.065  0.00  0.00    +0.000 C 
ENDBRANCH  12  13
ENDBRANCH  11  12
TORSDOF 8
ENDMDL
