MODEL 1
REMARK VINA RESULT:     -13.9      0.000      0.000
REMARK  Name = 
REMARK  5 active torsions:
REMARK  status: ('A' for Active; 'I' for Inactive)
REMARK    1  A    between atoms: C_2  and  C_3
REMARK    2  A    between atoms: C_2  and  C_25
REMARK    3  A    between atoms: C_10  and  N_11
REMARK    4  A    between atoms: C_12  and  C_14
REMARK    5  A    between atoms: N_27  and  C_28
REMARK                            x       y       z     vdW  Elec       q    Type
REMARK                         _______ _______ _______ _____ _____    ______ ____
ROOT
ATOM      3  C   UNL     1      -4.036   3.203  24.552  0.00  0.00    +0.039 C 
ATOM      4  C   UNL     1      -4.656   3.293  25.090  0.00  0.00    +0.003 C 
ATOM      5  C   UNL     1      -5.055   2.630  25.373  0.00  0.00    +0.000 C 
ATOM      6  C   UNL     1      -4.835   1.877  25.120  0.00  0.00    +0.002 C 
ATOM      7  C   UNL     1      -5.454   1.966  25.657  0.00  0.00    +0.000 C 
ATOM      8  C   UNL     1      -5.234   1.212  25.404  0.00  0.00    +0.002 C 
ATOM      9  C   UNL     1      -5.015   0.459  25.150  0.00  0.00    +0.022 C 
ATOM     10  C   UNL     1      -4.394   0.369  24.612  0.00  0.00    +0.095 C 
ATOM     20  C   UNL     1      -3.996   1.033  24.329  0.00  0.00    +0.022 C 
ATOM     21  C   UNL     1      -3.376   0.943  23.791  0.00  0.00    +0.002 C 
ATOM     22  C   UNL     1      -4.215   1.787  24.582  0.00  0.00    +0.032 C 
ATOM     23  C   UNL     1      -3.816   2.450  24.298  0.00  0.00    +0.152 C 
ATOM     24  O   UNL     1      -3.197   2.360  23.761  0.00  0.00    -0.223 OA
ENDROOT
BRANCH  10  11
ATOM     11  N   UNL     1      -4.175  -0.385  24.359  0.00  0.00    -0.207 NA
ATOM     12  C   UNL     1      -4.001  -0.971  24.912  0.00  0.00    +0.241 C 
ATOM     13  O   UNL     1      -4.047  -0.805  25.719  0.00  0.00    -0.273 OA
BRANCH  12  14
ATOM     14  C   UNL     1      -3.781  -1.725  24.658  0.00  0.00    +0.078 C 
ATOM     15  C   UNL     1      -4.223  -2.112  24.080  0.00  0.00    +0.009 C 
ATOM     16  C   UNL     1      -4.004  -2.866  23.827  0.00  0.00    +0.000 C 
ATOM     17  C   UNL     1      -3.341  -3.233  24.153  0.00  0.00    +0.000 C 
ATOM     18  C   UNL     1      -2.897  -2.846  24.732  0.00  0.00    +0.000 C 
ATOM     19  C   UNL     1      -3.118  -2.093  24.985  0.00  0.00    +0.009 C 
ENDBRANCH  12  14
ENDBRANCH  10  11
BRANCH   3   2
ATOM      1  C   UNL     1      -3.850   4.197  23.542  0.00  0.00    +0.010 C 
ATOM      2  C   UNL     1      -3.637   3.867  24.268  0.00  0.00    +0.081 C 
BRANCH   2  25
ATOM     25  C   UNL     1      -3.026   4.203  24.709  0.00  0.00    +0.241 C 
ATOM     26  O   UNL     1      -3.169   4.468  25.478  0.00  0.00    -0.273 OA
ATOM     27  N   UNL     1      -2.272   4.272  24.383  0.00  0.00    -0.207 NA
BRANCH  27  28
ATOM     28  C   UNL     1      -1.661   4.607  24.824  0.00  0.00    +0.095 C 
ATOM     29  C   UNL     1      -1.357   5.238  25.260  0.00  0.00    +0.023 C 
ATOM     30  C   UNL     1      -0.906   4.556  25.154  0.00  0.00    +0.023 C 
ENDBRANCH  27  28
ENDBRANCH   2  25
ENDBRANCH   3   2
TORSDOF 5
ENDMDL
MODEL 2
REMARK VINA RESULT:     -12.6      0.909      5.202
REMARK  Name = 
REMARK  5 active torsions:
REMARK  status: ('A' for Active; 'I' for Inactive)
REMARK    1  A    between atoms: C_2  and  C_3
REMARK    2  A    between atoms: C_2  and  C_25
REMARK    3  A    between atoms: C_10  and  N_11
REMARK    4  A    between atoms: C_12  and  C_14
REMARK    5  A    between atoms: N_27  and  C_28
REMARK                            x       y       z     vdW  Elec       q    Type
REMARK                         _______ _______ _______ _____ _____    ______ ____
ROOT
ATOM      3  C   UNL     1      -4.236   0.077  24.411  0.00  0.00    +0.039 C 
ATOM      4  C   UNL     1      -4.922   0.262  24.834  0.00  0.00    +0.003 C 
ATOM      5  C   UNL     1      -5.032   1.024  25.127  0.00  0.00    +0.000 C 
ATOM      6  C   UNL     1      -4.459   1.603  25.000  0.00  0.00    +0.002 C 
ATOM      7  C   UNL     1      -5.143   1.786  25.421  0.00  0.00    +0.000 C 
ATOM      8  C   UNL     1      -4.570   2.366  25.293  0.00  0.00    +0.002 C 
ATOM      9  C   UNL     1      -3.996   2.944  25.166  0.00  0.00    +0.022 C 
ATOM     10  C   UNL     1      -3.311   2.760  24.743  0.00  0.00    +0.095 C 
ATOM     20  C   UNL     1      -3.200   1.998  24.450  0.00  0.00    +0.022 C 
ATOM     21  C   UNL     1      -2.515   1.814  24.028  0.00  0.00    +0.002 C 
ATOM     22  C   UNL     1      -3.773   1.418  24.577  0.00  0.00    +0.032 C 
ATOM     23  C   UNL     1      -3.663   0.656  24.284  0.00  0.00    +0.152 C 
ATOM     24  O   UNL     1      -2.978   0.472  23.862  0.00  0.00    -0.223 OA
ENDROOT
BRANCH  10  11
ATOM     11  N   UNL     1      -2.737   3.339  24.616  0.00  0.00    -0.207 NA
ATOM     12  C   UNL     1      -2.421   3.755  25.254  0.00  0.00    +0.241 C 
ATOM     13  O   UNL     1      -2.678   3.592  26.021  0.00  0.00    -0.273 OA
BRANCH  12  14
ATOM     14  C   UNL     1      -1.847   4.335  25.126  0.00  0.00    +0.078 C 
ATOM     15  C   UNL     1      -2.062   5.130  25.106  0.00  0.00    +0.009 C 
ATOM     16  C   UNL     1      -1.488   5.710  24.979  0.00  0.00    +0.000 C 
ATOM     17  C   UNL     1      -0.700   5.492  24.871  0.00  0.00    +0.000 C 
ATOM     18  C   UNL     1      -0.485   4.695  24.891  0.00  0.00    +0.000 C 
ATOM     19  C   UNL     1      -1.059   4.117  25.018  0.00  0.00    +0.009 C 
ENDBRANCH  12  14
ENDBRANCH  10  11
BRANCH   3   2
ATOM      1  C   UNL     1      -4.327  -0.860  23.337  0.00  0.00    +0.010 C 
ATOM      2  C   UNL     1      -4.126  -0.686  24.118  0.00  0.00    +0.081 C 
BRANCH   2  25
ATOM     25  C   UNL     1      -3.814  -1.275  24.604  0.00  0.00    +0.241 C 
ATOM     26  O   UNL     1      -3.954  -1.255  25.418  0.00  0.00    -0.273 OA
ATOM     27  N   UNL     1      -3.363  -1.884  24.278  0.00  0.00    -0.207 NA
BRANCH  27  28
ATOM     28  C   UNL     1      -3.052  -2.472  24.764  0.00  0.00    +0.095 C 
ATOM     29  C   UNL     1      -3.152  -3.033  25.361  0.00  0.00    +0.023 C 
ATOM     30  C   UNL     1      -2.411  -2.931  25.011  0.00  0.00    +0.023 C 
ENDBRANCH  27  28
ENDBRANCH   2  25
ENDBRANCH   3   2
TORSDOF 5
ENDMDL
MODEL 3
REMARK VINA RESULT:     -12.3      1.874      5.894
REMARK  Name = 
REMARK  5 active torsions:
REMARK  status: ('A' for Active; 'I' for Inactive)
REMARK    1  A    between atoms: C_2  and  C_3
REMARK    2  A    between atoms: C_2  and  C_25
REMARK    3  A    between atoms: C_10  and  N_11
REMARK    4  A    between atoms: C_12  and  C_14
REMARK    5  A    between atoms: N_27  and  C_28
REMARK                            x       y       z     vdW  Elec       q    Type
REMARK                         _______ _______ _______ _____ _____    ______ ____
ROOT
ATOM      3  C   UNL     1      -2.264  -0.861  25.322  0.00  0.00    +0.039 C 
ATOM      4  C   UNL     1      -1.505  -1.159  25.188  0.00  0.00    +0.003 C 
ATOM      5  C   UNL     1      -0.889  -0.646  24.997  0.00  0.00    +0.000 C 
ATOM      6  C   UNL     1      -1.030   0.164  24.939  0.00  0.00    +0.002 C 
ATOM      7  C   UNL     1      -0.273  -0.133  24.805  0.00  0.00    +0.000 C 
ATOM      8  C   UNL     1      -0.413   0.678  24.748  0.00  0.00    +0.002 C 
ATOM      9  C   UNL     1      -0.554   1.488  24.690  0.00  0.00    +0.022 C 
ATOM     10  C   UNL     1      -1.313   1.786  24.824  0.00  0.00    +0.095 C 
ATOM     20  C   UNL     1      -1.929   1.273  25.015  0.00  0.00    +0.022 C 
ATOM     21  C   UNL     1      -2.687   1.570  25.149  0.00  0.00    +0.002 C 
ATOM     22  C   UNL     1      -1.788   0.462  25.073  0.00  0.00    +0.032 C 
ATOM     23  C   UNL     1      -2.405  -0.051  25.264  0.00  0.00    +0.152 C 
ATOM     24  O   UNL     1      -3.162   0.246  25.398  0.00  0.00    -0.223 OA
ENDROOT
BRANCH  10  11
ATOM     11  N   UNL     1      -1.453   2.597  24.766  0.00  0.00    -0.207 NA
ATOM     12  C   UNL     1      -0.990   3.128  25.195  0.00  0.00    +0.241 C 
ATOM     13  O   UNL     1      -0.386   2.848  25.683  0.00  0.00    -0.273 OA
BRANCH  12  14
ATOM     14  C   UNL     1      -1.131   3.939  25.137  0.00  0.00    +0.078 C 
ATOM     15  C   UNL     1      -1.811   4.265  25.470  0.00  0.00    +0.009 C 
ATOM     16  C   UNL     1      -1.951   5.077  25.412  0.00  0.00    +0.000 C 
ATOM     17  C   UNL     1      -1.411   5.561  25.020  0.00  0.00    +0.000 C 
ATOM     18  C   UNL     1      -0.729   5.235  24.687  0.00  0.00    +0.000 C 
ATOM     19  C   UNL     1      -0.590   4.424  24.745  0.00  0.00    +0.009 C 
ENDBRANCH  12  14
ENDBRANCH  10  11
BRANCH   3   2
ATOM      1  C   UNL     1      -3.234  -1.335  26.258  0.00  0.00    +0.010 C 
ATOM      2  C   UNL     1      -2.880  -1.375  25.514  0.00  0.00    +0.081 C 
BRANCH   2  25
ATOM     25  C   UNL     1      -3.143  -1.930  24.962  0.00  0.00    +0.241 C 
ATOM     26  O   UNL     1      -2.693  -2.605  24.810  0.00  0.00    -0.273 OA
ATOM     27  N   UNL     1      -3.855  -1.810  24.563  0.00  0.00    -0.207 NA
BRANCH  27  28
ATOM     28  C   UNL     1      -4.117  -2.364  24.012  0.00  0.00    +0.095 C 
ATOM     29  C   UNL     1      -4.081  -3.122  23.688  0.00  0.00    +0.023 C 
ATOM     30  C   UNL     1      -4.608  -2.567  23.380  0.00  0.00    +0.023 C 
ENDBRANCH  27  28
ENDBRANCH   2  25
ENDBRANCH   3   2
TORSDOF 5
ENDMDL
MODEL 4
REMARK VINA RESULT:     -11.4      2.174      3.181
REMARK  Name = 
REMARK  5 active torsions:
REMARK  status: ('A' for Active; 'I' for Inactive)
REMARK    1  A    between atoms: C_2  and  C_3
REMARK    2  A    between atoms: C_2  and  C_25
REMARK    3  A    between atoms: C_10  and  N_11
REMARK    4  A    between atoms: C_12  and  C_14
REMARK    5  A    between atoms: N_27  and  C_28
REMARK                            x       y       z     vdW  Elec       q    Type
REMARK                         _______ _______ _______ _____ _____    ______ ____
ROOT
ATOM      3  C   UNL     1      -0.404   2.243  25.252  0.00  0.00    +0.039 C 
ATOM      4  C   UNL     1       0.251   2.072  24.779  0.00  0.00    +0.003 C 
ATOM      5  C   UNL     1       0.257   1.391  24.314  0.00  0.00    +0.000 C 
ATOM      6  C   UNL     1      -0.390   0.881  24.321  0.00  0.00    +0.002 C 
ATOM      7  C   UNL     1       0.263   0.710  23.849  0.00  0.00    +0.000 C 
ATOM      8  C   UNL     1      -0.385   0.200  23.855  0.00  0.00    +0.002 C 
ATOM      9  C   UNL     1      -1.032  -0.310  23.862  0.00  0.00    +0.022 C 
ATOM     10  C   UNL     1      -1.688  -0.139  24.334  0.00  0.00    +0.095 C 
ATOM     20  C   UNL     1      -1.694   0.541  24.799  0.00  0.00    +0.022 C 
ATOM     21  C   UNL     1      -2.348   0.712  25.272  0.00  0.00    +0.002 C 
ATOM     22  C   UNL     1      -1.046   1.052  24.793  0.00  0.00    +0.032 C 
ATOM     23  C   UNL     1      -1.052   1.733  25.258  0.00  0.00    +0.152 C 
ATOM     24  O   UNL     1      -1.707   1.904  25.730  0.00  0.00    -0.223 OA
ENDROOT
BRANCH  10  11
ATOM     11  N   UNL     1      -2.336  -0.650  24.341  0.00  0.00    -0.207 NA
ATOM     12  C   UNL     1      -2.218  -1.466  24.342  0.00  0.00    +0.241 C 
ATOM     13  O   UNL     1      -1.452  -1.773  24.337  0.00  0.00    -0.273 OA
BRANCH  12  14
ATOM     14  C   UNL     1      -2.867  -1.977  24.348  0.00  0.00    +0.078 C 
ATOM     15  C   UNL     1      -2.832  -2.683  24.773  0.00  0.00    +0.009 C 
ATOM     16  C   UNL     1      -3.480  -3.193  24.779  0.00  0.00    +0.000 C 
ATOM     17  C   UNL     1      -4.163  -2.997  24.360  0.00  0.00    +0.000 C 
ATOM     18  C   UNL     1      -4.198  -2.290  23.934  0.00  0.00    +0.000 C 
ATOM     19  C   UNL     1      -3.550  -1.781  23.929  0.00  0.00    +0.009 C 
ENDBRANCH  12  14
ENDBRANCH  10  11
BRANCH   3   2
ATOM      1  C   UNL     1      -0.250   2.873  26.525  0.00  0.00    +0.010 C 
ATOM      2  C   UNL     1      -0.410   2.924  25.717  0.00  0.00    +0.081 C 
BRANCH   2  25
ATOM     25  C   UNL     1      -0.575   3.657  25.376  0.00  0.00    +0.241 C 
ATOM     26  O   UNL     1      -0.068   3.970  24.804  0.00  0.00    -0.273 OA
ATOM     27  N   UNL     1      -1.246   4.077  25.605  0.00  0.00    -0.207 NA
BRANCH  27  28
ATOM     28  C   UNL     1      -1.411   4.809  25.263  0.00  0.00    +0.095 C 
ATOM     29  C   UNL     1      -1.166   5.467  24.829  0.00  0.00    +0.023 C 
ATOM     30  C   UNL     1      -1.942   5.422  25.106  0.00  0.00    +0.023 C 
ENDBRANCH  27  28
ENDBRANCH   2  25
ENDBRANCH   3   2
TORSDOF 5
ENDMDL
MODEL 5
REMARK VINA RESULT:     -11.1      2.317      4.804
REMARK  Name = 
REMARK  5 active torsions:
REMARK  status: ('A' for Active; 'I' for Inactive)
REMARK    1  A    between atoms: C_2  and  C_3
REMARK    2  A    between atoms: C_2  and  C_25
REMARK    3  A    between atoms: C_10  and  N_11
REMARK    4  A    between atoms: C_12  and  C_14
REMARK    5  A    between atoms: N_27  and  C_28
REMARK                            x       y       z     vdW  Elec       q    Type
REMARK                         _______ _______ _______ _____ _____    ______ ____
ROOT
ATOM      3  C   UNL     1      -1.635  -1.152  24.693  0.00  0.00    +0.039 C 
ATOM      4  C   UNL     1      -2.117  -1.749  24.388  0.00  0.00    +0.003 C 
ATOM      5  C   UNL     1      -2.933  -1.638  24.342  0.00  0.00    +0.000 C 
ATOM      6  C   UNL     1      -3.268  -0.930  24.600  0.00  0.00    +0.002 C 
ATOM      7  C   UNL     1      -3.748  -1.527  24.296  0.00  0.00    +0.000 C 
ATOM      8  C   UNL     1      -4.084  -0.818  24.554  0.00  0.00    +0.002 C 
ATOM      9  C   UNL     1      -4.419  -0.111  24.812  0.00  0.00    +0.022 C 
ATOM     10  C   UNL     1      -3.937   0.487  25.117  0.00  0.00    +0.095 C 
ATOM     20  C   UNL     1      -3.122   0.376  25.163  0.00  0.00    +0.022 C 
ATOM     21  C   UNL     1      -2.640   0.973  25.468  0.00  0.00    +0.002 C 
ATOM     22  C   UNL     1      -2.786  -0.333  24.905  0.00  0.00    +0.032 C 
ATOM     23  C   UNL     1      -1.970  -0.444  24.951  0.00  0.00    +0.152 C 
ATOM     24  O   UNL     1      -1.489   0.153  25.256  0.00  0.00    -0.223 OA
ENDROOT
BRANCH  10  11
ATOM     11  N   UNL     1      -4.273   1.195  25.375  0.00  0.00    -0.207 NA
ATOM     12  C   UNL     1      -4.739   1.642  24.863  0.00  0.00    +0.241 C 
ATOM     13  O   UNL     1      -4.869   1.381  24.090  0.00  0.00    -0.273 OA
BRANCH  12  14
ATOM     14  C   UNL     1      -5.074   2.351  25.121  0.00  0.00    +0.078 C 
ATOM     15  C   UNL     1      -4.700   3.067  24.961  0.00  0.00    +0.009 C 
ATOM     16  C   UNL     1      -5.036   3.776  25.219  0.00  0.00    +0.000 C 
ATOM     17  C   UNL     1      -5.747   3.766  25.638  0.00  0.00    +0.000 C 
ATOM     18  C   UNL     1      -6.122   3.048  25.798  0.00  0.00    +0.000 C 
ATOM     19  C   UNL     1      -5.785   2.341  25.540  0.00  0.00    +0.009 C 
ENDBRANCH  12  14
ENDBRANCH  10  11
BRANCH   3   2
ATOM      1  C   UNL     1      -0.480  -1.537  25.440  0.00  0.00    +0.010 C 
ATOM      2  C   UNL     1      -0.819  -1.264  24.739  0.00  0.00    +0.081 C 
BRANCH   2  25
ATOM     25  C   UNL     1      -0.342  -1.103  24.086  0.00  0.00    +0.241 C 
ATOM     26  O   UNL     1      -0.402  -1.570  23.407  0.00  0.00    -0.273 OA
ATOM     27  N   UNL     1       0.195  -0.478  24.110  0.00  0.00    -0.207 NA
BRANCH  27  28
ATOM     28  C   UNL     1       0.671  -0.318  23.456  0.00  0.00    +0.095 C 
ATOM     29  C   UNL     1       0.819  -0.381  22.647  0.00  0.00    +0.023 C 
ATOM     30  C   UNL     1       1.350   0.023  23.133  0.00  0.00    +0.023 C 
ENDBRANCH  27  28
ENDBRANCH   2  25
ENDBRANCH   3   2
TORSDOF 5
ENDMDL
MODEL 6
REMARK VINA RESULT:     -10.9      2.677      4.093
REMARK  Name = 
REMARK  5 active torsions:
REMARK  status: ('A' for Active; 'I' for Inactive)
REMARK    1  A    between atoms: C_2  and  C_3
REMARK    2  A    between atoms: C_2  and  C_25
REMARK    3  A    between atoms: C_10  and  N_11
REMARK    4  A    between atoms: C_12  and  C_14
REMARK    5  A    between atoms: N_27  and  C_28
REMARK                            x       y       z     vdW  Elec       q    Type
REMARK                         _______ _______ _______ _____ _____    ______ ____
ROOT
ATOM      3  C   UNL     1      -3.333   3.480  24.909  0.00  0.00    +0.039 C 
ATOM      4  C   UNL     1      -3.033   3.817  25.601  0.00  0.00    +0.003 C 
ATOM      5  C   UNL     1      -2.244   3.700  25.808  0.00  0.00    +0.000 C 
ATOM      6  C   UNL     1      -1.753   3.246  25.325  0.00  0.00    +0.002 C 
ATOM      7  C   UNL     1      -1.454   3.583  26.015  0.00  0.00    +0.000 C 
ATOM      8  C   UNL     1      -0.963   3.129  25.531  0.00  0.00    +0.002 C 
ATOM      9  C   UNL     1      -0.473   2.675  25.048  0.00  0.00    +0.022 C 
ATOM     10  C   UNL     1      -0.772   2.338  24.357  0.00  0.00    +0.095 C 
ATOM     20  C   UNL     1      -1.562   2.455  24.150  0.00  0.00    +0.022 C 
ATOM     21  C   UNL     1      -1.861   2.118  23.459  0.00  0.00    +0.002 C 
ATOM     22  C   UNL     1      -2.053   2.909  24.633  0.00  0.00    +0.032 C 
ATOM     23  C   UNL     1      -2.842   3.026  24.426  0.00  0.00    +0.152 C 
ATOM     24  O   UNL     1      -3.142   2.689  23.735  0.00  0.00    -0.223 OA
ENDROOT
BRANCH  10  11
ATOM     11  N   UNL     1      -0.281   1.884  23.873  0.00  0.00    -0.207 NA
ATOM     12  C   UNL     1       0.165   1.271  24.197  0.00  0.00    +0.241 C 
ATOM     13  O   UNL     1       0.120   1.111  25.006  0.00  0.00    -0.273 OA
BRANCH  12  14
ATOM     14  C   UNL     1       0.656   0.817  23.714  0.00  0.00    +0.078 C 
ATOM     15  C   UNL     1       1.421   1.073  23.546  0.00  0.00    +0.009 C 
ATOM     16  C   UNL     1       1.913   0.619  23.063  0.00  0.00    +0.000 C 
ATOM     17  C   UNL     1       1.637  -0.091  22.747  0.00  0.00    +0.000 C 
ATOM     18  C   UNL     1       0.871  -0.348  22.915  0.00  0.00    +0.000 C 
ATOM     19  C   UNL     1       0.381   0.106  23.399  0.00  0.00    +0.009 C 
ENDBRANCH  12  14
ENDBRANCH  10  11
BRANCH   3   2
ATOM      1  C   UNL     1      -4.314   4.090  24.069  0.00  0.00    +0.010 C 
ATOM      2  C   UNL     1      -4.123   3.597  24.702  0.00  0.00    +0.081 C 
BRANCH   2  25
ATOM     25  C   UNL     1      -4.722   3.222  25.128  0.00  0.00    +0.241 C 
ATOM     26  O   UNL     1      -4.930   3.499  25.878  0.00  0.00    -0.273 OA
ATOM     27  N   UNL     1      -5.113   2.572  24.806  0.00  0.00    -0.207 NA
BRANCH  27  28
ATOM     28  C   UNL     1      -5.712   2.198  25.232  0.00  0.00    +0.095 C 
ATOM     29  C   UNL     1      -6.234   2.186  25.870  0.00  0.00    +0.023 C 
ATOM     30  C   UNL     1      -6.228   1.561  25.331  0.00  0.00    +0.023 C 
ENDBRANCH  27  28
ENDBRANCH   2  25
ENDBRANCH   3   2
TORSDOF 5
ENDMDL
MODEL 7
REMARK VINA RESULT:     -10.5      3.136      4.905
REMARK  Name = 
REMARK  5 active torsions:
REMARK  status: ('A' for Active; 'I' for Inactive)
REMARK    1  A    between atoms: C_2  and  C_3
REMARK    2  A    between atoms: C_2  and  C_25
REMARK    3  A    between atoms: C_10  and  N_11
REMARK    4  A    between atoms: C_12  and  C_14
REMARK    5  A    between atoms: N_27  and  C_28
REMARK                            x       y       z     vdW  Elec       q    Type
REMARK                         _______ _______ _______ _____ _____    ______ ____
ROOT
ATOM      3  C   UNL     1      -0.152   0.648  24.094  0.00  0.00    +0.039 C 
ATOM      4  C   UNL     1       0.255   1.361  24.180  0.00  0.00    +0.003 C 
ATOM      5  C   UNL     1      -0.143   2.034  24.441  0.00  0.00    +0.000 C 
ATOM      6  C   UNL     1      -0.947   1.996  24.616  0.00  0.00    +0.002 C 
ATOM      7  C   UNL     1      -0.541   2.707  24.702  0.00  0.00    +0.000 C 
ATOM      8  C   UNL     1      -1.346   2.669  24.877  0.00  0.00    +0.002 C 
ATOM      9  C   UNL     1      -2.151   2.631  25.052  0.00  0.00    +0.022 C 
ATOM     10  C   UNL     1      -2.559   1.918  24.966  0.00  0.00    +0.095 C 
ATOM     20  C   UNL     1      -2.161   1.245  24.705  0.00  0.00    +0.022 C 
ATOM     21  C   UNL     1      -2.568   0.532  24.619  0.00  0.00    +0.002 C 
ATOM     22  C   UNL     1      -1.355   1.283  24.530  0.00  0.00    +0.032 C 
ATOM     23  C   UNL     1      -0.957   0.609  24.269  0.00  0.00    +0.152 C 
ATOM     24  O   UNL     1      -1.364  -0.103  24.183  0.00  0.00    -0.223 OA
ENDROOT
BRANCH  10  11
ATOM     11  N   UNL     1      -3.364   1.880  25.141  0.00  0.00    -0.207 NA
ATOM     12  C   UNL     1      -3.864   2.498  24.923  0.00  0.00    +0.241 C 
ATOM     13  O   UNL     1      -3.558   3.157  24.529  0.00  0.00    -0.273 OA
BRANCH  12  14
ATOM     14  C   UNL     1      -4.669   2.460  25.099  0.00  0.00    +0.078 C 
ATOM     15  C   UNL     1      -4.984   2.931  25.698  0.00  0.00    +0.009 C 
ATOM     16  C   UNL     1      -5.790   2.893  25.873  0.00  0.00    +0.000 C 
ATOM     17  C   UNL     1      -6.280   2.384  25.448  0.00  0.00    +0.000 C 
ATOM     18  C   UNL     1      -5.965   1.912  24.848  0.00  0.00    +0.000 C 
ATOM     19  C   UNL     1      -5.160   1.951  24.674  0.00  0.00    +0.009 C 
ENDBRANCH  12  14
ENDBRANCH  10  11
BRANCH   3   2
ATOM      1  C   UNL     1       0.143  -0.744  24.226  0.00  0.00    +0.010 C 
ATOM      2  C   UNL     1       0.246  -0.026  23.833  0.00  0.00    +0.081 C 
BRANCH   2  25
ATOM     25  C   UNL     1       0.748   0.018  23.180  0.00  0.00    +0.241 C 
ATOM     26  O   UNL     1       0.435   0.151  22.427  0.00  0.00    -0.273 OA
ATOM     27  N   UNL     1       1.562  -0.071  23.277  0.00  0.00    -0.207 NA
BRANCH  27  28
ATOM     28  C   UNL     1       2.063  -0.028  22.624  0.00  0.00    +0.095 C 
ATOM     29  C   UNL     1       2.211  -0.175  21.826  0.00  0.00    +0.023 C 
ATOM     30  C   UNL     1       2.784   0.196  22.290  0.00  0.00    +0.023 C 
ENDBRANCH  27  28
ENDBRANCH   2  25
ENDBRANCH   3   2
TORSDOF 5
ENDMDL
