MODEL 1
REMARK VINA RESULT:     -11.6      0.000      0.000
REMARK  Name = 
REMARK  6 active torsions:
REMARK  status: ('A' for Active; 'I' for Inactive)
REMARK    1  A    between atoms: C_2  and  C_4
REMARK    2  A    between atoms: C_6  and  C_7
REMARK    3  A    between atoms: C_7  and  C_8
REMARK    4  A    between atoms: C_21  and  C_22
REMARK    5  A    between atoms: C_22  and  N_23
REMARK    6  A    between atoms: C_24  and  C_26
REMARK                            x       y       z     vdW  Elec       q    Type
REMARK                         _______ _______ _______ _____ _____    ______ ____
ROOT
ATOM      4  C   UNL     1      -2.044   1.025  24.441  0.00  0.00    +0.006 C 
ATOM      5  C   UNL     1      -2.680   0.529  24.267  0.00  0.00    +0.005 C 
ATOM      6  C   UNL     1      -3.450   0.773  24.435  0.00  0.00    +0.026 C 
ATOM     18  C   UNL     1      -3.584   1.512  24.778  0.00  0.00    -0.048 C 
ATOM     19  C   UNL     1      -4.354   1.755  24.946  0.00  0.00    +0.026 C 
ATOM     20  C   UNL     1      -2.947   2.007  24.951  0.00  0.00    -0.033 C 
ATOM     21  C   UNL     1      -2.177   1.764  24.783  0.00  0.00    +0.043 C 
ENDROOT
BRANCH   4   2
ATOM      1  C   UNL     1      -0.821   0.413  24.855  0.00  0.00    +0.000 C 
ATOM      2  C   UNL     1      -1.274   0.782  24.273  0.00  0.00    +0.000 C 
ATOM      3  C   UNL     1      -0.956   0.908  23.521  0.00  0.00    +0.000 C 
ENDBRANCH   4   2
BRANCH   6   7
ATOM      7  C   UNL     1      -4.087   0.278  24.262  0.00  0.00    +0.070 C 
BRANCH   7   8
ATOM      8  C   UNL     1      -4.002  -0.541  24.323  0.00  0.00    +0.139 A 
ATOM      9  N   UNL     1      -4.093  -1.085  23.710  0.00  0.00    -0.229 NA
ATOM     10  C   UNL     1      -3.959  -1.839  24.017  0.00  0.00    +0.100 A 
ATOM     11  C   UNL     1      -3.785  -1.761  24.819  0.00  0.00    +0.102 A 
ATOM     12  N   UNL     1      -3.812  -0.959  25.009  0.00  0.00    -0.229 NA
ATOM     13  C   UNL     1      -3.626  -2.431  25.273  0.00  0.00    +0.050 A 
ATOM     14  C   UNL     1      -3.639  -3.178  24.925  0.00  0.00    +0.142 A 
ATOM     15  F   UNL     1      -3.480  -3.847  25.379  0.00  0.00    -0.204 F 
ATOM     16  C   UNL     1      -3.813  -3.256  24.123  0.00  0.00    +0.031 A 
ATOM     17  C   UNL     1      -3.973  -2.587  23.668  0.00  0.00    +0.023 A 
ENDBRANCH   7   8
ENDBRANCH   6   7
BRANCH  21  22
ATOM     22  C   UNL     1      -1.541   2.260  24.957  0.00  0.00    +0.119 C 
BRANCH  22  23
ATOM     23  N   UNL     1      -1.608   3.073  24.837  0.00  0.00    -0.205 NA
ATOM     24  C   UNL     1      -1.107   3.592  25.236  0.00  0.00    +0.241 C 
ATOM     25  O   UNL     1      -0.537   3.297  25.755  0.00  0.00    -0.273 OA
BRANCH  24  26
ATOM     26  C   UNL     1      -1.174   4.406  25.116  0.00  0.00    +0.078 C 
ATOM     27  C   UNL     1      -1.840   4.809  25.390  0.00  0.00    +0.009 C 
ATOM     28  C   UNL     1      -1.908   5.622  25.270  0.00  0.00    +0.000 C 
ATOM     29  C   UNL     1      -1.309   6.033  24.877  0.00  0.00    +0.000 C 
ATOM     30  C   UNL     1      -0.644   5.629  24.604  0.00  0.00    +0.000 C 
ATOM     31  C   UNL     1      -0.576   4.815  24.724  0.00  0.00    +0.009 C 
ENDBRANCH  24  26
ENDBRANCH  22  23
ENDBRANCH  21  22
TORSDOF 6
ENDMDL
MODEL 2
REMARK VINA RESULT:     -11.2      2.277      6.171
REMARK  Name = 
REMARK  6 active torsions:
REMARK  status: ('A' for Active; 'I' for Inactive)
REMARK    1  A    between atoms: C_2  and  C_4
REMARK    2  A    between atoms: C_6  and  C_7
REMARK    3  A    between atoms: C_7  and  C_8
REMARK    4  A    between atoms: C_21  and  C_22
REMARK    5  A    between atoms: C_22  and  N_23
REMARK    6  A    between atoms: C_24  and  C_26
REMARK                            x       y       z     vdW  Elec       q    Type
REMARK                         _______ _______ _______ _____ _____    ______ ____
ROOT
ATOM      4  C   UNL     1      -2.981   1.553  24.706  0.00  0.00    +0.006 C 
ATOM      5  C   UNL     1      -2.386   2.044  24.999  0.00  0.00    +0.005 C 
ATOM      6  C   UNL     1      -1.695   1.714  25.307  0.00  0.00    +0.026 C 
ATOM     18  C   UNL     1      -1.600   0.894  25.322  0.00  0.00    -0.048 C 
ATOM     19  C   UNL     1      -0.909   0.564  25.629  0.00  0.00    +0.026 C 
ATOM     20  C   UNL     1      -2.196   0.405  25.028  0.00  0.00    -0.033 C 
ATOM     21  C   UNL     1      -2.887   0.735  24.720  0.00  0.00    +0.043 C 
ENDROOT
BRANCH   4   2
ATOM      1  C   UNL     1      -4.313   2.037  24.894  0.00  0.00    +0.000 C 
ATOM      2  C   UNL     1      -3.672   1.883  24.398  0.00  0.00    +0.000 C 
ATOM      3  C   UNL     1      -3.722   2.060  23.593  0.00  0.00    +0.000 C 
ENDBRANCH   4   2
BRANCH   6   7
ATOM      7  C   UNL     1      -1.099   2.202  25.600  0.00  0.00    +0.070 C 
BRANCH   7   8
ATOM      8  C   UNL     1      -1.075   2.999  25.387  0.00  0.00    +0.139 A 
ATOM      9  N   UNL     1      -0.599   3.330  24.801  0.00  0.00    -0.229 NA
ATOM     10  C   UNL     1      -0.754   4.140  24.774  0.00  0.00    +0.100 A 
ATOM     11  C   UNL     1      -1.326   4.309  25.344  0.00  0.00    +0.102 A 
ATOM     12  N   UNL     1      -1.525   3.605  25.723  0.00  0.00    -0.229 NA
ATOM     13  C   UNL     1      -1.591   5.084  25.443  0.00  0.00    +0.050 A 
ATOM     14  C   UNL     1      -1.285   5.689  24.974  0.00  0.00    +0.142 A 
ATOM     15  F   UNL     1      -1.551   6.463  25.074  0.00  0.00    -0.204 F 
ATOM     16  C   UNL     1      -0.713   5.519  24.404  0.00  0.00    +0.031 A 
ATOM     17  C   UNL     1      -0.447   4.745  24.304  0.00  0.00    +0.023 A 
ENDBRANCH   7   8
ENDBRANCH   6   7
BRANCH  21  22
ATOM     22  C   UNL     1      -3.482   0.245  24.427  0.00  0.00    +0.119 C 
BRANCH  22  23
ATOM     23  N   UNL     1      -3.366  -0.572  24.397  0.00  0.00    -0.205 NA
ATOM     24  C   UNL     1      -4.015  -1.079  24.346  0.00  0.00    +0.241 C 
ATOM     25  O   UNL     1      -4.780  -0.770  24.325  0.00  0.00    -0.273 OA
BRANCH  24  26
ATOM     26  C   UNL     1      -3.899  -1.896  24.316  0.00  0.00    +0.078 C 
ATOM     27  C   UNL     1      -4.165  -2.326  23.664  0.00  0.00    +0.009 C 
ATOM     28  C   UNL     1      -4.049  -3.142  23.634  0.00  0.00    +0.000 C 
ATOM     29  C   UNL     1      -3.667  -3.528  24.256  0.00  0.00    +0.000 C 
ATOM     30  C   UNL     1      -3.401  -3.097  24.907  0.00  0.00    +0.000 C 
ATOM     31  C   UNL     1      -3.517  -2.281  24.937  0.00  0.00    +0.009 C 
ENDBRANCH  24  26
ENDBRANCH  22  23
ENDBRANCH  21  22
TORSDOF 6
ENDMDL
MODEL 3
REMARK VINA RESULT:     -10.6      3.042      4.523
REMARK  Name = 
REMARK  6 active torsions:
REMARK  status: ('A' for Active; 'I' for Inactive)
REMARK    1  A    between atoms: C_2  and  C_4
REMARK    2  A    between atoms: C_6  and  C_7
REMARK    3  A    between atoms: C_7  and  C_8
REMARK    4  A    between atoms: C_21  and  C_22
REMARK    5  A    between atoms: C_22  and  N_23
REMARK    6  A    between atoms: C_24  and  C_26
REMARK                            x       y       z     vdW  Elec       q    Type
REMARK                         _______ _______ _______ _____ _____    ______ ____
ROOT
ATOM      4  C   UNL     1      -1.502   1.429  24.622  0.00  0.00    +0.006 C 
ATOM      5  C   UNL     1      -2.115   1.976  24.546  0.00  0.00    +0.005 C 
ATOM      6  C   UNL     1      -2.403   2.170  23.797  0.00  0.00    +0.026 C 
ATOM     18  C   UNL     1      -2.078   1.817  23.125  0.00  0.00    -0.048 C 
ATOM     19  C   UNL     1      -2.365   2.011  22.377  0.00  0.00    +0.026 C 
ATOM     20  C   UNL     1      -1.465   1.270  23.203  0.00  0.00    -0.033 C 
ATOM     21  C   UNL     1      -1.177   1.077  23.952  0.00  0.00    +0.043 C 
ENDROOT
BRANCH   4   2
ATOM      1  C   UNL     1      -0.678   1.735  25.749  0.00  0.00    +0.000 C 
ATOM      2  C   UNL     1      -1.214   1.236  25.371  0.00  0.00    +0.000 C 
ATOM      3  C   UNL     1      -1.463   0.541  25.742  0.00  0.00    +0.000 C 
ENDBRANCH   4   2
BRANCH   6   7
ATOM      7  C   UNL     1      -3.016   2.717  23.719  0.00  0.00    +0.070 C 
BRANCH   7   8
ATOM      8  C   UNL     1      -3.691   2.650  24.188  0.00  0.00    +0.139 A 
ATOM      9  N   UNL     1      -3.899   3.146  24.813  0.00  0.00    -0.229 NA
ATOM     10  C   UNL     1      -4.613   2.878  25.125  0.00  0.00    +0.100 A 
ATOM     11  C   UNL     1      -4.848   2.216  24.693  0.00  0.00    +0.102 A 
ATOM     12  N   UNL     1      -4.278   2.075  24.113  0.00  0.00    -0.229 NA
ATOM     13  C   UNL     1      -5.550   1.827  24.883  0.00  0.00    +0.050 A 
ATOM     14  C   UNL     1      -6.018   2.100  25.505  0.00  0.00    +0.142 A 
ATOM     15  F   UNL     1      -6.719   1.712  25.695  0.00  0.00    -0.204 F 
ATOM     16  C   UNL     1      -5.783   2.762  25.937  0.00  0.00    +0.031 A 
ATOM     17  C   UNL     1      -5.081   3.152  25.748  0.00  0.00    +0.023 A 
ENDBRANCH   7   8
ENDBRANCH   6   7
BRANCH  21  22
ATOM     22  C   UNL     1      -0.564   0.530  24.029  0.00  0.00    +0.119 C 
BRANCH  22  23
ATOM     23  N   UNL     1       0.088   0.568  23.525  0.00  0.00    -0.205 NA
ATOM     24  C   UNL     1       0.573  -0.091  23.426  0.00  0.00    +0.241 C 
ATOM     25  O   UNL     1       0.405  -0.791  23.831  0.00  0.00    -0.273 OA
BRANCH  24  26
ATOM     26  C   UNL     1       1.225  -0.053  22.922  0.00  0.00    +0.078 C 
ATOM     27  C   UNL     1       1.925   0.299  23.181  0.00  0.00    +0.009 C 
ATOM     28  C   UNL     1       2.578   0.338  22.677  0.00  0.00    +0.000 C 
ATOM     29  C   UNL     1       2.530   0.025  21.915  0.00  0.00    +0.000 C 
ATOM     30  C   UNL     1       1.829  -0.326  21.657  0.00  0.00    +0.000 C 
ATOM     31  C   UNL     1       1.177  -0.365  22.161  0.00  0.00    +0.009 C 
ENDBRANCH  24  26
ENDBRANCH  22  23
ENDBRANCH  21  22
TORSDOF 6
ENDMDL
MODEL 4
REMARK VINA RESULT:     -10.3      2.569      5.941
REMARK  Name = 
REMARK  6 active torsions:
REMARK  status: ('A' for Active; 'I' for Inactive)
REMARK    1  A    between atoms: C_2  and  C_4
REMARK    2  A    between atoms: C_6  and  C_7
REMARK    3  A    between atoms: C_7  and  C_8
REMARK    4  A    between atoms: C_21  and  C_22
REMARK    5  A    between atoms: C_22  and  N_23
REMARK    6  A    between atoms: C_24  and  C_26
REMARK                            x       y       z     vdW  Elec       q    Type
REMARK                         _______ _______ _______ _____ _____    ______ ____
ROOT
ATOM      4  C   UNL     1      -0.467   0.671  24.363  0.00  0.00    +0.006 C 
ATOM      5  C   UNL     1      -0.272   1.359  24.773  0.00  0.00    +0.005 C 
ATOM      6  C   UNL     1      -0.455   1.427  25.575  0.00  0.00    +0.026 C 
ATOM     18  C   UNL     1      -0.834   0.806  25.966  0.00  0.00    -0.048 C 
ATOM     19  C   UNL     1      -1.017   0.873  26.767  0.00  0.00    +0.026 C 
ATOM     20  C   UNL     1      -1.029   0.119  25.554  0.00  0.00    -0.033 C 
ATOM     21  C   UNL     1      -0.846   0.051  24.752  0.00  0.00    +0.043 C 
ENDROOT
BRANCH   4   2
ATOM      1  C   UNL     1       0.414   0.232  23.327  0.00  0.00    +0.000 C 
ATOM      2  C   UNL     1      -0.284   0.604  23.561  0.00  0.00    +0.000 C 
ATOM      3  C   UNL     1      -0.800   0.908  22.993  0.00  0.00    +0.000 C 
ENDBRANCH   4   2
BRANCH   6   7
ATOM      7  C   UNL     1      -0.259   2.114  25.987  0.00  0.00    +0.070 C 
BRANCH   7   8
ATOM      8  C   UNL     1      -0.617   2.831  25.788  0.00  0.00    +0.139 A 
ATOM      9  N   UNL     1      -1.397   3.044  25.949  0.00  0.00    -0.229 NA
ATOM     10  C   UNL     1      -1.519   3.804  25.654  0.00  0.00    +0.100 A 
ATOM     11  C   UNL     1      -0.814   4.061  25.310  0.00  0.00    +0.102 A 
ATOM     12  N   UNL     1      -0.256   3.460  25.393  0.00  0.00    -0.229 NA
ATOM     13  C   UNL     1      -0.772   4.810  24.967  0.00  0.00    +0.050 A 
ATOM     14  C   UNL     1      -1.434   5.302  24.966  0.00  0.00    +0.142 A 
ATOM     15  F   UNL     1      -1.391   6.050  24.623  0.00  0.00    -0.204 F 
ATOM     16  C   UNL     1      -2.139   5.045  25.309  0.00  0.00    +0.031 A 
ATOM     17  C   UNL     1      -2.182   4.297  25.653  0.00  0.00    +0.023 A 
ENDBRANCH   7   8
ENDBRANCH   6   7
BRANCH  21  22
ATOM     22  C   UNL     1      -1.042  -0.637  24.341  0.00  0.00    +0.119 C 
BRANCH  22  23
ATOM     23  N   UNL     1      -1.814  -0.926  24.367  0.00  0.00    -0.205 NA
ATOM     24  C   UNL     1      -1.960  -1.728  24.238  0.00  0.00    +0.241 C 
ATOM     25  O   UNL     1      -1.331  -2.241  24.084  0.00  0.00    -0.273 OA
BRANCH  24  26
ATOM     26  C   UNL     1      -2.732  -2.017  24.263  0.00  0.00    +0.078 C 
ATOM     27  C   UNL     1      -2.888  -2.746  24.617  0.00  0.00    +0.009 C 
ATOM     28  C   UNL     1      -3.660  -3.035  24.642  0.00  0.00    +0.000 C 
ATOM     29  C   UNL     1      -4.276  -2.595  24.314  0.00  0.00    +0.000 C 
ATOM     30  C   UNL     1      -4.120  -1.866  23.961  0.00  0.00    +0.000 C 
ATOM     31  C   UNL     1      -3.347  -1.577  23.935  0.00  0.00    +0.009 C 
ENDBRANCH  24  26
ENDBRANCH  22  23
ENDBRANCH  21  22
TORSDOF 6
ENDMDL
MODEL 5
REMARK VINA RESULT:     -10.0      2.623      4.530
REMARK  Name = 
REMARK  6 active torsions:
REMARK  status: ('A' for Active; 'I' for Inactive)
REMARK    1  A    between atoms: C_2  and  C_4
REMARK    2  A    between atoms: C_6  and  C_7
REMARK    3  A    between atoms: C_7  and  C_8
REMARK    4  A    between atoms: C_21  and  C_22
REMARK    5  A    between atoms: C_22  and  N_23
REMARK    6  A    between atoms: C_24  and  C_26
REMARK                            x       y       z     vdW  Elec       q    Type
REMARK                         _______ _______ _______ _____ _____    ______ ____
ROOT
ATOM      4  C   UNL     1      -1.182   1.921  24.694  0.00  0.00    +0.006 C 
ATOM      5  C   UNL     1      -0.631   1.309  24.644  0.00  0.00    +0.005 C 
ATOM      6  C   UNL     1      -0.887   0.531  24.546  0.00  0.00    +0.026 C 
ATOM     18  C   UNL     1      -1.695   0.365  24.497  0.00  0.00    -0.048 C 
ATOM     19  C   UNL     1      -1.951  -0.413  24.398  0.00  0.00    +0.026 C 
ATOM     20  C   UNL     1      -2.245   0.978  24.546  0.00  0.00    -0.033 C 
ATOM     21  C   UNL     1      -1.988   1.756  24.645  0.00  0.00    +0.043 C 
ENDROOT
BRANCH   4   2
ATOM      1  C   UNL     1      -0.805   3.001  25.550  0.00  0.00    +0.000 C 
ATOM      2  C   UNL     1      -0.926   2.699  24.792  0.00  0.00    +0.000 C 
ATOM      3  C   UNL     1      -0.790   3.176  24.132  0.00  0.00    +0.000 C 
ENDBRANCH   4   2
BRANCH   6   7
ATOM      7  C   UNL     1      -0.338  -0.082  24.497  0.00  0.00    +0.070 C 
BRANCH   7   8
ATOM      8  C   UNL     1       0.266  -0.051  23.935  0.00  0.00    +0.139 A 
ATOM      9  N   UNL     1       0.231  -0.351  23.168  0.00  0.00    -0.229 NA
ATOM     10  C   UNL     1       0.954  -0.200  22.802  0.00  0.00    +0.100 A 
ATOM     11  C   UNL     1       1.437   0.193  23.343  0.00  0.00    +0.102 A 
ATOM     12  N   UNL     1       1.012   0.285  24.044  0.00  0.00    -0.229 NA
ATOM     13  C   UNL     1       2.201   0.416  23.127  0.00  0.00    +0.050 A 
ATOM     14  C   UNL     1       2.483   0.247  22.371  0.00  0.00    +0.142 A 
ATOM     15  F   UNL     1       3.247   0.470  22.156  0.00  0.00    -0.204 F 
ATOM     16  C   UNL     1       2.000  -0.146  21.830  0.00  0.00    +0.031 A 
ATOM     17  C   UNL     1       1.236  -0.370  22.045  0.00  0.00    +0.023 A 
ENDBRANCH   7   8
ENDBRANCH   6   7
BRANCH  21  22
ATOM     22  C   UNL     1      -2.539   2.368  24.694  0.00  0.00    +0.119 C 
BRANCH  22  23
ATOM     23  N   UNL     1      -3.305   2.213  24.960  0.00  0.00    -0.205 NA
ATOM     24  C   UNL     1      -3.915   2.742  24.792  0.00  0.00    +0.241 C 
ATOM     25  O   UNL     1      -3.759   3.427  24.358  0.00  0.00    -0.273 OA
BRANCH  24  26
ATOM     26  C   UNL     1      -4.680   2.587  25.058  0.00  0.00    +0.078 C 
ATOM     27  C   UNL     1      -5.164   2.064  24.641  0.00  0.00    +0.009 C 
ATOM     28  C   UNL     1      -5.929   1.909  24.907  0.00  0.00    +0.000 C 
ATOM     29  C   UNL     1      -6.211   2.277  25.590  0.00  0.00    +0.000 C 
ATOM     30  C   UNL     1      -5.728   2.800  26.006  0.00  0.00    +0.000 C 
ATOM     31  C   UNL     1      -4.962   2.955  25.740  0.00  0.00    +0.009 C 
ENDBRANCH  24  26
ENDBRANCH  22  23
ENDBRANCH  21  22
TORSDOF 6
ENDMDL
