MODEL 1
REMARK VINA RESULT:      -9.6      0.000      0.000
REMARK  Name = 
REMARK  9 active torsions:
REMARK  status: ('A' for Active; 'I' for Inactive)
REMARK    1  A    between atoms: N_6  and  C_7
REMARK    2  A    between atoms: C_7  and  C_8
REMARK    3  A    between atoms: C_12  and  O_13
REMARK    4  A    between atoms: O_13  and  C_14
REMARK    5  A    between atoms: C_24  and  C_25
REMARK    6  A    between atoms: C_25  and  C_26
REMARK    7  A    between atoms: C_26  and  C_27
REMARK    8  A    between atoms: N_29  and  C_30
REMARK    9  A    between atoms: C_30  and  C_31
REMARK                            x       y       z     vdW  Elec       q    Type
REMARK                         _______ _______ _______ _____ _____    ______ ____
ROOT
ATOM      1  C   UNL     1      -0.935   1.673  22.896  0.00  0.00    +0.090 C 
ATOM      2  N   UNL     1      -1.157   1.157  23.500  0.00  0.00    -0.271 NA
ATOM      3  C   UNL     1      -1.916   1.266  23.805  0.00  0.00    +0.083 C 
ATOM      4  C   UNL     1      -2.434   1.849  23.536  0.00  0.00    +0.035 C 
ATOM      5  C   UNL     1      -3.134   1.788  23.968  0.00  0.00    +0.074 C 
ATOM      6  N   UNL     1      -3.048   1.167  24.505  0.00  0.00    -0.262 NA
ATOM     19  C   UNL     1      -2.295   0.845  24.405  0.00  0.00    +0.151 C 
ATOM     20  C   UNL     1      -2.009   0.211  24.847  0.00  0.00    +0.257 C 
ATOM     21  O   UNL     1      -2.527  -0.094  25.412  0.00  0.00    -0.272 OA
ATOM     22  N   UNL     1      -1.274  -0.159  24.800  0.00  0.00    -0.203 NA
ATOM     23  C   UNL     1      -0.642   0.014  24.298  0.00  0.00    +0.131 C 
ATOM     24  C   UNL     1      -0.590   0.599  23.720  0.00  0.00    +0.080 C 
ENDROOT
BRANCH   6   7
ATOM      7  C   UNL     1      -3.615   0.914  25.048  0.00  0.00    +0.100 C 
BRANCH   7   8
ATOM      8  C   UNL     1      -4.347   1.293  25.087  0.00  0.00    -0.003 A 
ATOM      9  C   UNL     1      -4.989   0.997  24.661  0.00  0.00    -0.003 A 
ATOM     10  C   UNL     1      -5.719   1.377  24.700  0.00  0.00    +0.003 A 
ATOM     11  C   UNL     1      -5.809   2.053  25.165  0.00  0.00    +0.037 A 
ATOM     12  C   UNL     1      -5.167   2.349  25.590  0.00  0.00    +0.147 A 
ATOM     18  C   UNL     1      -4.436   1.969  25.551  0.00  0.00    +0.034 A 
BRANCH  12  13
ATOM     13  O   UNL     1      -5.256   3.025  26.054  0.00  0.00    -0.404 OA
BRANCH  13  14
ATOM     14  C   UNL     1      -5.340   3.764  25.695  0.00  0.00    +0.575 C 
ATOM     15  F   UNL     1      -5.424   4.502  25.337  0.00  0.00    -0.133 F 
ATOM     16  F   UNL     1      -4.525   3.880  25.742  0.00  0.00    -0.133 F 
ATOM     17  F   UNL     1      -6.155   3.649  25.649  0.00  0.00    -0.133 F 
ENDBRANCH  13  14
ENDBRANCH  12  13
ENDBRANCH   7   8
ENDBRANCH   6   7
BRANCH  24  25
ATOM     25  C   UNL     1       0.123   0.632  23.306  0.00  0.00    +0.027 C 
BRANCH  25  26
ATOM     26  C   UNL     1       0.670   0.019  23.375  0.00  0.00    +0.088 C 
BRANCH  26  27
ATOM     27  C   UNL     1       1.307  -0.028  22.852  0.00  0.00    +0.242 C 
ATOM     28  O   UNL     1       1.179  -0.240  22.065  0.00  0.00    -0.273 OA
ATOM     29  N   UNL     1       2.070   0.137  23.116  0.00  0.00    -0.200 NA
BRANCH  29  30
ATOM     30  C   UNL     1       2.707   0.090  22.593  0.00  0.00    +0.143 C 
BRANCH  30  31
ATOM     31  C   UNL     1       3.475   0.213  22.866  0.00  0.00    +0.019 A 
ATOM     32  C   UNL     1       3.899  -0.411  23.199  0.00  0.00    +0.001 A 
ATOM     33  C   UNL     1       4.668  -0.290  23.472  0.00  0.00    +0.020 A 
ATOM     34  C   UNL     1       5.013   0.457  23.412  0.00  0.00    +0.099 A 
ATOM     35  N   UNL     1       4.589   1.083  23.079  0.00  0.00    -0.243 NA
ATOM     36  C   UNL     1       3.820   0.960  22.806  0.00  0.00    +0.096 A 
ENDBRANCH  30  31
ENDBRANCH  29  30
ENDBRANCH  26  27
ENDBRANCH  25  26
ENDBRANCH  24  25
TORSDOF 9
ENDMDL
MODEL 2
REMARK VINA RESULT:      -6.5     17.008     18.485
REMARK  Name = 
REMARK  9 active torsions:
REMARK  status: ('A' for Active; 'I' for Inactive)
REMARK    1  A    between atoms: N_6  and  C_7
REMARK    2  A    between atoms: C_7  and  C_8
REMARK    3  A    between atoms: C_12  and  O_13
REMARK    4  A    between atoms: O_13  and  C_14
REMARK    5  A    between atoms: C_24  and  C_25
REMARK    6  A    between atoms: C_25  and  C_26
REMARK    7  A    between atoms: C_26  and  C_27
REMARK    8  A    between atoms: N_29  and  C_30
REMARK    9  A    between atoms: C_30  and  C_31
REMARK                            x       y       z     vdW  Elec       q    Type
REMARK                         _______ _______ _______ _____ _____    ______ ____
ROOT
ATOM      1  C   UNL     1      -5.258  -8.218   9.424  0.00  0.00    +0.090 C 
ATOM      2  N   UNL     1      -5.539  -8.776   9.963  0.00  0.00    -0.271 NA
ATOM      3  C   UNL     1      -4.968  -9.129  10.443  0.00  0.00    +0.083 C 
ATOM      4  C   UNL     1      -4.164  -8.949  10.400  0.00  0.00    +0.035 C 
ATOM      5  C   UNL     1      -3.769  -9.409  10.960  0.00  0.00    +0.074 C 
ATOM      6  N   UNL     1      -4.330  -9.873  11.349  0.00  0.00    -0.262 NA
ATOM     19  C   UNL     1      -5.070  -9.700  11.030  0.00  0.00    +0.151 C 
ATOM     20  C   UNL     1      -5.769 -10.058  11.281  0.00  0.00    +0.257 C 
ATOM     21  O   UNL     1      -5.689 -10.614  11.886  0.00  0.00    -0.272 OA
ATOM     22  N   UNL     1      -6.538  -9.935  11.009  0.00  0.00    -0.203 NA
ATOM     23  C   UNL     1      -6.798  -9.422  10.417  0.00  0.00    +0.131 C 
ATOM     24  C   UNL     1      -6.353  -8.906   9.952  0.00  0.00    +0.080 C 
ENDROOT
BRANCH   6   7
ATOM      7  C   UNL     1      -4.176 -10.415  11.952  0.00  0.00    +0.100 C 
BRANCH   7   8
ATOM      8  C   UNL     1      -3.402 -10.537  12.209  0.00  0.00    -0.003 A 
ATOM      9  C   UNL     1      -2.789 -10.598  11.659  0.00  0.00    -0.003 A 
ATOM     10  C   UNL     1      -2.016 -10.720  11.917  0.00  0.00    +0.003 A 
ATOM     11  C   UNL     1      -1.854 -10.781  12.724  0.00  0.00    +0.037 A 
ATOM     12  C   UNL     1      -2.466 -10.720  13.273  0.00  0.00    +0.147 A 
ATOM     18  C   UNL     1      -3.240 -10.598  13.016  0.00  0.00    +0.034 A 
BRANCH  12  13
ATOM     13  O   UNL     1      -2.305 -10.781  14.080  0.00  0.00    -0.404 OA
BRANCH  13  14
ATOM     14  C   UNL     1      -1.787 -10.247  14.439  0.00  0.00    +0.575 C 
ATOM     15  F   UNL     1      -1.270  -9.714  14.797  0.00  0.00    -0.133 F 
ATOM     16  F   UNL     1      -2.426  -9.771  14.653  0.00  0.00    -0.133 F 
ATOM     17  F   UNL     1      -1.149 -10.723  14.225  0.00  0.00    -0.133 F 
ENDBRANCH  13  14
ENDBRANCH  12  13
ENDBRANCH   7   8
ENDBRANCH   6   7
BRANCH  24  25
ATOM     25  C   UNL     1      -6.779  -8.462   9.402  0.00  0.00    +0.027 C 
BRANCH  25  26
ATOM     26  C   UNL     1      -7.596  -8.380   9.481  0.00  0.00    +0.088 C 
BRANCH  26  27
ATOM     27  C   UNL     1      -8.039  -8.053   8.866  0.00  0.00    +0.242 C 
ATOM     28  O   UNL     1      -8.067  -8.430   8.133  0.00  0.00    -0.273 OA
ATOM     29  N   UNL     1      -8.454  -7.351   8.985  0.00  0.00    -0.200 NA
BRANCH  29  30
ATOM     30  C   UNL     1      -8.898  -7.024   8.371  0.00  0.00    +0.143 C 
BRANCH  30  31
ATOM     31  C   UNL     1      -9.327  -6.331   8.495  0.00  0.00    +0.019 A 
ATOM     32  C   UNL     1     -10.128  -6.370   8.683  0.00  0.00    +0.001 A 
ATOM     33  C   UNL     1     -10.558  -5.676   8.807  0.00  0.00    +0.020 A 
ATOM     34  C   UNL     1     -10.184  -4.943   8.742  0.00  0.00    +0.099 A 
ATOM     35  N   UNL     1      -9.381  -4.904   8.554  0.00  0.00    -0.243 NA
ATOM     36  C   UNL     1      -8.953  -5.598   8.430  0.00  0.00    +0.096 A 
ENDBRANCH  30  31
ENDBRANCH  29  30
ENDBRANCH  26  27
ENDBRANCH  25  26
ENDBRANCH  24  25
TORSDOF 9
ENDMDL
MODEL 3
REMARK VINA RESULT:      -6.1     15.555     17.189
REMARK  Name = 
REMARK  9 active torsions:
REMARK  status: ('A' for Active; 'I' for Inactive)
REMARK    1  A    between atoms: N_6  and  C_7
REMARK    2  A    between atoms: C_7  and  C_8
REMARK    3  A    between atoms: C_12  and  O_13
REMARK    4  A    between atoms: O_13  and  C_14
REMARK    5  A    between atoms: C_24  and  C_25
REMARK    6  A    between atoms: C_25  and  C_26
REMARK    7  A    between atoms: C_26  and  C_27
REMARK    8  A    between atoms: N_29  and  C_30
REMARK    9  A    between atoms: C_30  and  C_31
REMARK                            x       y       z     vdW  Elec       q    Type
REMARK                         _______ _______ _______ _____ _____    ______ ____
ROOT
ATOM      1  C   UNL     1      -7.308 -10.532  13.935  0.00  0.00    +0.090 C 
ATOM      2  N   UNL     1      -6.499 -10.467  14.085  0.00  0.00    -0.271 NA
ATOM      3  C   UNL     1      -6.010 -10.468  13.420  0.00  0.00    +0.083 C 
ATOM      4  C   UNL     1      -6.293 -10.529  12.648  0.00  0.00    +0.035 C 
ATOM      5  C   UNL     1      -5.646 -10.511  12.137  0.00  0.00    +0.074 C 
ATOM      6  N   UNL     1      -4.963 -10.438  12.593  0.00  0.00    -0.262 NA
ATOM     19  C   UNL     1      -5.188 -10.412  13.387  0.00  0.00    +0.151 C 
ATOM     20  C   UNL     1      -4.651 -10.340  14.009  0.00  0.00    +0.257 C 
ATOM     21  O   UNL     1      -3.856 -10.296  13.793  0.00  0.00    -0.272 OA
ATOM     22  N   UNL     1      -4.804 -10.308  14.819  0.00  0.00    -0.203 NA
ATOM     23  C   UNL     1      -5.533 -10.339  15.206  0.00  0.00    +0.131 C 
ATOM     24  C   UNL     1      -6.286 -10.409  14.880  0.00  0.00    +0.080 C 
ENDROOT
BRANCH   6   7
ATOM      7  C   UNL     1      -4.190 -10.399  12.307  0.00  0.00    +0.100 C 
BRANCH   7   8
ATOM      8  C   UNL     1      -4.053 -10.202  11.517  0.00  0.00    -0.003 A 
ATOM      9  C   UNL     1      -3.810 -10.781  10.983  0.00  0.00    -0.003 A 
ATOM     10  C   UNL     1      -3.674 -10.583  10.194  0.00  0.00    +0.003 A 
ATOM     11  C   UNL     1      -3.780  -9.805   9.940  0.00  0.00    +0.037 A 
ATOM     12  C   UNL     1      -4.023  -9.226  10.474  0.00  0.00    +0.147 A 
ATOM     18  C   UNL     1      -4.159  -9.424  11.263  0.00  0.00    +0.034 A 
BRANCH  12  13
ATOM     13  O   UNL     1      -4.129  -8.448  10.220  0.00  0.00    -0.404 OA
BRANCH  13  14
ATOM     14  C   UNL     1      -4.771  -8.256   9.738  0.00  0.00    +0.575 C 
ATOM     15  F   UNL     1      -5.412  -8.063   9.256  0.00  0.00    -0.133 F 
ATOM     16  F   UNL     1      -5.180  -7.972  10.395  0.00  0.00    -0.133 F 
ATOM     17  F   UNL     1      -4.362  -8.540   9.080  0.00  0.00    -0.133 F 
ENDBRANCH  13  14
ENDBRANCH  12  13
ENDBRANCH   7   8
ENDBRANCH   6   7
BRANCH  24  25
ATOM     25  C   UNL     1      -6.911 -10.425  15.419  0.00  0.00    +0.027 C 
BRANCH  25  26
ATOM     26  C   UNL     1      -6.831 -10.058  16.153  0.00  0.00    +0.088 C 
BRANCH  26  27
ATOM     27  C   UNL     1      -7.440 -10.109  16.709  0.00  0.00    +0.242 C 
ATOM     28  O   UNL     1      -7.470 -10.749  17.229  0.00  0.00    -0.273 OA
ATOM     29  N   UNL     1      -8.017  -9.522  16.744  0.00  0.00    -0.200 NA
BRANCH  29  30
ATOM     30  C   UNL     1      -8.625  -9.573  17.299  0.00  0.00    +0.143 C 
BRANCH  30  31
ATOM     31  C   UNL     1      -9.241  -9.025  17.290  0.00  0.00    +0.019 A 
ATOM     32  C   UNL     1     -10.005  -9.259  17.491  0.00  0.00    +0.001 A 
ATOM     33  C   UNL     1     -10.621  -8.710  17.482  0.00  0.00    +0.020 A 
ATOM     34  C   UNL     1     -10.472  -7.926  17.270  0.00  0.00    +0.099 A 
ATOM     35  N   UNL     1      -9.706  -7.692  17.069  0.00  0.00    -0.243 NA
ATOM     36  C   UNL     1      -9.091  -8.241  17.078  0.00  0.00    +0.096 A 
ENDBRANCH  30  31
ENDBRANCH  29  30
ENDBRANCH  26  27
ENDBRANCH  25  26
ENDBRANCH  24  25
TORSDOF 9
ENDMDL
MODEL 4
REMARK VINA RESULT:      -6.1     15.060     16.892
REMARK  Name = 
REMARK  9 active torsions:
REMARK  status: ('A' for Active; 'I' for Inactive)
REMARK    1  A    between atoms: N_6  and  C_7
REMARK    2  A    between atoms: C_7  and  C_8
REMARK    3  A    between atoms: C_12  and  O_13
REMARK    4  A    between atoms: O_13  and  C_14
REMARK    5  A    between atoms: C_24  and  C_25
REMARK    6  A    between atoms: C_25  and  C_26
REMARK    7  A    between atoms: C_26  and  C_27
REMARK    8  A    between atoms: N_29  and  C_30
REMARK    9  A    between atoms: C_30  and  C_31
REMARK                            x       y       z     vdW  Elec       q    Type
REMARK                         _______ _______ _______ _____ _____    ______ ____
ROOT
ATOM      1  C   UNL     1      -6.449 -10.178  13.956  0.00  0.00    +0.090 C 
ATOM      2  N   UNL     1      -5.726 -10.328  14.325  0.00  0.00    -0.271 NA
ATOM      3  C   UNL     1      -5.071 -10.374  13.825  0.00  0.00    +0.083 C 
ATOM      4  C   UNL     1      -5.117 -10.279  13.006  0.00  0.00    +0.035 C 
ATOM      5  C   UNL     1      -4.356 -10.362  12.697  0.00  0.00    +0.074 C 
ATOM      6  N   UNL     1      -3.840 -10.507  13.325  0.00  0.00    -0.262 NA
ATOM     19  C   UNL     1      -4.282 -10.515  14.022  0.00  0.00    +0.151 C 
ATOM     20  C   UNL     1      -3.954 -10.644  14.767  0.00  0.00    +0.257 C 
ATOM     21  O   UNL     1      -3.138 -10.770  14.782  0.00  0.00    -0.272 OA
ATOM     22  N   UNL     1      -4.332 -10.665  15.499  0.00  0.00    -0.203 NA
ATOM     23  C   UNL     1      -5.133 -10.561  15.667  0.00  0.00    +0.131 C 
ATOM     24  C   UNL     1      -5.753 -10.411  15.145  0.00  0.00    +0.080 C 
ENDROOT
BRANCH   6   7
ATOM      7  C   UNL     1      -3.026 -10.625  13.266  0.00  0.00    +0.100 C 
BRANCH   7   8
ATOM      8  C   UNL     1      -2.636 -10.457  12.558  0.00  0.00    -0.003 A 
ATOM      9  C   UNL     1      -2.907 -10.780  11.850  0.00  0.00    -0.003 A 
ATOM     10  C   UNL     1      -2.517 -10.611  11.144  0.00  0.00    +0.003 A 
ATOM     11  C   UNL     1      -1.854 -10.119  11.146  0.00  0.00    +0.037 A 
ATOM     12  C   UNL     1      -1.583  -9.796  11.854  0.00  0.00    +0.147 A 
ATOM     18  C   UNL     1      -1.973  -9.965  12.561  0.00  0.00    +0.034 A 
BRANCH  12  13
ATOM     13  O   UNL     1      -0.920  -9.304  11.856  0.00  0.00    -0.404 OA
BRANCH  13  14
ATOM     14  C   UNL     1      -0.654  -8.968  11.151  0.00  0.00    +0.575 C 
ATOM     15  F   UNL     1      -0.387  -8.633  10.446  0.00  0.00    -0.133 F 
ATOM     16  F   UNL     1      -1.259  -8.409  11.188  0.00  0.00    -0.133 F 
ATOM     17  F   UNL     1      -0.048  -9.527  11.114  0.00  0.00    -0.133 F 
ENDBRANCH  13  14
ENDBRANCH  12  13
ENDBRANCH   7   8
ENDBRANCH   6   7
BRANCH  24  25
ATOM     25  C   UNL     1      -6.500 -10.334  15.487  0.00  0.00    +0.027 C 
BRANCH  25  26
ATOM     26  C   UNL     1      -6.574 -10.056  16.260  0.00  0.00    +0.088 C 
BRANCH  26  27
ATOM     27  C   UNL     1      -7.307 -10.075  16.638  0.00  0.00    +0.242 C 
ATOM     28  O   UNL     1      -7.514 -10.724  17.104  0.00  0.00    -0.273 OA
ATOM     29  N   UNL     1      -7.833  -9.446  16.551  0.00  0.00    -0.200 NA
BRANCH  29  30
ATOM     30  C   UNL     1      -8.566  -9.465  16.929  0.00  0.00    +0.143 C 
BRANCH  30  31
ATOM     31  C   UNL     1      -9.095  -8.839  16.836  0.00  0.00    +0.019 A 
ATOM     32  C   UNL     1      -9.450  -8.704  16.104  0.00  0.00    +0.001 A 
ATOM     33  C   UNL     1      -9.979  -8.077  16.011  0.00  0.00    +0.020 A 
ATOM     34  C   UNL     1     -10.152  -7.586  16.651  0.00  0.00    +0.099 A 
ATOM     35  N   UNL     1      -9.797  -7.722  17.384  0.00  0.00    -0.243 NA
ATOM     36  C   UNL     1      -9.268  -8.348  17.476  0.00  0.00    +0.096 A 
ENDBRANCH  30  31
ENDBRANCH  29  30
ENDBRANCH  26  27
ENDBRANCH  25  26
ENDBRANCH  24  25
TORSDOF 9
ENDMDL
MODEL 5
REMARK VINA RESULT:      -6.1     15.198     15.862
REMARK  Name = 
REMARK  9 active torsions:
REMARK  status: ('A' for Active; 'I' for Inactive)
REMARK    1  A    between atoms: N_6  and  C_7
REMARK    2  A    between atoms: C_7  and  C_8
REMARK    3  A    between atoms: C_12  and  O_13
REMARK    4  A    between atoms: O_13  and  C_14
REMARK    5  A    between atoms: C_24  and  C_25
REMARK    6  A    between atoms: C_25  and  C_26
REMARK    7  A    between atoms: C_26  and  C_27
REMARK    8  A    between atoms: N_29  and  C_30
REMARK    9  A    between atoms: C_30  and  C_31
REMARK                            x       y       z     vdW  Elec       q    Type
REMARK                         _______ _______ _______ _____ _____    ______ ____
ROOT
ATOM      1  C   UNL     1      -5.642  -9.806  15.349  0.00  0.00    +0.090 C 
ATOM      2  N   UNL     1      -6.358 -10.076  15.040  0.00  0.00    -0.271 NA
ATOM      3  C   UNL     1      -6.999 -10.064  15.559  0.00  0.00    +0.083 C 
ATOM      4  C   UNL     1      -6.947  -9.803  16.340  0.00  0.00    +0.035 C 
ATOM      5  C   UNL     1      -7.694  -9.873  16.683  0.00  0.00    +0.074 C 
ATOM      6  N   UNL     1      -8.208 -10.178  16.114  0.00  0.00    -0.262 NA
ATOM     19  C   UNL     1      -7.779 -10.296  15.419  0.00  0.00    +0.151 C 
ATOM     20  C   UNL     1      -8.109 -10.596  14.726  0.00  0.00    +0.257 C 
ATOM     21  O   UNL     1      -8.914 -10.778  14.762  0.00  0.00    -0.272 OA
ATOM     22  N   UNL     1      -7.743 -10.740  14.001  0.00  0.00    -0.203 NA
ATOM     23  C   UNL     1      -6.954 -10.617  13.791  0.00  0.00    +0.131 C 
ATOM     24  C   UNL     1      -6.338 -10.322  14.253  0.00  0.00    +0.080 C 
ENDROOT
BRANCH   6   7
ATOM      7  C   UNL     1      -9.011 -10.336  16.221  0.00  0.00    +0.100 C 
BRANCH   7   8
ATOM      8  C   UNL     1      -9.409 -10.025  16.873  0.00  0.00    -0.003 A 
ATOM      9  C   UNL     1      -9.357 -10.399  17.606  0.00  0.00    -0.003 A 
ATOM     10  C   UNL     1      -9.755 -10.087  18.257  0.00  0.00    +0.003 A 
ATOM     11  C   UNL     1     -10.205  -9.400  18.175  0.00  0.00    +0.037 A 
ATOM     12  C   UNL     1     -10.257  -9.026  17.442  0.00  0.00    +0.147 A 
ATOM     18  C   UNL     1      -9.859  -9.338  16.791  0.00  0.00    +0.034 A 
BRANCH  12  13
ATOM     13  O   UNL     1     -10.707  -8.339  17.361  0.00  0.00    -0.404 OA
BRANCH  13  14
ATOM     14  C   UNL     1     -10.361  -7.652  17.061  0.00  0.00    +0.575 C 
ATOM     15  F   UNL     1     -10.015  -6.966  16.762  0.00  0.00    -0.133 F 
ATOM     16  F   UNL     1     -10.002  -7.514  17.791  0.00  0.00    -0.133 F 
ATOM     17  F   UNL     1     -10.720  -7.790  16.331  0.00  0.00    -0.133 F 
ENDBRANCH  13  14
ENDBRANCH  12  13
ENDBRANCH   7   8
ENDBRANCH   6   7
BRANCH  24  25
ATOM     25  C   UNL     1      -5.605 -10.266  13.879  0.00  0.00    +0.027 C 
BRANCH  25  26
ATOM     26  C   UNL     1      -5.537 -10.436  13.075  0.00  0.00    +0.088 C 
BRANCH  26  27
ATOM     27  C   UNL     1      -4.811 -10.342  12.693  0.00  0.00    +0.242 C 
ATOM     28  O   UNL     1      -4.108 -10.461  13.108  0.00  0.00    -0.273 OA
ATOM     29  N   UNL     1      -4.789 -10.129  11.897  0.00  0.00    -0.200 NA
BRANCH  29  30
ATOM     30  C   UNL     1      -4.063 -10.035  11.515  0.00  0.00    +0.143 C 
BRANCH  30  31
ATOM     31  C   UNL     1      -4.041  -9.835  10.715  0.00  0.00    +0.019 A 
ATOM     32  C   UNL     1      -3.955  -9.047  10.489  0.00  0.00    +0.001 A 
ATOM     33  C   UNL     1      -3.932  -8.847   9.689  0.00  0.00    +0.020 A 
ATOM     34  C   UNL     1      -3.995  -9.436   9.115  0.00  0.00    +0.099 A 
ATOM     35  N   UNL     1      -4.081 -10.225   9.341  0.00  0.00    -0.243 NA
ATOM     36  C   UNL     1      -4.104 -10.424  10.141  0.00  0.00    +0.096 A 
ENDBRANCH  30  31
ENDBRANCH  29  30
ENDBRANCH  26  27
ENDBRANCH  25  26
ENDBRANCH  24  25
TORSDOF 9
ENDMDL
MODEL 6
REMARK VINA RESULT:      -6.0     16.583     17.665
REMARK  Name = 
REMARK  9 active torsions:
REMARK  status: ('A' for Active; 'I' for Inactive)
REMARK    1  A    between atoms: N_6  and  C_7
REMARK    2  A    between atoms: C_7  and  C_8
REMARK    3  A    between atoms: C_12  and  O_13
REMARK    4  A    between atoms: O_13  and  C_14
REMARK    5  A    between atoms: C_24  and  C_25
REMARK    6  A    between atoms: C_25  and  C_26
REMARK    7  A    between atoms: C_26  and  C_27
REMARK    8  A    between atoms: N_29  and  C_30
REMARK    9  A    between atoms: C_30  and  C_31
REMARK                            x       y       z     vdW  Elec       q    Type
REMARK                         _______ _______ _______ _____ _____    ______ ____
ROOT
ATOM      1  C   UNL     1      -6.210  -8.682  10.602  0.00  0.00    +0.090 C 
ATOM      2  N   UNL     1      -6.743  -9.095  11.078  0.00  0.00    -0.271 NA
ATOM      3  C   UNL     1      -6.438  -9.389  11.786  0.00  0.00    +0.083 C 
ATOM      4  C   UNL     1      -5.653  -9.287  12.020  0.00  0.00    +0.035 C 
ATOM      5  C   UNL     1      -5.556  -9.655  12.752  0.00  0.00    +0.074 C 
ATOM      6  N   UNL     1      -6.280  -9.984  12.971  0.00  0.00    -0.262 NA
ATOM     19  C   UNL     1      -6.826  -9.820  12.373  0.00  0.00    +0.151 C 
ATOM     20  C   UNL     1      -7.613 -10.063  12.397  0.00  0.00    +0.257 C 
ATOM     21  O   UNL     1      -7.836 -10.490  13.067  0.00  0.00    -0.272 OA
ATOM     22  N   UNL     1      -8.208  -9.935  11.841  0.00  0.00    -0.203 NA
ATOM     23  C   UNL     1      -8.162  -9.533  11.121  0.00  0.00    +0.131 C 
ATOM     24  C   UNL     1      -7.510  -9.159  10.782  0.00  0.00    +0.080 C 
ENDROOT
BRANCH   6   7
ATOM      7  C   UNL     1      -6.433 -10.404  13.664  0.00  0.00    +0.100 C 
BRANCH   7   8
ATOM      8  C   UNL     1      -5.915 -10.344  14.304  0.00  0.00    -0.003 A 
ATOM      9  C   UNL     1      -5.213 -10.778  14.309  0.00  0.00    -0.003 A 
ATOM     10  C   UNL     1      -4.697 -10.718  14.949  0.00  0.00    +0.003 A 
ATOM     11  C   UNL     1      -4.881 -10.224  15.583  0.00  0.00    +0.037 A 
ATOM     12  C   UNL     1      -5.583  -9.790  15.578  0.00  0.00    +0.147 A 
ATOM     18  C   UNL     1      -6.100  -9.850  14.939  0.00  0.00    +0.034 A 
BRANCH  12  13
ATOM     13  O   UNL     1      -5.768  -9.296  16.213  0.00  0.00    -0.404 OA
BRANCH  13  14
ATOM     14  C   UNL     1      -6.252  -9.571  16.822  0.00  0.00    +0.575 C 
ATOM     15  F   UNL     1      -6.736  -9.846  17.431  0.00  0.00    -0.133 F 
ATOM     16  F   UNL     1      -5.647 -10.069  17.079  0.00  0.00    -0.133 F 
ATOM     17  F   UNL     1      -6.857  -9.074  16.565  0.00  0.00    -0.133 F 
ENDBRANCH  13  14
ENDBRANCH  12  13
ENDBRANCH   7   8
ENDBRANCH   6   7
BRANCH  24  25
ATOM     25  C   UNL     1      -7.643  -8.802  10.050  0.00  0.00    +0.027 C 
BRANCH  25  26
ATOM     26  C   UNL     1      -8.412  -8.711   9.768  0.00  0.00    +0.088 C 
BRANCH  26  27
ATOM     27  C   UNL     1      -8.553  -8.259   9.092  0.00  0.00    +0.242 C 
ATOM     28  O   UNL     1      -8.428  -8.585   8.345  0.00  0.00    -0.273 OA
ATOM     29  N   UNL     1      -8.820  -7.482   9.163  0.00  0.00    -0.200 NA
BRANCH  29  30
ATOM     30  C   UNL     1      -8.962  -7.030   8.487  0.00  0.00    +0.143 C 
BRANCH  30  31
ATOM     31  C   UNL     1      -9.218  -6.250   8.559  0.00  0.00    +0.019 A 
ATOM     32  C   UNL     1     -10.013  -6.088   8.701  0.00  0.00    +0.001 A 
ATOM     33  C   UNL     1     -10.270  -5.307   8.773  0.00  0.00    +0.020 A 
ATOM     34  C   UNL     1      -9.730  -4.688   8.701  0.00  0.00    +0.099 A 
ATOM     35  N   UNL     1      -8.933  -4.849   8.558  0.00  0.00    -0.243 NA
ATOM     36  C   UNL     1      -8.678  -5.631   8.487  0.00  0.00    +0.096 A 
ENDBRANCH  30  31
ENDBRANCH  29  30
ENDBRANCH  26  27
ENDBRANCH  25  26
ENDBRANCH  24  25
TORSDOF 9
ENDMDL
MODEL 7
REMARK VINA RESULT:      -5.9     14.221     14.854
REMARK  Name = 
REMARK  9 active torsions:
REMARK  status: ('A' for Active; 'I' for Inactive)
REMARK    1  A    between atoms: N_6  and  C_7
REMARK    2  A    between atoms: C_7  and  C_8
REMARK    3  A    between atoms: C_12  and  O_13
REMARK    4  A    between atoms: O_13  and  C_14
REMARK    5  A    between atoms: C_24  and  C_25
REMARK    6  A    between atoms: C_25  and  C_26
REMARK    7  A    between atoms: C_26  and  C_27
REMARK    8  A    between atoms: N_29  and  C_30
REMARK    9  A    between atoms: C_30  and  C_31
REMARK                            x       y       z     vdW  Elec       q    Type
REMARK                         _______ _______ _______ _____ _____    ______ ____
ROOT
ATOM      1  C   UNL     1      -5.174  -9.875  16.981  0.00  0.00    +0.090 C 
ATOM      2  N   UNL     1      -5.745 -10.016  16.403  0.00  0.00    -0.271 NA
ATOM      3  C   UNL     1      -6.529  -9.918  16.642  0.00  0.00    +0.083 C 
ATOM      4  C   UNL     1      -6.746  -9.694  17.406  0.00  0.00    +0.035 C 
ATOM      5  C   UNL     1      -7.570  -9.655  17.435  0.00  0.00    +0.074 C 
ATOM      6  N   UNL     1      -7.861  -9.854  16.690  0.00  0.00    -0.262 NA
ATOM     19  C   UNL     1      -7.218 -10.017  16.199  0.00  0.00    +0.151 C 
ATOM     20  C   UNL     1      -7.294 -10.237  15.409  0.00  0.00    +0.257 C 
ATOM     21  O   UNL     1      -8.066 -10.289  15.123  0.00  0.00    -0.272 OA
ATOM     22  N   UNL     1      -6.699 -10.414  14.864  0.00  0.00    -0.203 NA
ATOM     23  C   UNL     1      -5.882 -10.413  14.978  0.00  0.00    +0.131 C 
ATOM     24  C   UNL     1      -5.457 -10.236  15.662  0.00  0.00    +0.080 C 
ENDROOT
BRANCH   6   7
ATOM      7  C   UNL     1      -8.657  -9.885  16.472  0.00  0.00    +0.100 C 
BRANCH   7   8
ATOM      8  C   UNL     1      -9.215  -9.445  16.890  0.00  0.00    -0.003 A 
ATOM      9  C   UNL     1      -9.781  -9.828  17.353  0.00  0.00    -0.003 A 
ATOM     10  C   UNL     1     -10.338  -9.387  17.771  0.00  0.00    +0.003 A 
ATOM     11  C   UNL     1     -10.331  -8.563  17.726  0.00  0.00    +0.037 A 
ATOM     12  C   UNL     1      -9.766  -8.180  17.263  0.00  0.00    +0.147 A 
ATOM     18  C   UNL     1      -9.208  -8.621  16.845  0.00  0.00    +0.034 A 
BRANCH  12  13
ATOM     13  O   UNL     1      -9.758  -7.356  17.218  0.00  0.00    -0.404 OA
BRANCH  13  14
ATOM     14  C   UNL     1     -10.238  -6.969  16.669  0.00  0.00    +0.575 C 
ATOM     15  F   UNL     1     -10.718  -6.582  16.122  0.00  0.00    -0.133 F 
ATOM     16  F   UNL     1      -9.759  -7.242  16.056  0.00  0.00    -0.133 F 
ATOM     17  F   UNL     1     -10.718  -6.695  17.282  0.00  0.00    -0.133 F 
ENDBRANCH  13  14
ENDBRANCH  12  13
ENDBRANCH   7   8
ENDBRANCH   6   7
BRANCH  24  25
ATOM     25  C   UNL     1      -4.636 -10.286  15.598  0.00  0.00    +0.027 C 
BRANCH  25  26
ATOM     26  C   UNL     1      -4.295 -10.781  15.034  0.00  0.00    +0.088 C 
BRANCH  26  27
ATOM     27  C   UNL     1      -3.533 -10.628  14.756  0.00  0.00    +0.242 C 
ATOM     28  O   UNL     1      -2.911 -10.538  15.290  0.00  0.00    -0.273 OA
ATOM     29  N   UNL     1      -3.394 -10.565  13.946  0.00  0.00    -0.200 NA
BRANCH  29  30
ATOM     30  C   UNL     1      -2.632 -10.413  13.668  0.00  0.00    +0.143 C 
BRANCH  30  31
ATOM     31  C   UNL     1      -2.478 -10.421  12.859  0.00  0.00    +0.019 A 
ATOM     32  C   UNL     1      -3.096 -10.525  12.322  0.00  0.00    +0.001 A 
ATOM     33  C   UNL     1      -2.942 -10.534  11.512  0.00  0.00    +0.020 A 
ATOM     34  C   UNL     1      -2.170 -10.438  11.238  0.00  0.00    +0.099 A 
ATOM     35  N   UNL     1      -1.551 -10.334  11.774  0.00  0.00    -0.243 NA
ATOM     36  C   UNL     1      -1.706 -10.325  12.584  0.00  0.00    +0.096 A 
ENDBRANCH  30  31
ENDBRANCH  29  30
ENDBRANCH  26  27
ENDBRANCH  25  26
ENDBRANCH  24  25
TORSDOF 9
ENDMDL
MODEL 8
REMARK VINA RESULT:      -5.7     15.457     16.055
REMARK  Name = 
REMARK  9 active torsions:
REMARK  status: ('A' for Active; 'I' for Inactive)
REMARK    1  A    between atoms: N_6  and  C_7
REMARK    2  A    between atoms: C_7  and  C_8
REMARK    3  A    between atoms: C_12  and  O_13
REMARK    4  A    between atoms: O_13  and  C_14
REMARK    5  A    between atoms: C_24  and  C_25
REMARK    6  A    between atoms: C_25  and  C_26
REMARK    7  A    between atoms: C_26  and  C_27
REMARK    8  A    between atoms: N_29  and  C_30
REMARK    9  A    between atoms: C_30  and  C_31
REMARK                            x       y       z     vdW  Elec       q    Type
REMARK                         _______ _______ _______ _____ _____    ______ ____
ROOT
ATOM      1  C   UNL     1      -5.795 -10.313  13.973  0.00  0.00    +0.090 C 
ATOM      2  N   UNL     1      -6.472 -10.102  13.552  0.00  0.00    -0.271 NA
ATOM      3  C   UNL     1      -7.161 -10.020  13.999  0.00  0.00    +0.083 C 
ATOM      4  C   UNL     1      -7.190 -10.138  14.815  0.00  0.00    +0.035 C 
ATOM      5  C   UNL     1      -7.965 -10.007  15.064  0.00  0.00    +0.074 C 
ATOM      6  N   UNL     1      -8.416  -9.809  14.402  0.00  0.00    -0.262 NA
ATOM     19  C   UNL     1      -7.919  -9.817  13.744  0.00  0.00    +0.151 C 
ATOM     20  C   UNL     1      -8.175  -9.646  12.979  0.00  0.00    +0.257 C 
ATOM     21  O   UNL     1      -8.975  -9.460  12.902  0.00  0.00    -0.272 OA
ATOM     22  N   UNL     1      -7.737  -9.635  12.280  0.00  0.00    -0.203 NA
ATOM     23  C   UNL     1      -6.934  -9.793  12.174  0.00  0.00    +0.131 C 
ATOM     24  C   UNL     1      -6.372 -10.001  12.739  0.00  0.00    +0.080 C 
ENDROOT
BRANCH   6   7
ATOM      7  C   UNL     1      -9.222  -9.633  14.399  0.00  0.00    +0.100 C 
BRANCH   7   8
ATOM      8  C   UNL     1      -9.639  -9.601  15.110  0.00  0.00    -0.003 A 
ATOM      9  C   UNL     1      -9.872 -10.298  15.485  0.00  0.00    -0.003 A 
ATOM     10  C   UNL     1     -10.289 -10.264  16.196  0.00  0.00    +0.003 A 
ATOM     11  C   UNL     1     -10.473  -9.534  16.532  0.00  0.00    +0.037 A 
ATOM     12  C   UNL     1     -10.240  -8.837  16.157  0.00  0.00    +0.147 A 
ATOM     18  C   UNL     1      -9.823  -8.870  15.447  0.00  0.00    +0.034 A 
BRANCH  12  13
ATOM     13  O   UNL     1     -10.424  -8.106  16.494  0.00  0.00    -0.404 OA
BRANCH  13  14
ATOM     14  C   UNL     1      -9.989  -7.827  17.137  0.00  0.00    +0.575 C 
ATOM     15  F   UNL     1      -9.555  -7.548  17.780  0.00  0.00    -0.133 F 
ATOM     16  F   UNL     1      -9.499  -7.406  16.624  0.00  0.00    -0.133 F 
ATOM     17  F   UNL     1     -10.479  -8.247  17.650  0.00  0.00    -0.133 F 
ENDBRANCH  13  14
ENDBRANCH  12  13
ENDBRANCH   7   8
ENDBRANCH   6   7
BRANCH  24  25
ATOM     25  C   UNL     1      -5.607 -10.124  12.456  0.00  0.00    +0.027 C 
BRANCH  25  26
ATOM     26  C   UNL     1      -5.385  -9.823  11.721  0.00  0.00    +0.088 C 
BRANCH  26  27
ATOM     27  C   UNL     1      -4.747 -10.153  11.314  0.00  0.00    +0.242 C 
ATOM     28  O   UNL     1      -4.872 -10.781  10.794  0.00  0.00    -0.273 OA
ATOM     29  N   UNL     1      -3.987  -9.856  11.427  0.00  0.00    -0.200 NA
BRANCH  29  30
ATOM     30  C   UNL     1      -3.349 -10.187  11.020  0.00  0.00    +0.143 C 
BRANCH  30  31
ATOM     31  C   UNL     1      -2.584  -9.916  11.162  0.00  0.00    +0.019 A 
ATOM     32  C   UNL     1      -2.278  -9.291  10.721  0.00  0.00    +0.001 A 
ATOM     33  C   UNL     1      -1.511  -9.021  10.863  0.00  0.00    +0.020 A 
ATOM     34  C   UNL     1      -1.051  -9.376  11.448  0.00  0.00    +0.099 A 
ATOM     35  N   UNL     1      -1.357 -10.002  11.890  0.00  0.00    -0.243 NA
ATOM     36  C   UNL     1      -2.123 -10.272  11.747  0.00  0.00    +0.096 A 
ENDBRANCH  30  31
ENDBRANCH  29  30
ENDBRANCH  26  27
ENDBRANCH  25  26
ENDBRANCH  24  25
TORSDOF 9
ENDMDL
