MODEL 1
REMARK VINA RESULT:     -13.3      0.000      0.000
REMARK  Name = 
REMARK  3 active torsions:
REMARK  status: ('A' for Active; 'I' for Inactive)
REMARK    1  A    between atoms: C_7  and  C_9
REMARK    2  A    between atoms: N_12  and  C_13
REMARK    3  A    between atoms: C_13  and  C_14
REMARK                            x       y       z     vdW  Elec       q    Type
REMARK                         _______ _______ _______ _____ _____    ______ ____
ROOT
ATOM      9  C   UNL     1      -4.385   1.143  24.770  0.00  0.00    +0.094 C 
ATOM     10  C   UNL     1      -5.103   1.478  25.001  0.00  0.00    +0.028 C 
ATOM     11  C   UNL     1      -5.046   2.296  24.911  0.00  0.00    +0.073 C 
ATOM     12  N   UNL     1      -4.291   2.467  24.624  0.00  0.00    -0.268 NA
ATOM     21  C   UNL     1      -3.884   1.755  24.537  0.00  0.00    +0.082 C 
ENDROOT
BRANCH   9   7
ATOM      1  C   UNL     1      -3.774  -3.065  24.030  0.00  0.00    +0.031 C 
ATOM      2  C   UNL     1      -3.767  -2.330  24.403  0.00  0.00    -0.020 A 
ATOM      3  C   UNL     1      -4.091  -1.673  24.026  0.00  0.00    +0.018 A 
ATOM      4  C   UNL     1      -4.085  -0.937  24.400  0.00  0.00    +0.118 A 
ATOM      5  C   UNL     1      -3.754  -0.859  25.151  0.00  0.00    +0.164 A 
ATOM      6  O   UNL     1      -3.826  -0.071  25.382  0.00  0.00    -0.438 OA
ATOM      7  C   UNL     1      -4.202   0.339  24.773  0.00  0.00    +0.207 A 
ATOM      8  N   UNL     1      -4.361  -0.197  24.166  0.00  0.00    -0.212 NA
ATOM     22  C   UNL     1      -3.430  -1.518  25.530  0.00  0.00    +0.039 A 
ATOM     23  C   UNL     1      -3.436  -2.253  25.155  0.00  0.00    -0.001 A 
ENDBRANCH   9   7
BRANCH  12  13
ATOM     13  C   UNL     1      -3.996   3.218  24.453  0.00  0.00    +0.099 C 
BRANCH  13  14
ATOM     14  C   UNL     1      -3.446   3.570  24.958  0.00  0.00    -0.005 A 
ATOM     15  C   UNL     1      -3.688   3.868  25.689  0.00  0.00    -0.003 A 
ATOM     16  C   UNL     1      -3.137   4.219  26.192  0.00  0.00    +0.001 A 
ATOM     17  C   UNL     1      -2.346   4.274  25.966  0.00  0.00    +0.011 A 
ATOM     18  C   UNL     1      -2.105   3.977  25.235  0.00  0.00    +0.057 A 
ATOM     19 CL   UNL     1      -1.314   4.031  25.008  0.00  0.00    -0.082 Cl
ATOM     20  C   UNL     1      -2.655   3.625  24.730  0.00  0.00    +0.008 A 
ENDBRANCH  13  14
ENDBRANCH  12  13
TORSDOF 3
ENDMDL
MODEL 2
REMARK VINA RESULT:     -12.7      1.907      5.128
REMARK  Name = 
REMARK  3 active torsions:
REMARK  status: ('A' for Active; 'I' for Inactive)
REMARK    1  A    between atoms: C_7  and  C_9
REMARK    2  A    between atoms: N_12  and  C_13
REMARK    3  A    between atoms: C_13  and  C_14
REMARK                            x       y       z     vdW  Elec       q    Type
REMARK                         _______ _______ _______ _____ _____    ______ ____
ROOT
ATOM      9  C   UNL     1      -3.186   1.644  24.357  0.00  0.00    +0.094 C 
ATOM     10  C   UNL     1      -3.176   1.296  23.609  0.00  0.00    +0.028 C 
ATOM     11  C   UNL     1      -3.617   0.600  23.644  0.00  0.00    +0.073 C 
ATOM     12  N   UNL     1      -3.901   0.517  24.415  0.00  0.00    -0.268 NA
ATOM     21  C   UNL     1      -3.634   1.163  24.855  0.00  0.00    +0.082 C 
ENDROOT
BRANCH   9   7
ATOM      1  C   UNL     1      -0.616   5.052  24.998  0.00  0.00    +0.031 C 
ATOM      2  C   UNL     1      -1.267   4.548  25.039  0.00  0.00    -0.020 A 
ATOM      3  C   UNL     1      -1.260   3.832  24.631  0.00  0.00    +0.018 A 
ATOM      4  C   UNL     1      -1.912   3.327  24.671  0.00  0.00    +0.118 A 
ATOM      5  C   UNL     1      -2.570   3.539  25.120  0.00  0.00    +0.164 A 
ATOM      6  O   UNL     1      -3.128   2.935  25.057  0.00  0.00    -0.438 OA
ATOM      7  C   UNL     1      -2.814   2.349  24.569  0.00  0.00    +0.207 A 
ATOM      8  N   UNL     1      -2.063   2.591  24.331  0.00  0.00    -0.212 NA
ATOM     22  C   UNL     1      -2.578   4.256  25.529  0.00  0.00    +0.039 A 
ATOM     23  C   UNL     1      -1.926   4.760  25.488  0.00  0.00    -0.001 A 
ENDBRANCH   9   7
BRANCH  12  13
ATOM     13  C   UNL     1      -4.369  -0.101  24.696  0.00  0.00    +0.099 C 
BRANCH  13  14
ATOM     14  C   UNL     1      -4.032  -0.840  24.843  0.00  0.00    -0.005 A 
ATOM     15  C   UNL     1      -3.614  -0.971  25.543  0.00  0.00    -0.003 A 
ATOM     16  C   UNL     1      -3.278  -1.709  25.690  0.00  0.00    +0.001 A 
ATOM     17  C   UNL     1      -3.358  -2.317  25.138  0.00  0.00    +0.011 A 
ATOM     18  C   UNL     1      -3.776  -2.186  24.438  0.00  0.00    +0.057 A 
ATOM     19 CL   UNL     1      -3.857  -2.793  23.887  0.00  0.00    -0.082 Cl
ATOM     20  C   UNL     1      -4.113  -1.447  24.291  0.00  0.00    +0.008 A 
ENDBRANCH  13  14
ENDBRANCH  12  13
TORSDOF 3
ENDMDL
MODEL 3
REMARK VINA RESULT:     -12.5      1.779      2.372
REMARK  Name = 
REMARK  3 active torsions:
REMARK  status: ('A' for Active; 'I' for Inactive)
REMARK    1  A    between atoms: C_7  and  C_9
REMARK    2  A    between atoms: N_12  and  C_13
REMARK    3  A    between atoms: C_13  and  C_14
REMARK                            x       y       z     vdW  Elec       q    Type
REMARK                         _______ _______ _______ _____ _____    ______ ____
ROOT
ATOM      9  C   UNL     1      -1.583   0.806  24.722  0.00  0.00    +0.094 C 
ATOM     10  C   UNL     1      -0.934   0.982  24.244  0.00  0.00    +0.028 C 
ATOM     11  C   UNL     1      -0.551   1.640  24.563  0.00  0.00    +0.073 C 
ATOM     12  N   UNL     1      -0.965   1.872  25.238  0.00  0.00    -0.268 NA
ATOM     21  C   UNL     1      -1.602   1.357  25.336  0.00  0.00    +0.082 C 
ENDROOT
BRANCH   9   7
ATOM      1  C   UNL     1      -3.771  -2.900  24.400  0.00  0.00    +0.031 C 
ATOM      2  C   UNL     1      -3.588  -2.097  24.364  0.00  0.00    -0.020 A 
ATOM      3  C   UNL     1      -2.844  -1.833  24.601  0.00  0.00    +0.018 A 
ATOM      4  C   UNL     1      -2.661  -1.029  24.565  0.00  0.00    +0.118 A 
ATOM      5  C   UNL     1      -3.222  -0.490  24.291  0.00  0.00    +0.164 A 
ATOM      6  O   UNL     1      -2.887   0.263  24.317  0.00  0.00    -0.438 OA
ATOM      7  C   UNL     1      -2.118   0.190  24.606  0.00  0.00    +0.207 A 
ATOM      8  N   UNL     1      -1.979  -0.609  24.759  0.00  0.00    -0.212 NA
ATOM     22  C   UNL     1      -3.967  -0.755  24.054  0.00  0.00    +0.039 A 
ATOM     23  C   UNL     1      -4.150  -1.559  24.090  0.00  0.00    -0.001 A 
ENDBRANCH   9   7
BRANCH  12  13
ATOM     13  C   UNL     1      -0.775   2.507  25.728  0.00  0.00    +0.099 C 
BRANCH  13  14
ATOM     14  C   UNL     1      -1.089   3.255  25.577  0.00  0.00    -0.005 A 
ATOM     15  C   UNL     1      -0.672   3.790  25.107  0.00  0.00    -0.003 A 
ATOM     16  C   UNL     1      -0.987   4.537  24.956  0.00  0.00    +0.001 A 
ATOM     17  C   UNL     1      -1.718   4.750  25.273  0.00  0.00    +0.011 A 
ATOM     18  C   UNL     1      -2.135   4.214  25.743  0.00  0.00    +0.057 A 
ATOM     19 CL   UNL     1      -2.866   4.426  26.060  0.00  0.00    -0.082 Cl
ATOM     20  C   UNL     1      -1.821   3.466  25.895  0.00  0.00    +0.008 A 
ENDBRANCH  13  14
ENDBRANCH  12  13
TORSDOF 3
ENDMDL
