MODEL 1
REMARK VINA RESULT:     -14.9      0.000      0.000
REMARK  Name = 
REMARK  5 active torsions:
REMARK  status: ('A' for Active; 'I' for Inactive)
REMARK    1  A    between atoms: O_2  and  C_3
REMARK    2  A    between atoms: C_6  and  C_9
REMARK    3  A    between atoms: C_20  and  N_21
REMARK    4  A    between atoms: N_21  and  S_22
REMARK    5  A    between atoms: S_22  and  C_25
REMARK                            x       y       z     vdW  Elec       q    Type
REMARK                         _______ _______ _______ _____ _____    ______ ____
ROOT
ATOM      9  C   UNL     1      -3.116  -1.117  25.941  0.00  0.00    +0.249 C 
ATOM     10  O   UNL     1      -2.896  -1.458  26.713  0.00  0.00    -0.270 OA
ATOM     11  N   UNL     1      -3.322  -1.800  25.506  0.00  0.00    -0.276 N 
ATOM     12  C   UNL     1      -3.414  -2.629  25.457  0.00  0.00    +0.096 C 
ATOM     13  C   UNL     1      -3.726  -2.706  24.522  0.00  0.00    +0.043 C 
ATOM     14  C   UNL     1      -3.987  -2.936  23.786  0.00  0.00    +0.011 C 
ATOM     15  C   UNL     1      -3.825  -2.338  24.115  0.00  0.00    +0.058 C 
ATOM     16  C   UNL     1      -3.524  -2.280  25.020  0.00  0.00    +0.099 C 
ATOM     17  C   UNL     1      -3.784  -1.429  23.982  0.00  0.00    +0.041 A 
ATOM     18  C   UNL     1      -3.921  -0.861  23.400  0.00  0.00    +0.014 A 
ATOM     19  C   UNL     1      -3.793  -0.063  23.566  0.00  0.00    +0.024 A 
ATOM     20  C   UNL     1      -3.528   0.166  24.313  0.00  0.00    +0.147 A 
ATOM     32  C   UNL     1      -3.391  -0.402  24.894  0.00  0.00    +0.277 A 
ATOM     33  O   UNL     1      -3.068  -0.384  25.882  0.00  0.00    -0.266 OA
ATOM     34  N   UNL     1      -3.519  -1.200  24.729  0.00  0.00    -0.298 N 
ATOM     35  C   UNL     1      -3.680  -1.756  24.392  0.00  0.00    +0.110 C 
ENDROOT
BRANCH   9   6
ATOM      3  C   UNL     1      -3.452   1.190  24.185  0.00  0.00    +0.139 A 
ATOM      4  C   UNL     1      -4.056   0.666  24.600  0.00  0.00    +0.037 A 
ATOM      5  C   UNL     1      -3.967  -0.075  25.165  0.00  0.00    +0.008 A 
ATOM      6  C   UNL     1      -3.231  -0.379  25.380  0.00  0.00    +0.054 A 
ATOM      7  C   UNL     1      -2.540  -0.029  25.095  0.00  0.00    +0.008 A 
ATOM      8  C   UNL     1      -2.586   0.626  24.595  0.00  0.00    +0.037 A 
BRANCH   3   2
ATOM      1  C   UNL     1      -1.751   1.750  23.695  0.00  0.00    +0.252 C 
ATOM      2  O   UNL     1      -2.580   1.455  23.961  0.00  0.00    -0.471 OA
ENDBRANCH   3   2
ENDBRANCH   9   6
BRANCH  20  21
ATOM     21  N   UNL     1      -3.319   1.044  24.705  0.00  0.00    -0.092 NA
BRANCH  21  22
ATOM     22  S   UNL     1      -4.089   1.626  24.711  0.00  0.00    +0.093 S 
ATOM     23  O   UNL     1      -4.077   2.000  25.514  0.00  0.00    -0.148 OA
ATOM     24  O   UNL     1      -4.563   1.563  23.830  0.00  0.00    -0.148 OA
BRANCH  22  25
ATOM     25  C   UNL     1      -4.634   2.198  25.052  0.00  0.00    +0.127 A 
ATOM     26  C   UNL     1      -4.280   2.897  24.794  0.00  0.00    +0.021 A 
ATOM     27  C   UNL     1      -4.615   3.625  24.991  0.00  0.00    +0.013 A 
ATOM     28  C   UNL     1      -5.304   3.653  25.444  0.00  0.00    +0.058 A 
ATOM     29 CL   UNL     1      -5.666   4.405  25.657  0.00  0.00    -0.082 Cl
ATOM     30  C   UNL     1      -5.658   2.954  25.701  0.00  0.00    +0.013 A 
ATOM     31  C   UNL     1      -5.323   2.226  25.505  0.00  0.00    +0.021 A 
ENDBRANCH  22  25
ENDBRANCH  21  22
ENDBRANCH  20  21
TORSDOF 5
ENDMDL
MODEL 2
REMARK VINA RESULT:     -14.7      1.144      1.892
REMARK  Name = 
REMARK  5 active torsions:
REMARK  status: ('A' for Active; 'I' for Inactive)
REMARK    1  A    between atoms: O_2  and  C_3
REMARK    2  A    between atoms: C_6  and  C_9
REMARK    3  A    between atoms: C_20  and  N_21
REMARK    4  A    between atoms: N_21  and  S_22
REMARK    5  A    between atoms: S_22  and  C_25
REMARK                            x       y       z     vdW  Elec       q    Type
REMARK                         _______ _______ _______ _____ _____    ______ ____
ROOT
ATOM      9  C   UNL     1      -3.375  -1.147  25.967  0.00  0.00    +0.249 C 
ATOM     10  O   UNL     1      -3.167  -1.539  26.718  0.00  0.00    -0.270 OA
ATOM     11  N   UNL     1      -3.478  -1.801  25.457  0.00  0.00    -0.276 N 
ATOM     12  C   UNL     1      -3.478  -2.626  25.325  0.00  0.00    +0.096 C 
ATOM     13  C   UNL     1      -3.721  -2.641  24.367  0.00  0.00    +0.043 C 
ATOM     14  C   UNL     1      -3.910  -2.822  23.596  0.00  0.00    +0.011 C 
ATOM     15  C   UNL     1      -3.833  -2.246  23.990  0.00  0.00    +0.058 C 
ATOM     16  C   UNL     1      -3.597  -2.248  24.915  0.00  0.00    +0.099 C 
ATOM     17  C   UNL     1      -3.882  -1.329  23.944  0.00  0.00    +0.041 A 
ATOM     18  C   UNL     1      -4.043  -0.723  23.409  0.00  0.00    +0.014 A 
ATOM     19  C   UNL     1      -4.012   0.064  23.656  0.00  0.00    +0.024 A 
ATOM     20  C   UNL     1      -3.821   0.243  24.439  0.00  0.00    +0.147 A 
ATOM     32  C   UNL     1      -3.660  -0.363  24.974  0.00  0.00    +0.277 A 
ATOM     33  O   UNL     1      -3.402  -0.410  25.979  0.00  0.00    -0.266 OA
ATOM     34  N   UNL     1      -3.690  -1.150  24.726  0.00  0.00    -0.298 N 
ATOM     35  C   UNL     1      -3.770  -1.683  24.329  0.00  0.00    +0.110 C 
ENDROOT
BRANCH   9   6
ATOM      3  C   UNL     1      -3.890   1.275  24.422  0.00  0.00    +0.139 A 
ATOM      4  C   UNL     1      -3.183   0.717  24.433  0.00  0.00    +0.037 A 
ATOM      5  C   UNL     1      -3.001  -0.062  24.921  0.00  0.00    +0.008 A 
ATOM      6  C   UNL     1      -3.533  -0.372  25.469  0.00  0.00    +0.054 A 
ATOM      7  C   UNL     1      -4.254   0.004  25.604  0.00  0.00    +0.008 A 
ATOM      8  C   UNL     1      -4.444   0.693  25.190  0.00  0.00    +0.037 A 
BRANCH   3   2
ATOM      1  C   UNL     1      -5.570   1.888  24.919  0.00  0.00    +0.252 C 
ATOM      2  O   UNL     1      -4.739   1.564  24.698  0.00  0.00    -0.471 OA
ENDBRANCH   3   2
ENDBRANCH   9   6
BRANCH  20  21
ATOM     21  N   UNL     1      -3.732   1.094  24.924  0.00  0.00    -0.092 NA
BRANCH  21  22
ATOM     22  S   UNL     1      -3.037   1.649  24.549  0.00  0.00    +0.093 S 
ATOM     23  O   UNL     1      -2.600   1.963  25.253  0.00  0.00    -0.148 OA
ATOM     24  O   UNL     1      -3.101   1.637  23.549  0.00  0.00    -0.148 OA
BRANCH  22  25
ATOM     25  C   UNL     1      -2.358   2.177  24.576  0.00  0.00    +0.127 A 
ATOM     26  C   UNL     1      -2.726   2.864  24.845  0.00  0.00    +0.021 A 
ATOM     27  C   UNL     1      -2.284   3.551  24.963  0.00  0.00    +0.013 A 
ATOM     28  C   UNL     1      -1.473   3.550  24.810  0.00  0.00    +0.058 A 
ATOM     29 CL   UNL     1      -0.997   4.258  24.927  0.00  0.00    -0.082 Cl
ATOM     30  C   UNL     1      -1.105   2.863  24.540  0.00  0.00    +0.013 A 
ATOM     31  C   UNL     1      -1.547   2.176  24.423  0.00  0.00    +0.021 A 
ENDBRANCH  22  25
ENDBRANCH  21  22
ENDBRANCH  20  21
TORSDOF 5
ENDMDL
MODEL 3
REMARK VINA RESULT:     -14.5      2.108      4.577
REMARK  Name = 
REMARK  5 active torsions:
REMARK  status: ('A' for Active; 'I' for Inactive)
REMARK    1  A    between atoms: O_2  and  C_3
REMARK    2  A    between atoms: C_6  and  C_9
REMARK    3  A    between atoms: C_20  and  N_21
REMARK    4  A    between atoms: N_21  and  S_22
REMARK    5  A    between atoms: S_22  and  C_25
REMARK                            x       y       z     vdW  Elec       q    Type
REMARK                         _______ _______ _______ _____ _____    ______ ____
ROOT
ATOM      9  C   UNL     1      -3.263   2.687  23.747  0.00  0.00    +0.249 C 
ATOM     10  O   UNL     1      -3.867   2.998  23.199  0.00  0.00    -0.270 OA
ATOM     11  N   UNL     1      -3.143   3.340  24.255  0.00  0.00    -0.276 N 
ATOM     12  C   UNL     1      -3.318   4.124  24.483  0.00  0.00    +0.096 C 
ATOM     13  C   UNL     1      -2.711   4.211  25.258  0.00  0.00    +0.043 C 
ATOM     14  C   UNL     1      -2.275   4.439  25.907  0.00  0.00    +0.011 C 
ATOM     15  C   UNL     1      -2.346   3.869  25.504  0.00  0.00    +0.058 C 
ATOM     16  C   UNL     1      -2.938   3.801  24.758  0.00  0.00    +0.099 C 
ATOM     17  C   UNL     1      -2.028   3.012  25.406  0.00  0.00    +0.041 A 
ATOM     18  C   UNL     1      -1.495   2.483  25.748  0.00  0.00    +0.014 A 
ATOM     19  C   UNL     1      -1.406   1.727  25.432  0.00  0.00    +0.024 A 
ATOM     20  C   UNL     1      -1.850   1.499  24.775  0.00  0.00    +0.147 A 
ATOM     32  C   UNL     1      -2.382   2.027  24.433  0.00  0.00    +0.277 A 
ATOM     33  O   UNL     1      -3.040   1.995  23.629  0.00  0.00    -0.266 OA
ATOM     34  N   UNL     1      -2.471   2.784  24.748  0.00  0.00    -0.298 N 
ATOM     35  C   UNL     1      -2.385   3.315  25.147  0.00  0.00    +0.110 C 
ENDROOT
BRANCH   9   6
ATOM      3  C   UNL     1      -1.495   0.539  24.627  0.00  0.00    +0.139 A 
ATOM      4  C   UNL     1      -2.265   0.853  24.973  0.00  0.00    +0.037 A 
ATOM      5  C   UNL     1      -2.844   1.539  24.705  0.00  0.00    +0.008 A 
ATOM      6  C   UNL     1      -2.702   1.998  24.034  0.00  0.00    +0.054 A 
ATOM      7  C   UNL     1      -2.032   1.861  23.573  0.00  0.00    +0.008 A 
ATOM      8  C   UNL     1      -1.503   1.263  23.783  0.00  0.00    +0.037 A 
BRANCH   3   2
ATOM      1  C   UNL     1      -0.084   0.470  23.421  0.00  0.00    +0.252 C 
ATOM      2  O   UNL     1      -0.798   0.523  23.998  0.00  0.00    -0.471 OA
ENDBRANCH   3   2
ENDBRANCH   9   6
BRANCH  20  21
ATOM     21  N   UNL     1      -1.892   0.663  24.257  0.00  0.00    -0.092 NA
BRANCH  21  22
ATOM     22  S   UNL     1      -2.198  -0.076  24.796  0.00  0.00    +0.093 S 
ATOM     23  O   UNL     1      -2.797  -0.488  24.289  0.00  0.00    -0.148 OA
ATOM     24  O   UNL     1      -1.723  -0.067  25.679  0.00  0.00    -0.148 OA
BRANCH  22  25
ATOM     25  C   UNL     1      -2.667  -0.777  24.969  0.00  0.00    +0.127 A 
ATOM     26  C   UNL     1      -2.205  -1.349  24.596  0.00  0.00    +0.021 A 
ATOM     27  C   UNL     1      -2.438  -2.141  24.611  0.00  0.00    +0.013 A 
ATOM     28  C   UNL     1      -3.132  -2.359  24.999  0.00  0.00    +0.058 A 
ATOM     29 CL   UNL     1      -3.389  -3.182  25.023  0.00  0.00    -0.082 Cl
ATOM     30  C   UNL     1      -3.594  -1.787  25.372  0.00  0.00    +0.013 A 
ATOM     31  C   UNL     1      -3.362  -0.996  25.358  0.00  0.00    +0.021 A 
ENDBRANCH  22  25
ENDBRANCH  21  22
ENDBRANCH  20  21
TORSDOF 5
ENDMDL
MODEL 4
REMARK VINA RESULT:     -14.4      1.927      4.446
REMARK  Name = 
REMARK  5 active torsions:
REMARK  status: ('A' for Active; 'I' for Inactive)
REMARK    1  A    between atoms: O_2  and  C_3
REMARK    2  A    between atoms: C_6  and  C_9
REMARK    3  A    between atoms: C_20  and  N_21
REMARK    4  A    between atoms: N_21  and  S_22
REMARK    5  A    between atoms: S_22  and  C_25
REMARK                            x       y       z     vdW  Elec       q    Type
REMARK                         _______ _______ _______ _____ _____    ______ ____
ROOT
ATOM      9  C   UNL     1      -4.574   3.097  24.957  0.00  0.00    +0.249 C 
ATOM     10  O   UNL     1      -5.368   3.440  25.071  0.00  0.00    -0.270 OA
ATOM     11  N   UNL     1      -4.105   3.588  25.445  0.00  0.00    -0.276 N 
ATOM     12  C   UNL     1      -4.035   4.231  25.974  0.00  0.00    +0.096 C 
ATOM     13  C   UNL     1      -3.063   4.199  26.145  0.00  0.00    +0.043 C 
ATOM     14  C   UNL     1      -2.292   4.306  26.387  0.00  0.00    +0.011 C 
ATOM     15  C   UNL     1      -2.648   3.871  25.967  0.00  0.00    +0.058 C 
ATOM     16  C   UNL     1      -3.589   3.915  25.811  0.00  0.00    +0.099 C 
ATOM     17  C   UNL     1      -2.531   3.149  25.411  0.00  0.00    +0.041 A 
ATOM     18  C   UNL     1      -1.940   2.647  25.129  0.00  0.00    +0.014 A 
ATOM     19  C   UNL     1      -2.131   2.040  24.604  0.00  0.00    +0.024 A 
ATOM     20  C   UNL     1      -2.912   1.934  24.361  0.00  0.00    +0.147 A 
ATOM     32  C   UNL     1      -3.503   2.436  24.644  0.00  0.00    +0.277 A 
ATOM     33  O   UNL     1      -4.529   2.519  24.502  0.00  0.00    -0.266 OA
ATOM     34  N   UNL     1      -3.312   3.043  25.169  0.00  0.00    -0.298 N 
ATOM     35  C   UNL     1      -2.950   3.444  25.563  0.00  0.00    +0.110 C 
ENDROOT
BRANCH   9   6
ATOM      3  C   UNL     1      -2.806   1.135  23.714  0.00  0.00    +0.139 A 
ATOM      4  C   UNL     1      -3.136   1.192  24.551  0.00  0.00    +0.037 A 
ATOM      5  C   UNL     1      -3.703   1.812  24.965  0.00  0.00    +0.008 A 
ATOM      6  C   UNL     1      -4.008   2.466  24.565  0.00  0.00    +0.054 A 
ATOM      7  C   UNL     1      -3.817   2.591  23.773  0.00  0.00    +0.008 A 
ATOM      8  C   UNL     1      -3.320   2.062  23.379  0.00  0.00    +0.037 A 
BRANCH   3   2
ATOM      1  C   UNL     1      -2.540   1.684  21.960  0.00  0.00    +0.252 C 
ATOM      2  O   UNL     1      -2.698   1.430  22.830  0.00  0.00    -0.471 OA
ENDBRANCH   3   2
ENDBRANCH   9   6
BRANCH  20  21
ATOM     21  N   UNL     1      -3.340   1.288  23.757  0.00  0.00    -0.092 NA
BRANCH  21  22
ATOM     22  S   UNL     1      -3.259   0.384  24.084  0.00  0.00    +0.093 S 
ATOM     23  O   UNL     1      -4.001  -0.018  23.813  0.00  0.00    -0.148 OA
ATOM     24  O   UNL     1      -2.393   0.283  24.579  0.00  0.00    -0.148 OA
BRANCH  22  25
ATOM     25  C   UNL     1      -3.511  -0.430  24.205  0.00  0.00    +0.127 A 
ATOM     26  C   UNL     1      -2.779  -0.784  24.345  0.00  0.00    +0.021 A 
ATOM     27  C   UNL     1      -2.734  -1.593  24.496  0.00  0.00    +0.013 A 
ATOM     28  C   UNL     1      -3.421  -2.050  24.507  0.00  0.00    +0.058 A 
ATOM     29 CL   UNL     1      -3.391  -2.896  24.663  0.00  0.00    -0.082 Cl
ATOM     30  C   UNL     1      -4.153  -1.697  24.367  0.00  0.00    +0.013 A 
ATOM     31  C   UNL     1      -4.198  -0.887  24.215  0.00  0.00    +0.021 A 
ENDBRANCH  22  25
ENDBRANCH  21  22
ENDBRANCH  20  21
TORSDOF 5
ENDMDL
MODEL 5
REMARK VINA RESULT:     -14.3      1.423      1.747
REMARK  Name = 
REMARK  5 active torsions:
REMARK  status: ('A' for Active; 'I' for Inactive)
REMARK    1  A    between atoms: O_2  and  C_3
REMARK    2  A    between atoms: C_6  and  C_9
REMARK    3  A    between atoms: C_20  and  N_21
REMARK    4  A    between atoms: N_21  and  S_22
REMARK    5  A    between atoms: S_22  and  C_25
REMARK                            x       y       z     vdW  Elec       q    Type
REMARK                         _______ _______ _______ _____ _____    ______ ____
ROOT
ATOM      9  C   UNL     1      -1.279  -0.775  24.676  0.00  0.00    +0.249 C 
ATOM     10  O   UNL     1      -0.504  -1.132  24.856  0.00  0.00    -0.270 OA
ATOM     11  N   UNL     1      -1.789  -1.434  24.746  0.00  0.00    -0.276 N 
ATOM     12  C   UNL     1      -1.909  -2.246  24.900  0.00  0.00    +0.096 C 
ATOM     13  C   UNL     1      -2.888  -2.295  24.778  0.00  0.00    +0.043 C 
ATOM     14  C   UNL     1      -3.674  -2.500  24.715  0.00  0.00    +0.011 C 
ATOM     15  C   UNL     1      -3.282  -1.923  24.647  0.00  0.00    +0.058 C 
ATOM     16  C   UNL     1      -2.335  -1.891  24.768  0.00  0.00    +0.099 C 
ATOM     17  C   UNL     1      -3.345  -1.027  24.450  0.00  0.00    +0.041 A 
ATOM     18  C   UNL     1      -3.904  -0.453  24.253  0.00  0.00    +0.014 A 
ATOM     19  C   UNL     1      -3.665   0.326  24.122  0.00  0.00    +0.024 A 
ATOM     20  C   UNL     1      -2.868   0.530  24.186  0.00  0.00    +0.147 A 
ATOM     32  C   UNL     1      -2.310  -0.044  24.383  0.00  0.00    +0.277 A 
ATOM     33  O   UNL     1      -1.281  -0.054  24.524  0.00  0.00    -0.266 OA
ATOM     34  N   UNL     1      -2.549  -0.823  24.514  0.00  0.00    -0.298 N 
ATOM     35  C   UNL     1      -2.945  -1.359  24.574  0.00  0.00    +0.110 C 
ENDROOT
BRANCH   9   6
ATOM      3  C   UNL     1      -2.906   1.536  23.947  0.00  0.00    +0.139 A 
ATOM      4  C   UNL     1      -2.831   1.082  24.722  0.00  0.00    +0.037 A 
ATOM      5  C   UNL     1      -2.316   0.341  24.973  0.00  0.00    +0.008 A 
ATOM      6  C   UNL     1      -1.803  -0.035  24.449  0.00  0.00    +0.054 A 
ATOM      7  C   UNL     1      -1.729   0.238  23.675  0.00  0.00    +0.008 A 
ATOM      8  C   UNL     1      -2.170   0.889  23.423  0.00  0.00    +0.037 A 
BRANCH   3   2
ATOM      1  C   UNL     1      -2.540   1.918  22.167  0.00  0.00    +0.252 C 
ATOM      2  O   UNL     1      -2.699   1.706  23.048  0.00  0.00    -0.471 OA
ENDBRANCH   3   2
ENDBRANCH   9   6
BRANCH  20  21
ATOM     21  N   UNL     1      -2.387   1.380  24.072  0.00  0.00    -0.092 NA
BRANCH  21  22
ATOM     22  S   UNL     1      -2.689   2.049  24.699  0.00  0.00    +0.093 S 
ATOM     23  O   UNL     1      -1.969   2.536  24.868  0.00  0.00    -0.148 OA
ATOM     24  O   UNL     1      -3.665   1.914  24.889  0.00  0.00    -0.148 OA
BRANCH  22  25
ATOM     25  C   UNL     1      -2.604   2.731  25.218  0.00  0.00    +0.127 A 
ATOM     26  C   UNL     1      -3.354   3.064  25.134  0.00  0.00    +0.021 A 
ATOM     27  C   UNL     1      -3.545   3.755  25.542  0.00  0.00    +0.013 A 
ATOM     28  C   UNL     1      -2.987   4.113  26.032  0.00  0.00    +0.058 A 
ATOM     29 CL   UNL     1      -3.172   4.835  26.465  0.00  0.00    -0.082 Cl
ATOM     30  C   UNL     1      -2.237   3.780  26.116  0.00  0.00    +0.013 A 
ATOM     31  C   UNL     1      -2.045   3.089  25.708  0.00  0.00    +0.021 A 
ENDBRANCH  22  25
ENDBRANCH  21  22
ENDBRANCH  20  21
TORSDOF 5
ENDMDL
MODEL 6
REMARK VINA RESULT:     -13.6      2.328      4.337
REMARK  Name = 
REMARK  5 active torsions:
REMARK  status: ('A' for Active; 'I' for Inactive)
REMARK    1  A    between atoms: O_2  and  C_3
REMARK    2  A    between atoms: C_6  and  C_9
REMARK    3  A    between atoms: C_20  and  N_21
REMARK    4  A    between atoms: N_21  and  S_22
REMARK    5  A    between atoms: S_22  and  C_25
REMARK                            x       y       z     vdW  Elec       q    Type
REMARK                         _______ _______ _______ _____ _____    ______ ____
ROOT
ATOM      9  C   UNL     1      -3.225   3.493  25.517  0.00  0.00    +0.249 C 
ATOM     10  O   UNL     1      -2.912   4.197  25.927  0.00  0.00    -0.270 OA
ATOM     11  N   UNL     1      -4.044   3.558  25.671  0.00  0.00    -0.276 N 
ATOM     12  C   UNL     1      -4.688   3.961  26.019  0.00  0.00    +0.096 C 
ATOM     13  C   UNL     1      -5.427   3.368  25.738  0.00  0.00    +0.043 C 
ATOM     14  C   UNL     1      -6.133   2.989  25.591  0.00  0.00    +0.011 C 
ATOM     15  C   UNL     1      -5.454   2.898  25.439  0.00  0.00    +0.058 C 
ATOM     16  C   UNL     1      -4.751   3.481  25.718  0.00  0.00    +0.099 C 
ATOM     17  C   UNL     1      -4.885   2.329  24.994  0.00  0.00    +0.041 A 
ATOM     18  C   UNL     1      -4.892   1.635  24.548  0.00  0.00    +0.014 A 
ATOM     19  C   UNL     1      -4.186   1.327  24.253  0.00  0.00    +0.024 A 
ATOM     20  C   UNL     1      -3.472   1.714  24.404  0.00  0.00    +0.147 A 
ATOM     32  C   UNL     1      -3.465   2.407  24.850  0.00  0.00    +0.277 A 
ATOM     33  O   UNL     1      -2.731   3.067  25.174  0.00  0.00    -0.266 OA
ATOM     34  N   UNL     1      -4.171   2.715  25.145  0.00  0.00    -0.298 N 
ATOM     35  C   UNL     1      -4.825   2.779  25.276  0.00  0.00    +0.110 C 
ENDROOT
BRANCH   9   6
ATOM      3  C   UNL     1      -2.811   1.103  23.894  0.00  0.00    +0.139 A 
ATOM      4  C   UNL     1      -3.014   1.201  24.766  0.00  0.00    +0.037 A 
ATOM      5  C   UNL     1      -3.150   1.958  25.302  0.00  0.00    +0.008 A 
ATOM      6  C   UNL     1      -3.094   2.724  25.003  0.00  0.00    +0.054 A 
ATOM      7  C   UNL     1      -2.912   2.846  24.208  0.00  0.00    +0.008 A 
ATOM      8  C   UNL     1      -2.787   2.199  23.710  0.00  0.00    +0.037 A 
BRANCH   3   2
ATOM      1  C   UNL     1      -2.428   1.677  22.170  0.00  0.00    +0.252 C 
ATOM      2  O   UNL     1      -2.618   1.424  23.033  0.00  0.00    -0.471 OA
ENDBRANCH   3   2
ENDBRANCH   9   6
BRANCH  20  21
ATOM     21  N   UNL     1      -2.542   1.518  24.150  0.00  0.00    -0.092 NA
BRANCH  21  22
ATOM     22  S   UNL     1      -2.245   0.673  24.507  0.00  0.00    +0.093 S 
ATOM     23  O   UNL     1      -1.413   0.825  24.774  0.00  0.00    -0.148 OA
ATOM     24  O   UNL     1      -2.981  -0.003  24.429  0.00  0.00    -0.148 OA
BRANCH  22  25
ATOM     25  C   UNL     1      -1.684   0.132  24.874  0.00  0.00    +0.127 A 
ATOM     26  C   UNL     1      -1.812  -0.538  24.410  0.00  0.00    +0.021 A 
ATOM     27  C   UNL     1      -1.385  -1.228  24.555  0.00  0.00    +0.013 A 
ATOM     28  C   UNL     1      -0.830  -1.249  25.165  0.00  0.00    +0.058 A 
ATOM     29 CL   UNL     1      -0.376  -1.963  25.330  0.00  0.00    -0.082 Cl
ATOM     30  C   UNL     1      -0.701  -0.579  25.630  0.00  0.00    +0.013 A 
ATOM     31  C   UNL     1      -1.128   0.111  25.484  0.00  0.00    +0.021 A 
ENDBRANCH  22  25
ENDBRANCH  21  22
ENDBRANCH  20  21
TORSDOF 5
ENDMDL
