MODEL 1
REMARK VINA RESULT:      -9.2      0.000      0.000
REMARK  Name = 
REMARK  7 active torsions:
REMARK  status: ('A' for Active; 'I' for Inactive)
REMARK    1  A    between atoms: O_2  and  C_3
REMARK    2  A    between atoms: C_5  and  N_6
REMARK    3  A    between atoms: N_9  and  C_10
REMARK    4  A    between atoms: C_10  and  C_11
REMARK    5  A    between atoms: C_15  and  C_16
REMARK    6  A    between atoms: C_16  and  C_17
REMARK    7  A    between atoms: C_25  and  C_26
REMARK                            x       y       z     vdW  Elec       q    Type
REMARK                         _______ _______ _______ _____ _____    ______ ____
ROOT
ATOM     11  C   UNL     1      -1.448   0.680  24.083  0.00  0.00    +0.043 C 
ATOM     12  C   UNL     1      -1.691   1.261  23.549  0.00  0.00    -0.033 C 
ATOM     13  C   UNL     1      -2.460   1.558  23.585  0.00  0.00    -0.048 C 
ATOM     14  C   UNL     1      -2.702   2.139  23.051  0.00  0.00    +0.026 C 
ATOM     15  C   UNL     1      -2.985   1.275  24.153  0.00  0.00    +0.027 C 
ATOM     24  C   UNL     1      -2.743   0.694  24.686  0.00  0.00    +0.005 C 
ATOM     25  C   UNL     1      -1.974   0.397  24.651  0.00  0.00    +0.006 C 
ENDROOT
BRANCH  25  26
ATOM     26  C   UNL     1      -1.732  -0.184  25.184  0.00  0.00    +0.000 C 
ATOM     27  C   UNL     1      -1.910  -0.977  25.039  0.00  0.00    +0.000 C 
ATOM     28  C   UNL     1      -1.312   0.027  25.862  0.00  0.00    +0.000 C 
ENDBRANCH  25  26
BRANCH  11  10
ATOM     10  C   UNL     1      -0.679   0.383  24.047  0.00  0.00    +0.121 C 
BRANCH  10   9
ATOM      6  N   UNL     1       1.250   1.031  23.258  0.00  0.00    -0.161 NA
ATOM      7  C   UNL     1       0.631   0.541  23.499  0.00  0.00    +0.344 C 
ATOM      8  O   UNL     1       0.702  -0.278  23.434  0.00  0.00    -0.249 OA
ATOM      9  N   UNL     1      -0.060   0.873  23.806  0.00  0.00    -0.187 NA
BRANCH   6   5
ATOM      3  C   UNL     1       3.368   0.631  22.909  0.00  0.00    +0.140 A 
ATOM      4  C   UNL     1       2.677   0.962  23.216  0.00  0.00    +0.054 A 
ATOM      5  C   UNL     1       1.941   0.700  22.951  0.00  0.00    +0.078 A 
ATOM     29  C   UNL     1       1.896   0.106  22.379  0.00  0.00    +0.017 A 
ATOM     30  C   UNL     1       2.587  -0.224  22.073  0.00  0.00    +0.004 A 
ATOM     31  C   UNL     1       3.323   0.038  22.338  0.00  0.00    +0.037 A 
BRANCH   3   2
ATOM      1  C   UNL     1       4.749   0.380  23.173  0.00  0.00    +0.252 C 
ATOM      2  O   UNL     1       4.104   0.894  23.174  0.00  0.00    -0.471 OA
ENDBRANCH   3   2
ENDBRANCH   6   5
ENDBRANCH  10   9
ENDBRANCH  11  10
BRANCH  15  16
ATOM     16  C   UNL     1      -3.755   1.572  24.188  0.00  0.00    +0.089 C 
BRANCH  16  17
ATOM     17  C   UNL     1      -3.984   2.047  24.822  0.00  0.00    +0.226 C 
ATOM     18  O   UNL     1      -3.425   2.508  25.216  0.00  0.00    -0.275 OA
ATOM     19  N   UNL     1      -4.774   2.060  25.063  0.00  0.00    -0.280 N 
ATOM     20  C   UNL     1      -5.083   2.506  25.684  0.00  0.00    +0.093 C 
ATOM     21  C   UNL     1      -5.892   2.351  25.730  0.00  0.00    +0.023 C 
ATOM     22  C   UNL     1      -6.083   1.811  25.136  0.00  0.00    +0.023 C 
ATOM     23  C   UNL     1      -5.392   1.631  24.724  0.00  0.00    +0.093 C 
ENDBRANCH  16  17
ENDBRANCH  15  16
TORSDOF 7
ENDMDL
MODEL 2
REMARK VINA RESULT:      -8.9      1.134      1.400
REMARK  Name = 
REMARK  7 active torsions:
REMARK  status: ('A' for Active; 'I' for Inactive)
REMARK    1  A    between atoms: O_2  and  C_3
REMARK    2  A    between atoms: C_5  and  N_6
REMARK    3  A    between atoms: N_9  and  C_10
REMARK    4  A    between atoms: C_10  and  C_11
REMARK    5  A    between atoms: C_15  and  C_16
REMARK    6  A    between atoms: C_16  and  C_17
REMARK    7  A    between atoms: C_25  and  C_26
REMARK                            x       y       z     vdW  Elec       q    Type
REMARK                         _______ _______ _______ _____ _____    ______ ____
ROOT
ATOM     11  C   UNL     1      -1.135   1.664  24.367  0.00  0.00    +0.043 C 
ATOM     12  C   UNL     1      -1.639   1.184  23.923  0.00  0.00    -0.033 C 
ATOM     13  C   UNL     1      -2.456   1.239  24.026  0.00  0.00    -0.048 C 
ATOM     14  C   UNL     1      -2.960   0.759  23.582  0.00  0.00    +0.026 C 
ATOM     15  C   UNL     1      -2.768   1.773  24.570  0.00  0.00    +0.027 C 
ATOM     24  C   UNL     1      -2.265   2.253  25.014  0.00  0.00    +0.005 C 
ATOM     25  C   UNL     1      -1.447   2.198  24.912  0.00  0.00    +0.006 C 
ENDROOT
BRANCH  25  26
ATOM     26  C   UNL     1      -0.944   2.678  25.355  0.00  0.00    +0.000 C 
ATOM     27  C   UNL     1      -0.663   2.416  26.086  0.00  0.00    +0.000 C 
ATOM     28  C   UNL     1      -0.722   3.419  25.069  0.00  0.00    +0.000 C 
ENDBRANCH  25  26
BRANCH  11  10
ATOM     10  C   UNL     1      -0.318   1.610  24.265  0.00  0.00    +0.121 C 
BRANCH  10   9
ATOM      6  N   UNL     1       1.069   0.204  23.334  0.00  0.00    -0.161 NA
ATOM      7  C   UNL     1       0.733   0.912  23.594  0.00  0.00    +0.344 C 
ATOM      8  O   UNL     1       1.113   1.629  23.443  0.00  0.00    -0.249 OA
ATOM      9  N   UNL     1       0.018   0.902  24.005  0.00  0.00    -0.187 NA
BRANCH   6   5
ATOM      3  C   UNL     1       3.176   0.533  22.868  0.00  0.00    +0.140 A 
ATOM      4  C   UNL     1       2.461   0.524  23.280  0.00  0.00    +0.054 A 
ATOM      5  C   UNL     1       1.785   0.214  22.923  0.00  0.00    +0.078 A 
ATOM     29  C   UNL     1       1.823  -0.086  22.155  0.00  0.00    +0.017 A 
ATOM     30  C   UNL     1       2.539  -0.076  21.745  0.00  0.00    +0.004 A 
ATOM     31  C   UNL     1       3.215   0.234  22.101  0.00  0.00    +0.037 A 
BRANCH   3   2
ATOM      1  C   UNL     1       4.588   0.497  23.085  0.00  0.00    +0.252 C 
ATOM      2  O   UNL     1       3.853   0.843  23.225  0.00  0.00    -0.471 OA
ENDBRANCH   3   2
ENDBRANCH   6   5
ENDBRANCH  10   9
ENDBRANCH  11  10
BRANCH  15  16
ATOM     16  C   UNL     1      -3.586   1.827  24.673  0.00  0.00    +0.089 C 
BRANCH  16  17
ATOM     17  C   UNL     1      -3.957   2.563  24.639  0.00  0.00    +0.226 C 
ATOM     18  O   UNL     1      -3.648   3.159  24.160  0.00  0.00    -0.275 OA
ATOM     19  N   UNL     1      -4.637   2.703  25.085  0.00  0.00    -0.280 N 
ATOM     20  C   UNL     1      -5.066   3.407  25.107  0.00  0.00    +0.093 C 
ATOM     21  C   UNL     1      -5.701   3.302  25.622  0.00  0.00    +0.023 C 
ATOM     22  C   UNL     1      -5.666   2.532  25.918  0.00  0.00    +0.023 C 
ATOM     23  C   UNL     1      -5.008   2.162  25.586  0.00  0.00    +0.093 C 
ENDBRANCH  16  17
ENDBRANCH  15  16
TORSDOF 7
ENDMDL
MODEL 3
REMARK VINA RESULT:      -8.9      0.970      1.176
REMARK  Name = 
REMARK  7 active torsions:
REMARK  status: ('A' for Active; 'I' for Inactive)
REMARK    1  A    between atoms: O_2  and  C_3
REMARK    2  A    between atoms: C_5  and  N_6
REMARK    3  A    between atoms: N_9  and  C_10
REMARK    4  A    between atoms: C_10  and  C_11
REMARK    5  A    between atoms: C_15  and  C_16
REMARK    6  A    between atoms: C_16  and  C_17
REMARK    7  A    between atoms: C_25  and  C_26
REMARK                            x       y       z     vdW  Elec       q    Type
REMARK                         _______ _______ _______ _____ _____    ______ ____
ROOT
ATOM     11  C   UNL     1      -0.828   1.363  24.079  0.00  0.00    +0.043 C 
ATOM     12  C   UNL     1      -1.169   1.495  23.339  0.00  0.00    -0.033 C 
ATOM     13  C   UNL     1      -1.979   1.642  23.279  0.00  0.00    -0.048 C 
ATOM     14  C   UNL     1      -2.320   1.773  22.538  0.00  0.00    +0.026 C 
ATOM     15  C   UNL     1      -2.447   1.656  23.957  0.00  0.00    +0.027 C 
ATOM     24  C   UNL     1      -2.107   1.525  24.696  0.00  0.00    +0.005 C 
ATOM     25  C   UNL     1      -1.296   1.378  24.757  0.00  0.00    +0.006 C 
ENDROOT
BRANCH  25  26
ATOM     26  C   UNL     1      -0.956   1.247  25.497  0.00  0.00    +0.000 C 
ATOM     27  C   UNL     1      -0.602   1.871  25.905  0.00  0.00    +0.000 C 
ATOM     28  C   UNL     1      -0.969   0.492  25.829  0.00  0.00    +0.000 C 
ENDBRANCH  25  26
BRANCH  11  10
ATOM     10  C   UNL     1      -0.019   1.217  24.139  0.00  0.00    +0.121 C 
BRANCH  10   9
ATOM      6  N   UNL     1       1.577   0.358  22.924  0.00  0.00    -0.161 NA
ATOM      7  C   UNL     1       1.192   0.786  23.514  0.00  0.00    +0.344 C 
ATOM      8  O   UNL     1       1.630   1.210  24.070  0.00  0.00    -0.249 OA
ATOM      9  N   UNL     1       0.368   0.789  23.548  0.00  0.00    -0.187 NA
BRANCH   6   5
ATOM      3  C   UNL     1       3.648  -0.307  23.116  0.00  0.00    +0.140 A 
ATOM      4  C   UNL     1       2.824  -0.305  23.150  0.00  0.00    +0.054 A 
ATOM      5  C   UNL     1       2.402   0.355  22.889  0.00  0.00    +0.078 A 
ATOM     29  C   UNL     1       2.805   1.012  22.593  0.00  0.00    +0.017 A 
ATOM     30  C   UNL     1       3.630   1.008  22.559  0.00  0.00    +0.004 A 
ATOM     31  C   UNL     1       4.051   0.349  22.820  0.00  0.00    +0.037 A 
BRANCH   3   2
ATOM      1  C   UNL     1       4.771  -0.868  23.799  0.00  0.00    +0.252 C 
ATOM      2  O   UNL     1       4.070  -0.967  23.377  0.00  0.00    -0.471 OA
ENDBRANCH   3   2
ENDBRANCH   6   5
ENDBRANCH  10   9
ENDBRANCH  11  10
BRANCH  15  16
ATOM     16  C   UNL     1      -3.257   1.803  23.896  0.00  0.00    +0.089 C 
BRANCH  16  17
ATOM     17  C   UNL     1      -3.593   2.434  24.306  0.00  0.00    +0.226 C 
ATOM     18  O   UNL     1      -3.177   3.140  24.390  0.00  0.00    -0.275 OA
ATOM     19  N   UNL     1      -4.348   2.359  24.633  0.00  0.00    -0.280 N 
ATOM     20  C   UNL     1      -4.753   2.939  25.056  0.00  0.00    +0.093 C 
ATOM     21  C   UNL     1      -5.484   2.629  25.279  0.00  0.00    +0.023 C 
ATOM     22  C   UNL     1      -5.531   1.856  24.993  0.00  0.00    +0.023 C 
ATOM     23  C   UNL     1      -4.829   1.689  24.594  0.00  0.00    +0.093 C 
ENDBRANCH  16  17
ENDBRANCH  15  16
TORSDOF 7
ENDMDL
MODEL 4
REMARK VINA RESULT:      -8.7      1.177      6.420
REMARK  Name = 
REMARK  7 active torsions:
REMARK  status: ('A' for Active; 'I' for Inactive)
REMARK    1  A    between atoms: O_2  and  C_3
REMARK    2  A    between atoms: C_5  and  N_6
REMARK    3  A    between atoms: N_9  and  C_10
REMARK    4  A    between atoms: C_10  and  C_11
REMARK    5  A    between atoms: C_15  and  C_16
REMARK    6  A    between atoms: C_16  and  C_17
REMARK    7  A    between atoms: C_25  and  C_26
REMARK                            x       y       z     vdW  Elec       q    Type
REMARK                         _______ _______ _______ _____ _____    ______ ____
ROOT
ATOM     11  C   UNL     1      -1.395   0.419  24.388  0.00  0.00    +0.043 C 
ATOM     12  C   UNL     1      -1.129   1.149  24.108  0.00  0.00    -0.033 C 
ATOM     13  C   UNL     1      -0.344   1.237  23.869  0.00  0.00    -0.048 C 
ATOM     14  C   UNL     1      -0.078   1.967  23.589  0.00  0.00    +0.026 C 
ATOM     15  C   UNL     1       0.173   0.598  23.909  0.00  0.00    +0.027 C 
ATOM     24  C   UNL     1      -0.092  -0.132  24.189  0.00  0.00    +0.005 C 
ATOM     25  C   UNL     1      -0.877  -0.220  24.428  0.00  0.00    +0.006 C 
ENDROOT
BRANCH  25  26
ATOM     26  C   UNL     1      -1.142  -0.950  24.707  0.00  0.00    +0.000 C 
ATOM     27  C   UNL     1      -1.038  -1.150  25.502  0.00  0.00    +0.000 C 
ATOM     28  C   UNL     1      -1.512  -1.479  24.194  0.00  0.00    +0.000 C 
ENDBRANCH  25  26
BRANCH  11  10
ATOM     10  C   UNL     1      -2.179   0.331  24.627  0.00  0.00    +0.121 C 
BRANCH  10   9
ATOM      6  N   UNL     1      -4.028   1.460  24.362  0.00  0.00    -0.161 NA
ATOM      7  C   UNL     1      -3.438   1.003  24.712  0.00  0.00    +0.344 C 
ATOM      8  O   UNL     1      -3.514   0.760  25.497  0.00  0.00    -0.249 OA
ATOM      9  N   UNL     1      -2.771   0.789  24.277  0.00  0.00    -0.187 NA
BRANCH   6   5
ATOM      3  C   UNL     1      -5.387   2.616  25.620  0.00  0.00    +0.140 A 
ATOM      4  C   UNL     1      -4.720   2.403  25.185  0.00  0.00    +0.054 A 
ATOM      5  C   UNL     1      -4.696   1.675  24.797  0.00  0.00    +0.078 A 
ATOM     29  C   UNL     1      -5.341   1.160  24.845  0.00  0.00    +0.017 A 
ATOM     30  C   UNL     1      -6.007   1.375  25.280  0.00  0.00    +0.004 A 
ATOM     31  C   UNL     1      -6.031   2.103  25.668  0.00  0.00    +0.037 A 
BRANCH   3   2
ATOM      1  C   UNL     1      -5.548   4.036  25.579  0.00  0.00    +0.252 C 
ATOM      2  O   UNL     1      -5.411   3.345  26.008  0.00  0.00    -0.471 OA
ENDBRANCH   3   2
ENDBRANCH   6   5
ENDBRANCH  10   9
ENDBRANCH  11  10
BRANCH  15  16
ATOM     16  C   UNL     1       0.959   0.686  23.670  0.00  0.00    +0.089 C 
BRANCH  16  17
ATOM     17  C   UNL     1       1.244   0.256  23.027  0.00  0.00    +0.226 C 
ATOM     18  O   UNL     1       0.734  -0.224  22.592  0.00  0.00    -0.275 OA
ATOM     19  N   UNL     1       2.042   0.306  22.818  0.00  0.00    -0.280 N 
ATOM     20  C   UNL     1       2.404  -0.090  22.192  0.00  0.00    +0.093 C 
ATOM     21  C   UNL     1       3.202   0.120  22.187  0.00  0.00    +0.023 C 
ATOM     22  C   UNL     1       3.332   0.646  22.809  0.00  0.00    +0.023 C 
ATOM     23  C   UNL     1       2.615   0.761  23.200  0.00  0.00    +0.093 C 
ENDBRANCH  16  17
ENDBRANCH  15  16
TORSDOF 7
ENDMDL
MODEL 5
REMARK VINA RESULT:      -8.6      3.357      4.945
REMARK  Name = 
REMARK  7 active torsions:
REMARK  status: ('A' for Active; 'I' for Inactive)
REMARK    1  A    between atoms: O_2  and  C_3
REMARK    2  A    between atoms: C_5  and  N_6
REMARK    3  A    between atoms: N_9  and  C_10
REMARK    4  A    between atoms: C_10  and  C_11
REMARK    5  A    between atoms: C_15  and  C_16
REMARK    6  A    between atoms: C_16  and  C_17
REMARK    7  A    between atoms: C_25  and  C_26
REMARK                            x       y       z     vdW  Elec       q    Type
REMARK                         _______ _______ _______ _____ _____    ______ ____
ROOT
ATOM     11  C   UNL     1      -4.218   1.784  24.799  0.00  0.00    +0.043 C 
ATOM     12  C   UNL     1      -3.529   1.457  24.480  0.00  0.00    -0.033 C 
ATOM     13  C   UNL     1      -3.498   0.652  24.306  0.00  0.00    -0.048 C 
ATOM     14  C   UNL     1      -2.810   0.326  23.986  0.00  0.00    +0.026 C 
ATOM     15  C   UNL     1      -4.153   0.173  24.450  0.00  0.00    +0.027 C 
ATOM     24  C   UNL     1      -4.841   0.498  24.769  0.00  0.00    +0.005 C 
ATOM     25  C   UNL     1      -4.872   1.305  24.943  0.00  0.00    +0.006 C 
ENDROOT
BRANCH  25  26
ATOM     26  C   UNL     1      -5.560   1.630  25.262  0.00  0.00    +0.000 C 
ATOM     27  C   UNL     1      -5.663   1.655  26.081  0.00  0.00    +0.000 C 
ATOM     28  C   UNL     1      -6.145   1.930  24.764  0.00  0.00    +0.000 C 
ENDBRANCH  25  26
BRANCH  11  10
ATOM     10  C   UNL     1      -4.249   2.589  24.974  0.00  0.00    +0.121 C 
BRANCH  10   9
ATOM      6  N   UNL     1      -2.643   3.866  25.718  0.00  0.00    -0.161 NA
ATOM      7  C   UNL     1      -3.202   3.532  25.212  0.00  0.00    +0.344 C 
ATOM      8  O   UNL     1      -3.275   3.808  24.437  0.00  0.00    -0.249 OA
ATOM      9  N   UNL     1      -3.689   2.923  25.480  0.00  0.00    -0.187 NA
BRANCH   6   5
ATOM      3  C   UNL     1      -0.905   4.919  24.918  0.00  0.00    +0.140 A 
ATOM      4  C   UNL     1      -1.392   4.308  25.186  0.00  0.00    +0.054 A 
ATOM      5  C   UNL     1      -2.155   4.476  25.449  0.00  0.00    +0.078 A 
ATOM     29  C   UNL     1      -2.433   5.254  25.445  0.00  0.00    +0.017 A 
ATOM     30  C   UNL     1      -1.945   5.863  25.176  0.00  0.00    +0.004 A 
ATOM     31  C   UNL     1      -1.182   5.695  24.913  0.00  0.00    +0.037 A 
BRANCH   3   2
ATOM      1  C   UNL     1      -0.027   4.389  23.922  0.00  0.00    +0.252 C 
ATOM      2  O   UNL     1      -0.141   4.751  24.654  0.00  0.00    -0.471 OA
ENDBRANCH   3   2
ENDBRANCH   6   5
ENDBRANCH  10   9
ENDBRANCH  11  10
BRANCH  15  16
ATOM     16  C   UNL     1      -4.121  -0.634  24.275  0.00  0.00    +0.089 C 
BRANCH  16  17
ATOM     17  C   UNL     1      -3.911  -1.174  24.861  0.00  0.00    +0.226 C 
ATOM     18  O   UNL     1      -3.797  -0.918  25.636  0.00  0.00    -0.275 OA
ATOM     19  N   UNL     1      -3.815  -1.972  24.671  0.00  0.00    -0.280 N 
ATOM     20  C   UNL     1      -3.607  -2.573  25.196  0.00  0.00    +0.093 C 
ATOM     21  C   UNL     1      -3.573  -3.280  24.773  0.00  0.00    +0.023 C 
ATOM     22  C   UNL     1      -3.760  -3.116  23.986  0.00  0.00    +0.023 C 
ATOM     23  C   UNL     1      -3.910  -2.307  23.923  0.00  0.00    +0.093 C 
ENDBRANCH  16  17
ENDBRANCH  15  16
TORSDOF 7
ENDMDL
MODEL 6
REMARK VINA RESULT:      -8.5      3.583      5.091
REMARK  Name = 
REMARK  7 active torsions:
REMARK  status: ('A' for Active; 'I' for Inactive)
REMARK    1  A    between atoms: O_2  and  C_3
REMARK    2  A    between atoms: C_5  and  N_6
REMARK    3  A    between atoms: N_9  and  C_10
REMARK    4  A    between atoms: C_10  and  C_11
REMARK    5  A    between atoms: C_15  and  C_16
REMARK    6  A    between atoms: C_16  and  C_17
REMARK    7  A    between atoms: C_25  and  C_26
REMARK                            x       y       z     vdW  Elec       q    Type
REMARK                         _______ _______ _______ _____ _____    ______ ____
ROOT
ATOM     11  C   UNL     1      -3.306   1.791  24.728  0.00  0.00    +0.043 C 
ATOM     12  C   UNL     1      -2.610   1.568  25.113  0.00  0.00    -0.033 C 
ATOM     13  C   UNL     1      -2.075   2.144  25.364  0.00  0.00    -0.048 C 
ATOM     14  C   UNL     1      -1.379   1.920  25.748  0.00  0.00    +0.026 C 
ATOM     15  C   UNL     1      -2.235   2.941  25.231  0.00  0.00    +0.027 C 
ATOM     24  C   UNL     1      -2.930   3.165  24.847  0.00  0.00    +0.005 C 
ATOM     25  C   UNL     1      -3.465   2.589  24.595  0.00  0.00    +0.006 C 
ENDROOT
BRANCH  25  26
ATOM     26  C   UNL     1      -4.160   2.812  24.211  0.00  0.00    +0.000 C 
ATOM     27  C   UNL     1      -4.148   2.982  23.403  0.00  0.00    +0.000 C 
ATOM     28  C   UNL     1      -4.867   2.866  24.634  0.00  0.00    +0.000 C 
ENDBRANCH  25  26
BRANCH  11  10
ATOM     10  C   UNL     1      -3.840   1.216  24.478  0.00  0.00    +0.121 C 
BRANCH  10   9
ATOM      6  N   UNL     1      -3.934  -0.907  24.976  0.00  0.00    -0.161 NA
ATOM      7  C   UNL     1      -3.844  -0.212  24.541  0.00  0.00    +0.344 C 
ATOM      8  O   UNL     1      -3.667  -0.248  23.736  0.00  0.00    -0.249 OA
ATOM      9  N   UNL     1      -3.931   0.519  24.912  0.00  0.00    -0.187 NA
BRANCH   6   5
ATOM      3  C   UNL     1      -3.068  -2.807  24.337  0.00  0.00    +0.140 A 
ATOM      4  C   UNL     1      -3.154  -2.075  24.708  0.00  0.00    +0.054 A 
ATOM      5  C   UNL     1      -3.847  -1.640  24.604  0.00  0.00    +0.078 A 
ATOM     29  C   UNL     1      -4.454  -1.936  24.129  0.00  0.00    +0.017 A 
ATOM     30  C   UNL     1      -4.367  -2.667  23.759  0.00  0.00    +0.004 A 
ATOM     31  C   UNL     1      -3.674  -3.103  23.862  0.00  0.00    +0.037 A 
BRANCH   3   2
ATOM      1  C   UNL     1      -1.641  -2.876  24.360  0.00  0.00    +0.252 C 
ATOM      2  O   UNL     1      -2.375  -3.243  24.441  0.00  0.00    -0.471 OA
ENDBRANCH   3   2
ENDBRANCH   6   5
ENDBRANCH  10   9
ENDBRANCH  11  10
BRANCH  15  16
ATOM     16  C   UNL     1      -1.699   3.517  25.482  0.00  0.00    +0.089 C 
BRANCH  16  17
ATOM     17  C   UNL     1      -1.942   4.302  25.553  0.00  0.00    +0.226 C 
ATOM     18  O   UNL     1      -2.624   4.486  25.976  0.00  0.00    -0.275 OA
ATOM     19  N   UNL     1      -1.500   4.903  25.199  0.00  0.00    -0.280 N 
ATOM     20  C   UNL     1      -1.673   5.709  25.223  0.00  0.00    +0.093 C 
ATOM     21  C   UNL     1      -1.089   6.108  24.799  0.00  0.00    +0.023 C 
ATOM     22  C   UNL     1      -0.554   5.548  24.513  0.00  0.00    +0.023 C 
ATOM     23  C   UNL     1      -0.808   4.803  24.761  0.00  0.00    +0.093 C 
ENDBRANCH  16  17
ENDBRANCH  15  16
TORSDOF 7
ENDMDL
MODEL 7
REMARK VINA RESULT:      -7.8      1.844      2.616
REMARK  Name = 
REMARK  7 active torsions:
REMARK  status: ('A' for Active; 'I' for Inactive)
REMARK    1  A    between atoms: O_2  and  C_3
REMARK    2  A    between atoms: C_5  and  N_6
REMARK    3  A    between atoms: N_9  and  C_10
REMARK    4  A    between atoms: C_10  and  C_11
REMARK    5  A    between atoms: C_15  and  C_16
REMARK    6  A    between atoms: C_16  and  C_17
REMARK    7  A    between atoms: C_25  and  C_26
REMARK                            x       y       z     vdW  Elec       q    Type
REMARK                         _______ _______ _______ _____ _____    ______ ____
ROOT
ATOM     11  C   UNL     1      -0.224   0.182  23.992  0.00  0.00    +0.043 C 
ATOM     12  C   UNL     1      -0.147  -0.608  24.219  0.00  0.00    -0.033 C 
ATOM     13  C   UNL     1      -0.790  -1.007  24.548  0.00  0.00    -0.048 C 
ATOM     14  C   UNL     1      -0.712  -1.797  24.775  0.00  0.00    +0.026 C 
ATOM     15  C   UNL     1      -1.509  -0.618  24.650  0.00  0.00    +0.027 C 
ATOM     24  C   UNL     1      -1.586   0.172  24.423  0.00  0.00    +0.005 C 
ATOM     25  C   UNL     1      -0.943   0.571  24.094  0.00  0.00    +0.006 C 
ENDROOT
BRANCH  25  26
ATOM     26  C   UNL     1      -1.021   1.361  23.868  0.00  0.00    +0.000 C 
ATOM     27  C   UNL     1      -0.814   1.963  24.393  0.00  0.00    +0.000 C 
ATOM     28  C   UNL     1      -1.306   1.549  23.116  0.00  0.00    +0.000 C 
ENDBRANCH  25  26
BRANCH  11  10
ATOM     10  C   UNL     1       0.418   0.580  23.663  0.00  0.00    +0.121 C 
BRANCH  10   9
ATOM      6  N   UNL     1       2.332  -0.019  22.801  0.00  0.00    -0.161 NA
ATOM      7  C   UNL     1       1.771   0.397  23.241  0.00  0.00    +0.344 C 
ATOM      8  O   UNL     1       2.002   1.044  23.698  0.00  0.00    -0.249 OA
ATOM      9  N   UNL     1       0.980   0.165  23.223  0.00  0.00    -0.187 NA
BRANCH   6   5
ATOM      3  C   UNL     1       4.476  -0.028  23.214  0.00  0.00    +0.140 A 
ATOM      4  C   UNL     1       3.684  -0.261  23.196  0.00  0.00    +0.054 A 
ATOM      5  C   UNL     1       3.124   0.213  22.819  0.00  0.00    +0.078 A 
ATOM     29  C   UNL     1       3.355   0.919  22.458  0.00  0.00    +0.017 A 
ATOM     30  C   UNL     1       4.147   1.150  22.476  0.00  0.00    +0.004 A 
ATOM     31  C   UNL     1       4.707   0.677  22.854  0.00  0.00    +0.037 A 
BRANCH   3   2
ATOM      1  C   UNL     1       5.523  -0.180  24.174  0.00  0.00    +0.252 C 
ATOM      2  O   UNL     1       5.037  -0.502  23.592  0.00  0.00    -0.471 OA
ENDBRANCH   3   2
ENDBRANCH   6   5
ENDBRANCH  10   9
ENDBRANCH  11  10
BRANCH  15  16
ATOM     16  C   UNL     1      -2.152  -1.017  24.979  0.00  0.00    +0.089 C 
BRANCH  16  17
ATOM     17  C   UNL     1      -2.910  -0.697  24.920  0.00  0.00    +0.226 C 
ATOM     18  O   UNL     1      -3.064   0.057  25.214  0.00  0.00    -0.275 OA
ATOM     19  N   UNL     1      -3.514  -1.133  24.564  0.00  0.00    -0.280 N 
ATOM     20  C   UNL     1      -4.295  -0.886  24.465  0.00  0.00    +0.093 C 
ATOM     21  C   UNL     1      -4.707  -1.492  24.086  0.00  0.00    +0.023 C 
ATOM     22  C   UNL     1      -4.180  -2.113  23.950  0.00  0.00    +0.023 C 
ATOM     23  C   UNL     1      -3.443  -1.891  24.245  0.00  0.00    +0.093 C 
ENDBRANCH  16  17
ENDBRANCH  15  16
TORSDOF 7
ENDMDL
MODEL 8
REMARK VINA RESULT:      -7.1     17.214     18.735
REMARK  Name = 
REMARK  7 active torsions:
REMARK  status: ('A' for Active; 'I' for Inactive)
REMARK    1  A    between atoms: O_2  and  C_3
REMARK    2  A    between atoms: C_5  and  N_6
REMARK    3  A    between atoms: N_9  and  C_10
REMARK    4  A    between atoms: C_10  and  C_11
REMARK    5  A    between atoms: C_15  and  C_16
REMARK    6  A    between atoms: C_16  and  C_17
REMARK    7  A    between atoms: C_25  and  C_26
REMARK                            x       y       z     vdW  Elec       q    Type
REMARK                         _______ _______ _______ _____ _____    ______ ____
ROOT
ATOM     11  C   UNL     1      -5.744  -8.843   9.959  0.00  0.00    +0.043 C 
ATOM     12  C   UNL     1      -5.200  -8.754   9.345  0.00  0.00    -0.033 C 
ATOM     13  C   UNL     1      -4.411  -8.964   9.460  0.00  0.00    -0.048 C 
ATOM     14  C   UNL     1      -3.866  -8.876   8.846  0.00  0.00    +0.026 C 
ATOM     15  C   UNL     1      -4.165  -9.262  10.188  0.00  0.00    +0.027 C 
ATOM     24  C   UNL     1      -4.709  -9.351  10.803  0.00  0.00    +0.005 C 
ATOM     25  C   UNL     1      -5.499  -9.141  10.687  0.00  0.00    +0.006 C 
ENDROOT
BRANCH  25  26
ATOM     26  C   UNL     1      -6.042  -9.229  11.301  0.00  0.00    +0.000 C 
ATOM     27  C   UNL     1      -6.491  -9.920  11.358  0.00  0.00    +0.000 C 
ATOM     28  C   UNL     1      -6.137  -8.628  11.859  0.00  0.00    +0.000 C 
ENDBRANCH  25  26
BRANCH  11  10
ATOM     10  C   UNL     1      -6.533  -8.633   9.843  0.00  0.00    +0.121 C 
BRANCH  10   9
ATOM      6  N   UNL     1      -7.753  -7.627   8.339  0.00  0.00    -0.161 NA
ATOM      7  C   UNL     1      -7.516  -7.956   9.057  0.00  0.00    +0.344 C 
ATOM      8  O   UNL     1      -8.023  -7.936   9.708  0.00  0.00    -0.249 OA
ATOM      9  N   UNL     1      -6.771  -8.304   9.124  0.00  0.00    -0.187 NA
BRANCH   6   5
ATOM      3  C   UNL     1      -9.317  -6.109   8.211  0.00  0.00    +0.140 A 
ATOM      4  C   UNL     1      -8.572  -6.457   8.278  0.00  0.00    +0.054 A 
ATOM      5  C   UNL     1      -8.498  -7.278   8.271  0.00  0.00    +0.078 A 
ATOM     29  C   UNL     1      -9.170  -7.752   8.196  0.00  0.00    +0.017 A 
ATOM     30  C   UNL     1      -9.915  -7.403   8.129  0.00  0.00    +0.004 A 
ATOM     31  C   UNL     1      -9.988  -6.582   8.136  0.00  0.00    +0.037 A 
BRANCH   3   2
ATOM      1  C   UNL     1      -9.948  -4.926   8.707  0.00  0.00    +0.252 C 
ATOM      2  O   UNL     1      -9.391  -5.286   8.218  0.00  0.00    -0.471 OA
ENDBRANCH   3   2
ENDBRANCH   6   5
ENDBRANCH  10   9
ENDBRANCH  11  10
BRANCH  15  16
ATOM     16  C   UNL     1      -3.375  -9.472  10.304  0.00  0.00    +0.089 C 
BRANCH  16  17
ATOM     17  C   UNL     1      -3.187 -10.135  10.757  0.00  0.00    +0.226 C 
ATOM     18  O   UNL     1      -3.701 -10.779  10.779  0.00  0.00    -0.275 OA
ATOM     19  N   UNL     1      -2.484 -10.152  11.190  0.00  0.00    -0.280 N 
ATOM     20  C   UNL     1      -2.224 -10.774  11.665  0.00  0.00    +0.093 C 
ATOM     21  C   UNL     1      -1.498 -10.557  11.991  0.00  0.00    +0.023 C 
ATOM     22  C   UNL     1      -1.309  -9.802  11.717  0.00  0.00    +0.023 C 
ATOM     23  C   UNL     1      -1.919  -9.552  11.221  0.00  0.00    +0.093 C 
ENDBRANCH  16  17
ENDBRANCH  15  16
TORSDOF 7
ENDMDL
MODEL 9
REMARK VINA RESULT:      -6.5     15.432     16.885
REMARK  Name = 
REMARK  7 active torsions:
REMARK  status: ('A' for Active; 'I' for Inactive)
REMARK    1  A    between atoms: O_2  and  C_3
REMARK    2  A    between atoms: C_5  and  N_6
REMARK    3  A    between atoms: N_9  and  C_10
REMARK    4  A    between atoms: C_10  and  C_11
REMARK    5  A    between atoms: C_15  and  C_16
REMARK    6  A    between atoms: C_16  and  C_17
REMARK    7  A    between atoms: C_25  and  C_26
REMARK                            x       y       z     vdW  Elec       q    Type
REMARK                         _______ _______ _______ _____ _____    ______ ____
ROOT
ATOM     11  C   UNL     1      -5.503 -10.276  13.083  0.00  0.00    +0.043 C 
ATOM     12  C   UNL     1      -4.680 -10.348  13.074  0.00  0.00    -0.033 C 
ATOM     13  C   UNL     1      -4.271 -10.315  12.359  0.00  0.00    -0.048 C 
ATOM     14  C   UNL     1      -3.449 -10.387  12.351  0.00  0.00    +0.026 C 
ATOM     15  C   UNL     1      -4.683 -10.211  11.653  0.00  0.00    +0.027 C 
ATOM     24  C   UNL     1      -5.505 -10.139  11.660  0.00  0.00    +0.005 C 
ATOM     25  C   UNL     1      -5.914 -10.172  12.377  0.00  0.00    +0.006 C 
ENDROOT
BRANCH  25  26
ATOM     26  C   UNL     1      -6.736 -10.101  12.384  0.00  0.00    +0.000 C 
ATOM     27  C   UNL     1      -7.209 -10.772  12.298  0.00  0.00    +0.000 C 
ATOM     28  C   UNL     1      -7.085  -9.359  12.479  0.00  0.00    +0.000 C 
ENDBRANCH  25  26
BRANCH  11  10
ATOM     10  C   UNL     1      -5.912 -10.309  13.798  0.00  0.00    +0.121 C 
BRANCH  10   9
ATOM      6  N   UNL     1      -5.572  -9.697  15.866  0.00  0.00    -0.161 NA
ATOM      7  C   UNL     1      -5.851 -10.118  15.213  0.00  0.00    +0.344 C 
ATOM      8  O   UNL     1      -6.347 -10.768  15.322  0.00  0.00    -0.249 OA
ATOM      9  N   UNL     1      -5.633  -9.888  14.452  0.00  0.00    -0.187 NA
BRANCH   6   5
ATOM      3  C   UNL     1      -6.734  -9.918  17.702  0.00  0.00    +0.140 A 
ATOM      4  C   UNL     1      -6.516  -9.688  16.939  0.00  0.00    +0.054 A 
ATOM      5  C   UNL     1      -5.791  -9.927  16.628  0.00  0.00    +0.078 A 
ATOM     29  C   UNL     1      -5.282 -10.396  17.079  0.00  0.00    +0.017 A 
ATOM     30  C   UNL     1      -5.500 -10.626  17.841  0.00  0.00    +0.004 A 
ATOM     31  C   UNL     1      -6.226 -10.387  18.152  0.00  0.00    +0.037 A 
BRANCH   3   2
ATOM      1  C   UNL     1      -7.846 -10.151  18.568  0.00  0.00    +0.252 C 
ATOM      2  O   UNL     1      -7.460  -9.679  18.013  0.00  0.00    -0.471 OA
ENDBRANCH   3   2
ENDBRANCH   6   5
ENDBRANCH  10   9
ENDBRANCH  11  10
BRANCH  15  16
ATOM     16  C   UNL     1      -4.273 -10.178  10.937  0.00  0.00    +0.089 C 
BRANCH  16  17
ATOM     17  C   UNL     1      -4.408  -9.555  10.413  0.00  0.00    +0.226 C 
ATOM     18  O   UNL     1      -4.450  -8.782  10.695  0.00  0.00    -0.275 OA
ATOM     19  N   UNL     1      -4.500  -9.707   9.607  0.00  0.00    -0.280 N 
ATOM     20  C   UNL     1      -4.637  -9.143   9.021  0.00  0.00    +0.093 C 
ATOM     21  C   UNL     1      -4.694  -9.536   8.298  0.00  0.00    +0.023 C 
ATOM     22  C   UNL     1      -4.592 -10.343   8.437  0.00  0.00    +0.023 C 
ATOM     23  C   UNL     1      -4.472 -10.449   9.246  0.00  0.00    +0.093 C 
ENDBRANCH  16  17
ENDBRANCH  15  16
TORSDOF 7
ENDMDL
MODEL 10
REMARK VINA RESULT:      -6.2     14.700     15.477
REMARK  Name = 
REMARK  7 active torsions:
REMARK  status: ('A' for Active; 'I' for Inactive)
REMARK    1  A    between atoms: O_2  and  C_3
REMARK    2  A    between atoms: C_5  and  N_6
REMARK    3  A    between atoms: N_9  and  C_10
REMARK    4  A    between atoms: C_10  and  C_11
REMARK    5  A    between atoms: C_15  and  C_16
REMARK    6  A    between atoms: C_16  and  C_17
REMARK    7  A    between atoms: C_25  and  C_26
REMARK                            x       y       z     vdW  Elec       q    Type
REMARK                         _______ _______ _______ _____ _____    ______ ____
ROOT
ATOM     11  C   UNL     1      -6.077 -10.093  14.571  0.00  0.00    +0.043 C 
ATOM     12  C   UNL     1      -5.585 -10.113  15.233  0.00  0.00    -0.033 C 
ATOM     13  C   UNL     1      -5.913 -10.142  15.989  0.00  0.00    -0.048 C 
ATOM     14  C   UNL     1      -5.421 -10.162  16.652  0.00  0.00    +0.026 C 
ATOM     15  C   UNL     1      -6.732 -10.150  16.084  0.00  0.00    +0.027 C 
ATOM     24  C   UNL     1      -7.224 -10.130  15.422  0.00  0.00    +0.005 C 
ATOM     25  C   UNL     1      -6.896 -10.101  14.665  0.00  0.00    +0.006 C 
ENDROOT
BRANCH  25  26
ATOM     26  C   UNL     1      -7.388 -10.081  14.003  0.00  0.00    +0.000 C 
ATOM     27  C   UNL     1      -7.710 -10.781  13.708  0.00  0.00    +0.000 C 
ATOM     28  C   UNL     1      -7.558  -9.361  13.637  0.00  0.00    +0.000 C 
ENDBRANCH  25  26
BRANCH  11  10
ATOM     10  C   UNL     1      -5.749 -10.064  13.815  0.00  0.00    +0.121 C 
BRANCH  10   9
ATOM      6  N   UNL     1      -3.910 -10.708  12.831  0.00  0.00    -0.161 NA
ATOM      7  C   UNL     1      -4.597 -10.283  12.998  0.00  0.00    +0.344 C 
ATOM      8  O   UNL     1      -4.819  -9.652  12.515  0.00  0.00    -0.249 OA
ATOM      9  N   UNL     1      -5.061 -10.489  13.648  0.00  0.00    -0.187 NA
BRANCH   6   5
ATOM      3  C   UNL     1      -2.189 -10.090  11.638  0.00  0.00    +0.140 A 
ATOM      4  C   UNL     1      -2.653 -10.296  12.288  0.00  0.00    +0.054 A 
ATOM      5  C   UNL     1      -3.445 -10.501  12.181  0.00  0.00    +0.078 A 
ATOM     29  C   UNL     1      -3.773 -10.500  11.423  0.00  0.00    +0.017 A 
ATOM     30  C   UNL     1      -3.308 -10.293  10.774  0.00  0.00    +0.004 A 
ATOM     31  C   UNL     1      -2.516 -10.089  10.881  0.00  0.00    +0.037 A 
BRANCH   3   2
ATOM      1  C   UNL     1      -1.048  -9.316  11.261  0.00  0.00    +0.252 C 
ATOM      2  O   UNL     1      -1.396  -9.885  11.745  0.00  0.00    -0.471 OA
ENDBRANCH   3   2
ENDBRANCH   6   5
ENDBRANCH  10   9
ENDBRANCH  11  10
BRANCH  15  16
ATOM     16  C   UNL     1      -7.060 -10.179  16.841  0.00  0.00    +0.089 C 
BRANCH  16  17
ATOM     17  C   UNL     1      -7.657  -9.650  17.051  0.00  0.00    +0.226 C 
ATOM     18  O   UNL     1      -7.643  -8.877  16.766  0.00  0.00    -0.275 OA
ATOM     19  N   UNL     1      -8.270  -9.896  17.548  0.00  0.00    -0.280 N 
ATOM     20  C   UNL     1      -8.901  -9.432  17.804  0.00  0.00    +0.093 C 
ATOM     21  C   UNL     1      -9.379  -9.898  18.289  0.00  0.00    +0.023 C 
ATOM     22  C   UNL     1      -9.042 -10.650  18.333  0.00  0.00    +0.023 C 
ATOM     23  C   UNL     1      -8.356 -10.649  17.874  0.00  0.00    +0.093 C 
ENDBRANCH  16  17
ENDBRANCH  15  16
TORSDOF 7
ENDMDL
