MODEL 1
REMARK VINA RESULT:     -12.5      0.000      0.000
REMARK  Name = 
REMARK  1 active torsions:
REMARK  status: ('A' for Active; 'I' for Inactive)
REMARK    1  A    between atoms: C_10  and  N_11
REMARK                            x       y       z     vdW  Elec       q    Type
REMARK                         _______ _______ _______ _____ _____    ______ ____
ROOT
ATOM      1  C   UNL     1      -4.277  -0.946  24.499  0.00  0.00    +0.012 C 
ATOM      2  C   UNL     1      -3.821  -0.259  24.516  0.00  0.00    +0.103 C 
ATOM      3  C   UNL     1      -4.104   0.509  24.629  0.00  0.00    +0.051 C 
ATOM      4  C   UNL     1      -4.865   0.803  24.750  0.00  0.00    +0.004 C 
ATOM      5  C   UNL     1      -4.982   1.614  24.847  0.00  0.00    +0.000 C 
ATOM      6  C   UNL     1      -4.338   2.130  24.824  0.00  0.00    +0.003 C 
ATOM      7  C   UNL     1      -5.098   2.426  24.945  0.00  0.00    +0.000 C 
ATOM      8  C   UNL     1      -4.455   2.940  24.921  0.00  0.00    +0.002 C 
ATOM      9  C   UNL     1      -3.811   3.456  24.898  0.00  0.00    +0.022 C 
ATOM     10  C   UNL     1      -3.051   3.160  24.777  0.00  0.00    +0.095 C 
ATOM     15  C   UNL     1      -2.933   2.349  24.680  0.00  0.00    +0.023 C 
ATOM     16  C   UNL     1      -2.173   2.054  24.559  0.00  0.00    +0.002 C 
ATOM     17  C   UNL     1      -3.577   1.835  24.703  0.00  0.00    +0.042 C 
ATOM     18  C   UNL     1      -3.461   1.023  24.606  0.00  0.00    +0.169 C 
ATOM     19  O   UNL     1      -2.779   0.575  24.478  0.00  0.00    -0.452 OA
ATOM     20  C   UNL     1      -3.002  -0.217  24.423  0.00  0.00    +0.316 C 
ATOM     21  O   UNL     1      -2.496  -0.856  24.297  0.00  0.00    -0.250 OA
ENDROOT
BRANCH  10  11
ATOM     11  N   UNL     1      -2.406   3.675  24.754  0.00  0.00    -0.207 NA
ATOM     12  C   UNL     1      -2.307   4.240  25.345  0.00  0.00    +0.242 C 
ATOM     13  C   UNL     1      -1.662   4.755  25.322  0.00  0.00    +0.096 C 
ATOM     14  O   UNL     1      -2.852   4.291  25.963  0.00  0.00    -0.273 OA
ENDBRANCH  10  11
TORSDOF 1
ENDMDL
MODEL 2
REMARK VINA RESULT:     -12.5      1.754      3.823
REMARK  Name = 
REMARK  1 active torsions:
REMARK  status: ('A' for Active; 'I' for Inactive)
REMARK    1  A    between atoms: C_10  and  N_11
REMARK                            x       y       z     vdW  Elec       q    Type
REMARK                         _______ _______ _______ _____ _____    ______ ____
ROOT
ATOM      1  C   UNL     1      -5.088   3.890  25.373  0.00  0.00    +0.012 C 
ATOM      2  C   UNL     1      -5.032   3.068  25.334  0.00  0.00    +0.103 C 
ATOM      3  C   UNL     1      -4.534   2.639  24.833  0.00  0.00    +0.051 C 
ATOM      4  C   UNL     1      -3.986   2.876  24.266  0.00  0.00    +0.004 C 
ATOM      5  C   UNL     1      -3.560   2.310  23.842  0.00  0.00    +0.000 C 
ATOM      6  C   UNL     1      -3.684   1.507  23.987  0.00  0.00    +0.003 C 
ATOM      7  C   UNL     1      -3.135   1.744  23.418  0.00  0.00    +0.000 C 
ATOM      8  C   UNL     1      -3.258   0.941  23.563  0.00  0.00    +0.002 C 
ATOM      9  C   UNL     1      -3.382   0.139  23.708  0.00  0.00    +0.022 C 
ATOM     10  C   UNL     1      -3.931  -0.098  24.277  0.00  0.00    +0.095 C 
ATOM     15  C   UNL     1      -4.356   0.468  24.700  0.00  0.00    +0.023 C 
ATOM     16  C   UNL     1      -4.905   0.231  25.269  0.00  0.00    +0.002 C 
ATOM     17  C   UNL     1      -4.233   1.270  24.555  0.00  0.00    +0.042 C 
ATOM     18  C   UNL     1      -4.658   1.837  24.979  0.00  0.00    +0.169 C 
ATOM     19  O   UNL     1      -5.232   1.769  25.569  0.00  0.00    -0.452 OA
ATOM     20  C   UNL     1      -5.462   2.530  25.788  0.00  0.00    +0.316 C 
ATOM     21  O   UNL     1      -6.025   2.721  26.360  0.00  0.00    -0.250 OA
ENDROOT
BRANCH  10  11
ATOM     11  N   UNL     1      -4.055  -0.901  24.422  0.00  0.00    -0.207 NA
ATOM     12  C   UNL     1      -3.413  -1.414  24.480  0.00  0.00    +0.242 C 
ATOM     13  C   UNL     1      -3.538  -2.217  24.626  0.00  0.00    +0.096 C 
ATOM     14  O   UNL     1      -2.645  -1.126  24.392  0.00  0.00    -0.273 OA
ENDBRANCH  10  11
TORSDOF 1
ENDMDL
MODEL 3
REMARK VINA RESULT:     -12.2      1.690      2.970
REMARK  Name = 
REMARK  1 active torsions:
REMARK  status: ('A' for Active; 'I' for Inactive)
REMARK    1  A    between atoms: C_10  and  N_11
REMARK                            x       y       z     vdW  Elec       q    Type
REMARK                         _______ _______ _______ _____ _____    ______ ____
ROOT
ATOM      1  C   UNL     1      -1.206  -2.639  24.700  0.00  0.00    +0.012 C 
ATOM      2  C   UNL     1      -1.516  -1.874  24.729  0.00  0.00    +0.103 C 
ATOM      3  C   UNL     1      -2.302  -1.664  24.592  0.00  0.00    +0.051 C 
ATOM      4  C   UNL     1      -2.967  -2.113  24.399  0.00  0.00    +0.004 C 
ATOM      5  C   UNL     1      -3.697  -1.743  24.293  0.00  0.00    +0.000 C 
ATOM      6  C   UNL     1      -3.761  -0.924  24.379  0.00  0.00    +0.003 C 
ATOM      7  C   UNL     1      -4.427  -1.372  24.186  0.00  0.00    +0.000 C 
ATOM      8  C   UNL     1      -4.491  -0.555  24.273  0.00  0.00    +0.002 C 
ATOM      9  C   UNL     1      -4.555   0.263  24.360  0.00  0.00    +0.022 C 
ATOM     10  C   UNL     1      -3.890   0.711  24.552  0.00  0.00    +0.095 C 
ATOM     15  C   UNL     1      -3.160   0.341  24.659  0.00  0.00    +0.023 C 
ATOM     16  C   UNL     1      -2.494   0.789  24.852  0.00  0.00    +0.002 C 
ATOM     17  C   UNL     1      -3.096  -0.476  24.572  0.00  0.00    +0.042 C 
ATOM     18  C   UNL     1      -2.366  -0.847  24.678  0.00  0.00    +0.169 C 
ATOM     19  O   UNL     1      -1.619  -0.551  24.870  0.00  0.00    -0.452 OA
ATOM     20  C   UNL     1      -1.095  -1.186  24.901  0.00  0.00    +0.316 C 
ATOM     21  O   UNL     1      -0.289  -1.141  25.074  0.00  0.00    -0.250 OA
ENDROOT
BRANCH  10  11
ATOM     11  N   UNL     1      -3.953   1.530  24.639  0.00  0.00    -0.207 NA
ATOM     12  C   UNL     1      -4.623   1.857  24.989  0.00  0.00    +0.242 C 
ATOM     13  C   UNL     1      -4.687   2.675  25.076  0.00  0.00    +0.096 C 
ATOM     14  O   UNL     1      -5.233   1.366  25.253  0.00  0.00    -0.273 OA
ENDBRANCH  10  11
TORSDOF 1
ENDMDL
MODEL 4
REMARK VINA RESULT:     -12.2      1.311      3.473
REMARK  Name = 
REMARK  1 active torsions:
REMARK  status: ('A' for Active; 'I' for Inactive)
REMARK    1  A    between atoms: C_10  and  N_11
REMARK                            x       y       z     vdW  Elec       q    Type
REMARK                         _______ _______ _______ _____ _____    ______ ____
ROOT
ATOM      1  C   UNL     1      -1.769   4.754  25.364  0.00  0.00    +0.012 C 
ATOM      2  C   UNL     1      -1.964   3.997  25.100  0.00  0.00    +0.103 C 
ATOM      3  C   UNL     1      -2.706   3.640  25.155  0.00  0.00    +0.051 C 
ATOM      4  C   UNL     1      -3.424   3.905  25.462  0.00  0.00    +0.004 C 
ATOM      5  C   UNL     1      -4.088   3.415  25.440  0.00  0.00    +0.000 C 
ATOM      6  C   UNL     1      -4.033   2.661  25.109  0.00  0.00    +0.003 C 
ATOM      7  C   UNL     1      -4.752   2.925  25.417  0.00  0.00    +0.000 C 
ATOM      8  C   UNL     1      -4.697   2.172  25.086  0.00  0.00    +0.002 C 
ATOM      9  C   UNL     1      -4.642   1.418  24.756  0.00  0.00    +0.022 C 
ATOM     10  C   UNL     1      -3.924   1.153  24.448  0.00  0.00    +0.095 C 
ATOM     15  C   UNL     1      -3.260   1.643  24.471  0.00  0.00    +0.023 C 
ATOM     16  C   UNL     1      -2.541   1.378  24.163  0.00  0.00    +0.002 C 
ATOM     17  C   UNL     1      -3.315   2.396  24.801  0.00  0.00    +0.042 C 
ATOM     18  C   UNL     1      -2.651   2.887  24.824  0.00  0.00    +0.169 C 
ATOM     19  O   UNL     1      -1.875   2.777  24.566  0.00  0.00    -0.452 OA
ATOM     20  C   UNL     1      -1.451   3.463  24.736  0.00  0.00    +0.316 C 
ATOM     21  O   UNL     1      -0.652   3.594  24.572  0.00  0.00    -0.250 OA
ENDROOT
BRANCH  10  11
ATOM     11  N   UNL     1      -3.868   0.399  24.118  0.00  0.00    -0.207 NA
ATOM     12  C   UNL     1      -4.140  -0.256  24.536  0.00  0.00    +0.242 C 
ATOM     13  C   UNL     1      -4.084  -1.010  24.205  0.00  0.00    +0.096 C 
ATOM     14  O   UNL     1      -4.469  -0.159  25.287  0.00  0.00    -0.273 OA
ENDBRANCH  10  11
TORSDOF 1
ENDMDL
MODEL 5
REMARK VINA RESULT:     -11.8      1.537      3.078
REMARK  Name = 
REMARK  1 active torsions:
REMARK  status: ('A' for Active; 'I' for Inactive)
REMARK    1  A    between atoms: C_10  and  N_11
REMARK                            x       y       z     vdW  Elec       q    Type
REMARK                         _______ _______ _______ _____ _____    ______ ____
ROOT
ATOM      1  C   UNL     1       0.197   2.341  25.433  0.00  0.00    +0.012 C 
ATOM      2  C   UNL     1      -0.595   2.183  25.261  0.00  0.00    +0.103 C 
ATOM      3  C   UNL     1      -1.232   2.691  25.397  0.00  0.00    +0.051 C 
ATOM      4  C   UNL     1      -1.273   3.449  25.719  0.00  0.00    +0.004 C 
ATOM      5  C   UNL     1      -2.003   3.829  25.787  0.00  0.00    +0.000 C 
ATOM      6  C   UNL     1      -2.691   3.449  25.533  0.00  0.00    +0.003 C 
ATOM      7  C   UNL     1      -2.733   4.207  25.855  0.00  0.00    +0.000 C 
ATOM      8  C   UNL     1      -3.420   3.828  25.601  0.00  0.00    +0.002 C 
ATOM      9  C   UNL     1      -4.107   3.449  25.347  0.00  0.00    +0.022 C 
ATOM     10  C   UNL     1      -4.065   2.691  25.025  0.00  0.00    +0.095 C 
ATOM     15  C   UNL     1      -3.335   2.312  24.956  0.00  0.00    +0.023 C 
ATOM     16  C   UNL     1      -3.293   1.553  24.634  0.00  0.00    +0.002 C 
ATOM     17  C   UNL     1      -2.648   2.691  25.211  0.00  0.00    +0.042 C 
ATOM     18  C   UNL     1      -1.918   2.312  25.143  0.00  0.00    +0.169 C 
ATOM     19  O   UNL     1      -1.707   1.569  24.850  0.00  0.00    -0.452 OA
ATOM     20  C   UNL     1      -0.890   1.490  24.923  0.00  0.00    +0.316 C 
ATOM     21  O   UNL     1      -0.443   0.834  24.698  0.00  0.00    -0.250 OA
ENDROOT
BRANCH  10  11
ATOM     11  N   UNL     1      -4.752   2.311  24.770  0.00  0.00    -0.207 NA
ATOM     12  C   UNL     1      -5.430   2.327  25.238  0.00  0.00    +0.242 C 
ATOM     13  C   UNL     1      -6.117   1.947  24.983  0.00  0.00    +0.096 C 
ATOM     14  O   UNL     1      -5.422   2.723  25.962  0.00  0.00    -0.273 OA
ENDBRANCH  10  11
TORSDOF 1
ENDMDL
MODEL 6
REMARK VINA RESULT:     -11.7      1.349      3.367
REMARK  Name = 
REMARK  1 active torsions:
REMARK  status: ('A' for Active; 'I' for Inactive)
REMARK    1  A    between atoms: C_10  and  N_11
REMARK                            x       y       z     vdW  Elec       q    Type
REMARK                         _______ _______ _______ _____ _____    ______ ____
ROOT
ATOM      1  C   UNL     1      -5.176   3.153  25.108  0.00  0.00    +0.012 C 
ATOM      2  C   UNL     1      -4.471   2.736  25.006  0.00  0.00    +0.103 C 
ATOM      3  C   UNL     1      -4.399   1.917  24.925  0.00  0.00    +0.051 C 
ATOM      4  C   UNL     1      -4.960   1.312  24.921  0.00  0.00    +0.004 C 
ATOM      5  C   UNL     1      -4.720   0.528  24.828  0.00  0.00    +0.000 C 
ATOM      6  C   UNL     1      -3.918   0.350  24.739  0.00  0.00    +0.003 C 
ATOM      7  C   UNL     1      -4.479  -0.256  24.734  0.00  0.00    +0.000 C 
ATOM      8  C   UNL     1      -3.678  -0.433  24.646  0.00  0.00    +0.002 C 
ATOM      9  C   UNL     1      -2.878  -0.612  24.557  0.00  0.00    +0.022 C 
ATOM     10  C   UNL     1      -2.317  -0.007  24.562  0.00  0.00    +0.095 C 
ATOM     15  C   UNL     1      -2.558   0.778  24.655  0.00  0.00    +0.023 C 
ATOM     16  C   UNL     1      -1.997   1.383  24.659  0.00  0.00    +0.002 C 
ATOM     17  C   UNL     1      -3.358   0.955  24.743  0.00  0.00    +0.042 C 
ATOM     18  C   UNL     1      -3.599   1.739  24.836  0.00  0.00    +0.169 C 
ATOM     19  O   UNL     1      -3.175   2.448  24.863  0.00  0.00    -0.452 OA
ATOM     20  C   UNL     1      -3.714   3.062  24.967  0.00  0.00    +0.316 C 
ATOM     21  O   UNL     1      -3.530   3.865  25.024  0.00  0.00    -0.250 OA
ENDROOT
BRANCH  10  11
ATOM     11  N   UNL     1      -1.516  -0.184  24.473  0.00  0.00    -0.207 NA
ATOM     12  C   UNL     1      -1.196  -0.846  24.845  0.00  0.00    +0.242 C 
ATOM     13  C   UNL     1      -0.395  -1.023  24.756  0.00  0.00    +0.096 C 
ATOM     14  O   UNL     1      -1.677  -1.333  25.306  0.00  0.00    -0.273 OA
ENDBRANCH  10  11
TORSDOF 1
ENDMDL
