MODEL 1
REMARK VINA RESULT:     -12.6      0.000      0.000
REMARK  Name = 
REMARK  6 active torsions:
REMARK  status: ('A' for Active; 'I' for Inactive)
REMARK    1  A    between atoms: C_2  and  C_4
REMARK    2  A    between atoms: N_7  and  C_10
REMARK    3  A    between atoms: C_12  and  C_16
REMARK    4  A    between atoms: C_19  and  C_21
REMARK    5  A    between atoms: N_25  and  C_26
REMARK    6  A    between atoms: C_26  and  C_27
REMARK                            x       y       z     vdW  Elec       q    Type
REMARK                         _______ _______ _______ _____ _____    ______ ____
ROOT
ATOM     16  C   UNL     1      -0.527   2.592  24.945  0.00  0.00    +0.203 A 
ATOM     17  N   UNL     1       0.116   2.398  25.424  0.00  0.00    -0.056 NA
ATOM     18  O   UNL     1       0.426   1.681  25.156  0.00  0.00    -0.336 OA
ATOM     19  C   UNL     1      -0.026   1.433  24.513  0.00  0.00    +0.251 A 
ATOM     20  N   UNL     1      -0.615   1.995  24.382  0.00  0.00    -0.190 NA
ENDROOT
BRANCH  16  12
ATOM     10  C   UNL     1      -2.288   3.859  25.181  0.00  0.00    +0.132 A 
ATOM     11  C   UNL     1      -1.816   3.186  25.109  0.00  0.00    +0.037 A 
ATOM     12  C   UNL     1      -1.000   3.264  25.017  0.00  0.00    +0.043 A 
ATOM     13  C   UNL     1      -0.656   4.014  24.998  0.00  0.00    +0.024 A 
ATOM     14  C   UNL     1      -1.129   4.686  25.070  0.00  0.00    +0.100 A 
ATOM     15  N   UNL     1      -1.945   4.608  25.161  0.00  0.00    -0.229 NA
BRANCH  10   7
ATOM      4  C   UNL     1      -4.737   3.626  25.457  0.00  0.00    +0.083 C 
ATOM      5  C   UNL     1      -4.398   3.557  24.708  0.00  0.00    +0.031 C 
ATOM      6  C   UNL     1      -3.582   3.635  24.616  0.00  0.00    +0.093 C 
ATOM      7  N   UNL     1      -3.105   3.781  25.273  0.00  0.00    -0.293 N 
ATOM      8  C   UNL     1      -3.444   3.849  26.022  0.00  0.00    +0.093 C 
ATOM      9  C   UNL     1      -4.260   3.772  26.115  0.00  0.00    +0.031 C 
BRANCH   4   2
ATOM      1  N   UNL     1      -5.907   2.806  25.485  0.00  0.00    -0.088 NA
ATOM      2  C   UNL     1      -5.553   3.548  25.550  0.00  0.00    +0.260 C 
ATOM      3  O   UNL     1      -6.015   4.214  25.707  0.00  0.00    -0.272 OA
ENDBRANCH   4   2
ENDBRANCH  10   7
ENDBRANCH  16  12
BRANCH  19  21
ATOM     21  C   UNL     1       0.091   0.742  24.076  0.00  0.00    +0.138 C 
ATOM     22  C   UNL     1       0.559   0.669  23.401  0.00  0.00    +0.027 C 
ATOM     23  C   UNL     1       0.517  -0.115  23.146  0.00  0.00    +0.019 C 
ATOM     24  C   UNL     1       0.023  -0.525  23.662  0.00  0.00    +0.073 C 
ATOM     25  N   UNL     1      -0.241   0.004  24.238  0.00  0.00    -0.263 NA
BRANCH  25  26
ATOM     26  C   UNL     1      -0.747  -0.173  24.864  0.00  0.00    +0.100 C 
BRANCH  26  27
ATOM     27  C   UNL     1      -1.241  -0.834  24.822  0.00  0.00    -0.003 A 
ATOM     28  C   UNL     1      -0.947  -1.581  25.013  0.00  0.00    +0.000 A 
ATOM     29  C   UNL     1      -1.440  -2.240  24.971  0.00  0.00    +0.040 A 
ATOM     30  C   UNL     1      -2.227  -2.154  24.738  0.00  0.00    +0.176 A 
ATOM     31  O   UNL     1      -2.839  -2.698  24.645  0.00  0.00    -0.435 OA
ATOM     32  C   UNL     1      -3.511  -2.288  24.397  0.00  0.00    +0.429 C 
ATOM     33  O   UNL     1      -3.313  -1.490  24.337  0.00  0.00    -0.435 OA
ATOM     34  C   UNL     1      -2.521  -1.406  24.547  0.00  0.00    +0.176 A 
ATOM     35  C   UNL     1      -2.027  -0.746  24.589  0.00  0.00    +0.037 A 
ENDBRANCH  26  27
ENDBRANCH  25  26
ENDBRANCH  19  21
TORSDOF 6
ENDMDL
MODEL 2
REMARK VINA RESULT:     -12.1      1.674      3.618
REMARK  Name = 
REMARK  6 active torsions:
REMARK  status: ('A' for Active; 'I' for Inactive)
REMARK    1  A    between atoms: C_2  and  C_4
REMARK    2  A    between atoms: N_7  and  C_10
REMARK    3  A    between atoms: C_12  and  C_16
REMARK    4  A    between atoms: C_19  and  C_21
REMARK    5  A    between atoms: N_25  and  C_26
REMARK    6  A    between atoms: C_26  and  C_27
REMARK                            x       y       z     vdW  Elec       q    Type
REMARK                         _______ _______ _______ _____ _____    ______ ____
ROOT
ATOM     16  C   UNL     1      -4.616   0.971  25.243  0.00  0.00    +0.203 A 
ATOM     17  N   UNL     1      -4.921   0.486  25.838  0.00  0.00    -0.056 NA
ATOM     18  O   UNL     1      -4.715  -0.294  25.661  0.00  0.00    -0.336 OA
ATOM     19  C   UNL     1      -4.285  -0.290  24.958  0.00  0.00    +0.251 A 
ATOM     20  N   UNL     1      -4.223   0.491  24.699  0.00  0.00    -0.190 NA
ENDROOT
BRANCH  16  12
ATOM     10  C   UNL     1      -4.094   3.088  25.151  0.00  0.00    +0.132 A 
ATOM     11  C   UNL     1      -4.018   2.268  25.193  0.00  0.00    +0.037 A 
ATOM     12  C   UNL     1      -4.692   1.791  25.201  0.00  0.00    +0.043 A 
ATOM     13  C   UNL     1      -5.441   2.135  25.166  0.00  0.00    +0.024 A 
ATOM     14  C   UNL     1      -5.516   2.955  25.124  0.00  0.00    +0.100 A 
ATOM     15  N   UNL     1      -4.842   3.432  25.116  0.00  0.00    -0.229 NA
BRANCH  10   7
ATOM      4  C   UNL     1      -2.072   4.516  25.127  0.00  0.00    +0.083 C 
ATOM      5  C   UNL     1      -2.428   4.317  25.845  0.00  0.00    +0.031 C 
ATOM      6  C   UNL     1      -3.102   3.840  25.852  0.00  0.00    +0.093 C 
ATOM      7  N   UNL     1      -3.420   3.564  25.143  0.00  0.00    -0.293 N 
ATOM      8  C   UNL     1      -3.064   3.763  24.426  0.00  0.00    +0.093 C 
ATOM      9  C   UNL     1      -2.390   4.239  24.418  0.00  0.00    +0.031 C 
BRANCH   4   2
ATOM      1  N   UNL     1      -0.651   4.648  25.061  0.00  0.00    -0.088 NA
ATOM      2  C   UNL     1      -1.399   4.992  25.119  0.00  0.00    +0.260 C 
ATOM      3  O   UNL     1      -1.473   5.813  25.169  0.00  0.00    -0.272 OA
ENDBRANCH   4   2
ENDBRANCH  10   7
ENDBRANCH  16  12
BRANCH  19  21
ATOM     21  C   UNL     1      -3.970  -0.952  24.578  0.00  0.00    +0.138 C 
ATOM     22  C   UNL     1      -4.373  -1.450  24.059  0.00  0.00    +0.027 C 
ATOM     23  C   UNL     1      -3.849  -2.038  23.812  0.00  0.00    +0.019 C 
ATOM     24  C   UNL     1      -3.123  -1.904  24.179  0.00  0.00    +0.073 C 
ATOM     25  N   UNL     1      -3.198  -1.232  24.653  0.00  0.00    -0.263 NA
BRANCH  25  26
ATOM     26  C   UNL     1      -2.604  -0.899  25.119  0.00  0.00    +0.100 C 
BRANCH  26  27
ATOM     27  C   UNL     1      -1.818  -0.924  24.867  0.00  0.00    -0.003 A 
ATOM     28  C   UNL     1      -1.335  -1.556  25.086  0.00  0.00    +0.000 A 
ATOM     29  C   UNL     1      -0.550  -1.581  24.834  0.00  0.00    +0.040 A 
ATOM     30  C   UNL     1      -0.248  -0.975  24.363  0.00  0.00    +0.176 A 
ATOM     31  O   UNL     1       0.498  -0.851  24.034  0.00  0.00    -0.435 OA
ATOM     32  C   UNL     1       0.476  -0.143  23.611  0.00  0.00    +0.429 C 
ATOM     33  O   UNL     1      -0.284   0.170  23.679  0.00  0.00    -0.435 OA
ATOM     34  C   UNL     1      -0.731  -0.343  24.144  0.00  0.00    +0.176 A 
ATOM     35  C   UNL     1      -1.517  -0.318  24.396  0.00  0.00    +0.037 A 
ENDBRANCH  26  27
ENDBRANCH  25  26
ENDBRANCH  19  21
TORSDOF 6
ENDMDL
MODEL 3
REMARK VINA RESULT:     -12.1      1.058      4.931
REMARK  Name = 
REMARK  6 active torsions:
REMARK  status: ('A' for Active; 'I' for Inactive)
REMARK    1  A    between atoms: C_2  and  C_4
REMARK    2  A    between atoms: N_7  and  C_10
REMARK    3  A    between atoms: C_12  and  C_16
REMARK    4  A    between atoms: C_19  and  C_21
REMARK    5  A    between atoms: N_25  and  C_26
REMARK    6  A    between atoms: C_26  and  C_27
REMARK                            x       y       z     vdW  Elec       q    Type
REMARK                         _______ _______ _______ _____ _____    ______ ____
ROOT
ATOM     16  C   UNL     1      -0.182   1.741  24.821  0.00  0.00    +0.203 A 
ATOM     17  N   UNL     1       0.296   1.982  25.448  0.00  0.00    -0.056 NA
ATOM     18  O   UNL     1       0.108   2.766  25.625  0.00  0.00    -0.336 OA
ATOM     19  C   UNL     1      -0.487   3.009  25.108  0.00  0.00    +0.251 A 
ATOM     20  N   UNL     1      -0.666   2.375  24.610  0.00  0.00    -0.190 NA
ENDROOT
BRANCH  16  12
ATOM     10  C   UNL     1      -0.780  -0.284  24.271  0.00  0.00    +0.132 A 
ATOM     11  C   UNL     1      -0.785   0.460  24.625  0.00  0.00    +0.037 A 
ATOM     12  C   UNL     1      -0.177   0.996  24.466  0.00  0.00    +0.043 A 
ATOM     13  C   UNL     1       0.434   0.787  23.954  0.00  0.00    +0.024 A 
ATOM     14  C   UNL     1       0.439   0.042  23.600  0.00  0.00    +0.100 A 
ATOM     15  N   UNL     1      -0.169  -0.494  23.758  0.00  0.00    -0.229 NA
BRANCH  10   7
ATOM      4  C   UNL     1      -2.602  -1.891  24.745  0.00  0.00    +0.083 C 
ATOM      5  C   UNL     1      -2.782  -1.111  24.547  0.00  0.00    +0.031 C 
ATOM      6  C   UNL     1      -2.174  -0.576  24.388  0.00  0.00    +0.093 C 
ATOM      7  N   UNL     1      -1.388  -0.820  24.429  0.00  0.00    -0.293 N 
ATOM      8  C   UNL     1      -1.208  -1.600  24.627  0.00  0.00    +0.093 C 
ATOM      9  C   UNL     1      -1.814  -2.136  24.786  0.00  0.00    +0.031 C 
BRANCH   4   2
ATOM      1  N   UNL     1      -3.537  -2.871  24.291  0.00  0.00    -0.088 NA
ATOM      2  C   UNL     1      -3.208  -2.428  24.904  0.00  0.00    +0.260 C 
ATOM      3  O   UNL     1      -3.486  -2.519  25.676  0.00  0.00    -0.272 OA
ENDBRANCH   4   2
ENDBRANCH  10   7
ENDBRANCH  16  12
BRANCH  19  21
ATOM     21  C   UNL     1      -0.840   3.754  25.090  0.00  0.00    +0.138 C 
ATOM     22  C   UNL     1      -0.537   4.426  24.720  0.00  0.00    +0.027 C 
ATOM     23  C   UNL     1      -1.068   5.046  24.841  0.00  0.00    +0.019 C 
ATOM     24  C   UNL     1      -1.699   4.757  25.285  0.00  0.00    +0.073 C 
ATOM     25  N   UNL     1      -1.558   3.959  25.440  0.00  0.00    -0.263 NA
BRANCH  25  26
ATOM     26  C   UNL     1      -2.050   3.454  25.868  0.00  0.00    +0.100 C 
BRANCH  26  27
ATOM     27  C   UNL     1      -2.870   3.546  25.831  0.00  0.00    -0.003 A 
ATOM     28  C   UNL     1      -3.241   4.122  26.291  0.00  0.00    +0.000 A 
ATOM     29  C   UNL     1      -4.060   4.213  26.254  0.00  0.00    +0.040 A 
ATOM     30  C   UNL     1      -4.508   3.730  25.758  0.00  0.00    +0.176 A 
ATOM     31  O   UNL     1      -5.317   3.692  25.607  0.00  0.00    -0.435 OA
ATOM     32  C   UNL     1      -5.447   3.094  25.054  0.00  0.00    +0.429 C 
ATOM     33  O   UNL     1      -4.716   2.762  24.863  0.00  0.00    -0.435 OA
ATOM     34  C   UNL     1      -4.136   3.154  25.298  0.00  0.00    +0.176 A 
ATOM     35  C   UNL     1      -3.317   3.062  25.335  0.00  0.00    +0.037 A 
ENDBRANCH  26  27
ENDBRANCH  25  26
ENDBRANCH  19  21
TORSDOF 6
ENDMDL
MODEL 4
REMARK VINA RESULT:     -11.8      1.515      4.754
REMARK  Name = 
REMARK  6 active torsions:
REMARK  status: ('A' for Active; 'I' for Inactive)
REMARK    1  A    between atoms: C_2  and  C_4
REMARK    2  A    between atoms: N_7  and  C_10
REMARK    3  A    between atoms: C_12  and  C_16
REMARK    4  A    between atoms: C_19  and  C_21
REMARK    5  A    between atoms: N_25  and  C_26
REMARK    6  A    between atoms: C_26  and  C_27
REMARK                            x       y       z     vdW  Elec       q    Type
REMARK                         _______ _______ _______ _____ _____    ______ ____
ROOT
ATOM     16  C   UNL     1      -4.176   2.984  25.480  0.00  0.00    +0.203 A 
ATOM     17  N   UNL     1      -4.346   3.531  26.074  0.00  0.00    -0.056 NA
ATOM     18  O   UNL     1      -3.720   4.068  26.113  0.00  0.00    -0.336 OA
ATOM     19  C   UNL     1      -3.163   3.852  25.544  0.00  0.00    +0.251 A 
ATOM     20  N   UNL     1      -3.445   3.182  25.152  0.00  0.00    -0.190 NA
ENDROOT
BRANCH  16  12
ATOM     10  C   UNL     1      -4.796   0.970  24.915  0.00  0.00    +0.132 A 
ATOM     11  C   UNL     1      -4.320   1.603  25.141  0.00  0.00    +0.037 A 
ATOM     12  C   UNL     1      -4.652   2.350  25.253  0.00  0.00    +0.043 A 
ATOM     13  C   UNL     1      -5.461   2.463  25.139  0.00  0.00    +0.024 A 
ATOM     14  C   UNL     1      -5.938   1.829  24.913  0.00  0.00    +0.100 A 
ATOM     15  N   UNL     1      -5.605   1.082  24.801  0.00  0.00    -0.229 NA
BRANCH  10   7
ATOM      4  C   UNL     1      -3.798  -1.270  24.580  0.00  0.00    +0.083 C 
ATOM      5  C   UNL     1      -4.045  -0.828  23.929  0.00  0.00    +0.031 C 
ATOM      6  C   UNL     1      -4.378  -0.081  24.041  0.00  0.00    +0.093 C 
ATOM      7  N   UNL     1      -4.463   0.222  24.803  0.00  0.00    -0.293 N 
ATOM      8  C   UNL     1      -4.217  -0.220  25.454  0.00  0.00    +0.093 C 
ATOM      9  C   UNL     1      -3.884  -0.967  25.343  0.00  0.00    +0.031 C 
BRANCH   4   2
ATOM      1  N   UNL     1      -2.646  -2.107  24.464  0.00  0.00    -0.088 NA
ATOM      2  C   UNL     1      -3.465  -2.017  24.469  0.00  0.00    +0.260 C 
ATOM      3  O   UNL     1      -3.954  -2.674  24.362  0.00  0.00    -0.272 OA
ENDBRANCH   4   2
ENDBRANCH  10   7
ENDBRANCH  16  12
BRANCH  19  21
ATOM     21  C   UNL     1      -2.450   4.238  25.393  0.00  0.00    +0.138 C 
ATOM     22  C   UNL     1      -2.366   5.008  25.110  0.00  0.00    +0.027 C 
ATOM     23  C   UNL     1      -1.559   5.168  25.041  0.00  0.00    +0.019 C 
ATOM     24  C   UNL     1      -1.145   4.497  25.280  0.00  0.00    +0.073 C 
ATOM     25  N   UNL     1      -1.695   3.922  25.497  0.00  0.00    -0.263 NA
BRANCH  25  26
ATOM     26  C   UNL     1      -1.521   3.163  25.772  0.00  0.00    +0.100 C 
BRANCH  26  27
ATOM     27  C   UNL     1      -0.853   2.767  25.494  0.00  0.00    -0.003 A 
ATOM     28  C   UNL     1      -0.159   2.765  25.940  0.00  0.00    +0.000 A 
ATOM     29  C   UNL     1       0.509   2.369  25.662  0.00  0.00    +0.040 A 
ATOM     30  C   UNL     1       0.484   1.974  24.938  0.00  0.00    +0.176 A 
ATOM     31  O   UNL     1       1.050   1.540  24.525  0.00  0.00    -0.435 OA
ATOM     32  C   UNL     1       0.707   1.273  23.824  0.00  0.00    +0.429 C 
ATOM     33  O   UNL     1      -0.072   1.543  23.804  0.00  0.00    -0.435 OA
ATOM     34  C   UNL     1      -0.210   1.976  24.491  0.00  0.00    +0.176 A 
ATOM     35  C   UNL     1      -0.879   2.373  24.770  0.00  0.00    +0.037 A 
ENDBRANCH  26  27
ENDBRANCH  25  26
ENDBRANCH  19  21
TORSDOF 6
ENDMDL
MODEL 5
REMARK VINA RESULT:     -10.7      1.408      4.284
REMARK  Name = 
REMARK  6 active torsions:
REMARK  status: ('A' for Active; 'I' for Inactive)
REMARK    1  A    between atoms: C_2  and  C_4
REMARK    2  A    between atoms: N_7  and  C_10
REMARK    3  A    between atoms: C_12  and  C_16
REMARK    4  A    between atoms: C_19  and  C_21
REMARK    5  A    between atoms: N_25  and  C_26
REMARK    6  A    between atoms: C_26  and  C_27
REMARK                            x       y       z     vdW  Elec       q    Type
REMARK                         _______ _______ _______ _____ _____    ______ ____
ROOT
ATOM     16  C   UNL     1      -3.393   3.469  25.522  0.00  0.00    +0.203 A 
ATOM     17  N   UNL     1      -3.939   3.824  26.028  0.00  0.00    -0.056 NA
ATOM     18  O   UNL     1      -4.637   3.384  26.000  0.00  0.00    -0.336 OA
ATOM     19  C   UNL     1      -4.522   2.757  25.477  0.00  0.00    +0.251 A 
ATOM     20  N   UNL     1      -3.753   2.810  25.181  0.00  0.00    -0.190 NA
ENDROOT
BRANCH  16  12
ATOM     10  C   UNL     1      -1.282   3.456  24.971  0.00  0.00    +0.132 A 
ATOM     11  C   UNL     1      -2.052   3.197  25.111  0.00  0.00    +0.037 A 
ATOM     12  C   UNL     1      -2.623   3.728  25.382  0.00  0.00    +0.043 A 
ATOM     13  C   UNL     1      -2.423   4.518  25.511  0.00  0.00    +0.024 A 
ATOM     14  C   UNL     1      -1.652   4.777  25.371  0.00  0.00    +0.100 A 
ATOM     15  N   UNL     1      -1.082   4.245  25.101  0.00  0.00    -0.229 NA
BRANCH  10   7
ATOM      4  C   UNL     1       0.430   1.863  24.159  0.00  0.00    +0.083 C 
ATOM      5  C   UNL     1       0.337   1.991  24.968  0.00  0.00    +0.031 C 
ATOM      6  C   UNL     1      -0.234   2.522  25.239  0.00  0.00    +0.093 C 
ATOM      7  N   UNL     1      -0.711   2.925  24.700  0.00  0.00    -0.293 N 
ATOM      8  C   UNL     1      -0.618   2.796  23.891  0.00  0.00    +0.093 C 
ATOM      9  C   UNL     1      -0.048   2.266  23.619  0.00  0.00    +0.031 C 
BRANCH   4   2
ATOM      1  N   UNL     1       0.785   0.560  23.692  0.00  0.00    -0.088 NA
ATOM      2  C   UNL     1       1.000   1.332  23.887  0.00  0.00    +0.260 C 
ATOM      3  O   UNL     1       1.785   1.574  23.811  0.00  0.00    -0.272 OA
ENDBRANCH   4   2
ENDBRANCH  10   7
ENDBRANCH  16  12
BRANCH  19  21
ATOM     21  C   UNL     1      -5.077   2.179  25.283  0.00  0.00    +0.138 C 
ATOM     22  C   UNL     1      -5.887   2.298  25.185  0.00  0.00    +0.027 C 
ATOM     23  C   UNL     1      -6.231   1.573  24.994  0.00  0.00    +0.019 C 
ATOM     24  C   UNL     1      -5.634   1.005  24.974  0.00  0.00    +0.073 C 
ATOM     25  N   UNL     1      -4.920   1.380  25.153  0.00  0.00    -0.263 NA
BRANCH  25  26
ATOM     26  C   UNL     1      -4.180   1.018  25.194  0.00  0.00    +0.100 C 
BRANCH  26  27
ATOM     27  C   UNL     1      -4.081   0.246  24.918  0.00  0.00    -0.003 A 
ATOM     28  C   UNL     1      -4.129   0.088  24.110  0.00  0.00    +0.000 A 
ATOM     29  C   UNL     1      -4.031  -0.683  23.834  0.00  0.00    +0.040 A 
ATOM     30  C   UNL     1      -3.884  -1.296  24.366  0.00  0.00    +0.176 A 
ATOM     31  O   UNL     1      -3.765  -2.105  24.258  0.00  0.00    -0.435 OA
ATOM     32  C   UNL     1      -3.643  -2.446  24.999  0.00  0.00    +0.429 C 
ATOM     33  O   UNL     1      -3.687  -1.849  25.565  0.00  0.00    -0.435 OA
ATOM     34  C   UNL     1      -3.836  -1.138  25.175  0.00  0.00    +0.176 A 
ATOM     35  C   UNL     1      -3.935  -0.366  25.451  0.00  0.00    +0.037 A 
ENDBRANCH  26  27
ENDBRANCH  25  26
ENDBRANCH  19  21
TORSDOF 6
ENDMDL
MODEL 6
REMARK VINA RESULT:     -10.0      1.690      4.093
REMARK  Name = 
REMARK  6 active torsions:
REMARK  status: ('A' for Active; 'I' for Inactive)
REMARK    1  A    between atoms: C_2  and  C_4
REMARK    2  A    between atoms: N_7  and  C_10
REMARK    3  A    between atoms: C_12  and  C_16
REMARK    4  A    between atoms: C_19  and  C_21
REMARK    5  A    between atoms: N_25  and  C_26
REMARK    6  A    between atoms: C_26  and  C_27
REMARK                            x       y       z     vdW  Elec       q    Type
REMARK                         _______ _______ _______ _____ _____    ______ ____
ROOT
ATOM     16  C   UNL     1      -1.154  -0.307  24.540  0.00  0.00    +0.203 A 
ATOM     17  N   UNL     1      -1.028  -1.018  24.941  0.00  0.00    -0.056 NA
ATOM     18  O   UNL     1      -1.738  -1.439  24.942  0.00  0.00    -0.336 OA
ATOM     19  C   UNL     1      -2.302  -0.989  24.542  0.00  0.00    +0.251 A 
ATOM     20  N   UNL     1      -1.941  -0.289  24.294  0.00  0.00    -0.190 NA
ENDROOT
BRANCH  16  12
ATOM     10  C   UNL     1      -0.217   1.661  24.428  0.00  0.00    +0.132 A 
ATOM     11  C   UNL     1      -0.780   1.072  24.559  0.00  0.00    +0.037 A 
ATOM     12  C   UNL     1      -0.592   0.282  24.410  0.00  0.00    +0.043 A 
ATOM     13  C   UNL     1       0.158   0.082  24.131  0.00  0.00    +0.024 A 
ATOM     14  C   UNL     1       0.720   0.671  24.000  0.00  0.00    +0.100 A 
ATOM     15  N   UNL     1       0.532   1.461  24.149  0.00  0.00    -0.229 NA
BRANCH  10   7
ATOM      4  C   UNL     1      -0.781   4.029  24.875  0.00  0.00    +0.083 C 
ATOM      5  C   UNL     1      -0.620   3.519  25.502  0.00  0.00    +0.031 C 
ATOM      6  C   UNL     1      -0.432   2.729  25.353  0.00  0.00    +0.093 C 
ATOM      7  N   UNL     1      -0.405   2.451  24.577  0.00  0.00    -0.293 N 
ATOM      8  C   UNL     1      -0.567   2.961  23.950  0.00  0.00    +0.093 C 
ATOM      9  C   UNL     1      -0.754   3.751  24.098  0.00  0.00    +0.031 C 
BRANCH   4   2
ATOM      1  N   UNL     1      -1.689   5.012  25.375  0.00  0.00    -0.088 NA
ATOM      2  C   UNL     1      -0.969   4.819  25.023  0.00  0.00    +0.260 C 
ATOM      3  O   UNL     1      -0.436   5.415  24.818  0.00  0.00    -0.272 OA
ENDBRANCH   4   2
ENDBRANCH  10   7
ENDBRANCH  16  12
BRANCH  19  21
ATOM     21  C   UNL     1      -3.089  -1.202  24.413  0.00  0.00    +0.138 C 
ATOM     22  C   UNL     1      -3.353  -1.810  23.923  0.00  0.00    +0.027 C 
ATOM     23  C   UNL     1      -4.177  -1.827  23.958  0.00  0.00    +0.019 C 
ATOM     24  C   UNL     1      -4.422  -1.229  24.470  0.00  0.00    +0.073 C 
ATOM     25  N   UNL     1      -3.749  -0.842  24.751  0.00  0.00    -0.263 NA
BRANCH  25  26
ATOM     26  C   UNL     1      -3.740  -0.208  25.278  0.00  0.00    +0.100 C 
BRANCH  26  27
ATOM     27  C   UNL     1      -4.286   0.406  25.196  0.00  0.00    -0.003 A 
ATOM     28  C   UNL     1      -5.071   0.294  25.426  0.00  0.00    +0.000 A 
ATOM     29  C   UNL     1      -5.616   0.907  25.344  0.00  0.00    +0.040 A 
ATOM     30  C   UNL     1      -5.378   1.632  25.031  0.00  0.00    +0.176 A 
ATOM     31  O   UNL     1      -5.788   2.332  24.885  0.00  0.00    -0.435 OA
ATOM     32  C   UNL     1      -5.259   2.877  24.565  0.00  0.00    +0.429 C 
ATOM     33  O   UNL     1      -4.520   2.513  24.513  0.00  0.00    -0.435 OA
ATOM     34  C   UNL     1      -4.594   1.744  24.801  0.00  0.00    +0.176 A 
ATOM     35  C   UNL     1      -4.047   1.131  24.883  0.00  0.00    +0.037 A 
ENDBRANCH  26  27
ENDBRANCH  25  26
ENDBRANCH  19  21
TORSDOF 6
ENDMDL
MODEL 7
REMARK VINA RESULT:      -9.9      1.739      5.969
REMARK  Name = 
REMARK  6 active torsions:
REMARK  status: ('A' for Active; 'I' for Inactive)
REMARK    1  A    between atoms: C_2  and  C_4
REMARK    2  A    between atoms: N_7  and  C_10
REMARK    3  A    between atoms: C_12  and  C_16
REMARK    4  A    between atoms: C_19  and  C_21
REMARK    5  A    between atoms: N_25  and  C_26
REMARK    6  A    between atoms: C_26  and  C_27
REMARK                            x       y       z     vdW  Elec       q    Type
REMARK                         _______ _______ _______ _____ _____    ______ ____
ROOT
ATOM     16  C   UNL     1      -3.802  -0.300  24.799  0.00  0.00    +0.203 A 
ATOM     17  N   UNL     1      -4.486  -0.515  24.390  0.00  0.00    -0.056 NA
ATOM     18  O   UNL     1      -5.042   0.086  24.492  0.00  0.00    -0.336 OA
ATOM     19  C   UNL     1      -4.703   0.671  24.963  0.00  0.00    +0.251 A 
ATOM     20  N   UNL     1      -3.936   0.433  25.153  0.00  0.00    -0.190 NA
ENDROOT
BRANCH  16  12
ATOM     10  C   UNL     1      -1.710  -0.881  24.577  0.00  0.00    +0.132 A 
ATOM     11  C   UNL     1      -2.405  -0.440  24.531  0.00  0.00    +0.037 A 
ATOM     12  C   UNL     1      -3.106  -0.741  24.845  0.00  0.00    +0.043 A 
ATOM     13  C   UNL     1      -3.112  -1.483  25.206  0.00  0.00    +0.024 A 
ATOM     14  C   UNL     1      -2.416  -1.924  25.252  0.00  0.00    +0.100 A 
ATOM     15  N   UNL     1      -1.715  -1.623  24.938  0.00  0.00    -0.229 NA
BRANCH  10   7
ATOM      4  C   UNL     1       0.392   0.021  23.633  0.00  0.00    +0.083 C 
ATOM      5  C   UNL     1      -0.179   0.535  23.933  0.00  0.00    +0.031 C 
ATOM      6  C   UNL     1      -0.880   0.234  24.247  0.00  0.00    +0.093 C 
ATOM      7  N   UNL     1      -1.009  -0.580  24.262  0.00  0.00    -0.293 N 
ATOM      8  C   UNL     1      -0.438  -1.094  23.963  0.00  0.00    +0.093 C 
ATOM      9  C   UNL     1       0.263  -0.794  23.648  0.00  0.00    +0.031 C 
BRANCH   4   2
ATOM      1  N   UNL     1       1.498  -0.100  22.736  0.00  0.00    -0.088 NA
ATOM      2  C   UNL     1       1.094   0.321  23.318  0.00  0.00    +0.260 C 
ATOM      3  O   UNL     1       1.390   1.044  23.587  0.00  0.00    -0.272 OA
ENDBRANCH   4   2
ENDBRANCH  10   7
ENDBRANCH  16  12
BRANCH  19  21
ATOM     21  C   UNL     1      -5.066   1.373  25.203  0.00  0.00    +0.138 C 
ATOM     22  C   UNL     1      -5.703   1.436  25.722  0.00  0.00    +0.027 C 
ATOM     23  C   UNL     1      -5.886   2.236  25.805  0.00  0.00    +0.019 C 
ATOM     24  C   UNL     1      -5.362   2.667  25.337  0.00  0.00    +0.073 C 
ATOM     25  N   UNL     1      -4.855   2.134  24.964  0.00  0.00    -0.263 NA
BRANCH  25  26
ATOM     26  C   UNL     1      -4.245   2.327  24.444  0.00  0.00    +0.100 C 
BRANCH  26  27
ATOM     27  C   UNL     1      -3.803   3.015  24.563  0.00  0.00    -0.003 A 
ATOM     28  C   UNL     1      -4.012   3.712  24.175  0.00  0.00    +0.000 A 
ATOM     29  C   UNL     1      -3.571   4.398  24.294  0.00  0.00    +0.040 A 
ATOM     30  C   UNL     1      -2.920   4.388  24.802  0.00  0.00    +0.176 A 
ATOM     31  O   UNL     1      -2.386   4.974  25.027  0.00  0.00    -0.435 OA
ATOM     32  C   UNL     1      -1.847   4.640  25.554  0.00  0.00    +0.429 C 
ATOM     33  O   UNL     1      -2.048   3.846  25.655  0.00  0.00    -0.435 OA
ATOM     34  C   UNL     1      -2.712   3.691  25.191  0.00  0.00    +0.176 A 
ATOM     35  C   UNL     1      -3.153   3.004  25.071  0.00  0.00    +0.037 A 
ENDBRANCH  26  27
ENDBRANCH  25  26
ENDBRANCH  19  21
TORSDOF 6
ENDMDL
