MODEL 1
REMARK VINA RESULT:     -11.2      0.000      0.000
REMARK  Name = 
REMARK  5 active torsions:
REMARK  status: ('A' for Active; 'I' for Inactive)
REMARK    1  A    between atoms: S_2  and  C_5
REMARK    2  A    between atoms: C_8  and  C_9
REMARK    3  A    between atoms: C_9  and  N_10
REMARK    4  A    between atoms: C_15  and  C_16
REMARK    5  A    between atoms: C_18  and  C_21
REMARK                            x       y       z     vdW  Elec       q    Type
REMARK                         _______ _______ _______ _____ _____    ______ ____
ROOT
ATOM     10  N   UNL     1      -4.456   1.345  24.875  0.00  0.00    -0.260 NA
ATOM     11  C   UNL     1      -5.113   0.994  25.228  0.00  0.00    +0.106 C 
ATOM     12  C   UNL     1      -5.590   1.596  25.531  0.00  0.00    +0.170 C 
ATOM     13  O   UNL     1      -6.304   1.495  25.930  0.00  0.00    -0.222 OA
ATOM     14  C   UNL     1      -5.226   2.318  25.364  0.00  0.00    +0.060 C 
ATOM     15  C   UNL     1      -4.525   2.162  24.958  0.00  0.00    +0.140 C 
ENDROOT
BRANCH  15  16
ATOM     16  C   UNL     1      -3.987   2.724  24.684  0.00  0.00    +0.251 A 
ATOM     17  N   UNL     1      -3.310   2.981  25.080  0.00  0.00    -0.188 NA
ATOM     18  C   UNL     1      -2.937   3.544  24.607  0.00  0.00    +0.223 A 
ATOM     19  N   UNL     1      -3.383   3.635  23.919  0.00  0.00    -0.054 NA
ATOM     20  O   UNL     1      -4.031   3.129  23.967  0.00  0.00    -0.336 OA
BRANCH  18  21
ATOM     21  C   UNL     1      -2.240   3.946  24.790  0.00  0.00    +0.139 A 
ATOM     22  C   UNL     1      -2.274   4.694  25.137  0.00  0.00    +0.121 A 
ATOM     23  N   UNL     1      -1.577   5.096  25.320  0.00  0.00    -0.239 NA
ATOM     24  C   UNL     1      -0.846   4.750  25.156  0.00  0.00    +0.120 A 
ATOM     25  C   UNL     1      -0.812   4.002  24.809  0.00  0.00    +0.120 A 
ATOM     26  N   UNL     1      -1.509   3.600  24.626  0.00  0.00    -0.237 NA
ENDBRANCH  18  21
ENDBRANCH  15  16
BRANCH  10   9
ATOM      9  C   UNL     1      -3.836   0.946  24.503  0.00  0.00    +0.100 C 
BRANCH   9   8
ATOM      5  C   UNL     1      -3.735  -1.527  24.574  0.00  0.00    +0.106 A 
ATOM      6  C   UNL     1      -4.105  -1.147  23.942  0.00  0.00    +0.018 A 
ATOM      7  C   UNL     1      -4.140  -0.323  23.918  0.00  0.00    -0.002 A 
ATOM      8  C   UNL     1      -3.803   0.121  24.526  0.00  0.00    -0.006 A 
ATOM     27  C   UNL     1      -3.432  -0.258  25.158  0.00  0.00    -0.002 A 
ATOM     28  C   UNL     1      -3.399  -1.082  25.181  0.00  0.00    +0.018 A 
BRANCH   5   2
ATOM      1  C   UNL     1      -3.668  -3.175  24.621  0.00  0.00    +0.182 C 
ATOM      2  S   UNL     1      -3.701  -2.350  24.597  0.00  0.00    +0.010 S 
ATOM      3  O   UNL     1      -3.282  -2.313  25.307  0.00  0.00    -0.169 OA
ATOM      4  O   UNL     1      -4.120  -2.388  23.888  0.00  0.00    -0.169 OA
ENDBRANCH   5   2
ENDBRANCH   9   8
ENDBRANCH  10   9
TORSDOF 5
ENDMDL
MODEL 2
REMARK VINA RESULT:     -10.4      2.279      3.329
REMARK  Name = 
REMARK  5 active torsions:
REMARK  status: ('A' for Active; 'I' for Inactive)
REMARK    1  A    between atoms: S_2  and  C_5
REMARK    2  A    between atoms: C_8  and  C_9
REMARK    3  A    between atoms: C_9  and  N_10
REMARK    4  A    between atoms: C_15  and  C_16
REMARK    5  A    between atoms: C_18  and  C_21
REMARK                            x       y       z     vdW  Elec       q    Type
REMARK                         _______ _______ _______ _____ _____    ______ ____
ROOT
ATOM     10  N   UNL     1      -0.540   0.378  24.575  0.00  0.00    -0.260 NA
ATOM     11  C   UNL     1      -0.246  -0.157  24.020  0.00  0.00    +0.106 C 
ATOM     12  C   UNL     1       0.332   0.230  23.576  0.00  0.00    +0.170 C 
ATOM     13  O   UNL     1       0.770  -0.098  22.959  0.00  0.00    -0.222 OA
ATOM     14  C   UNL     1       0.393   1.004  23.856  0.00  0.00    +0.060 C 
ATOM     15  C   UNL     1      -0.146   1.095  24.474  0.00  0.00    +0.140 C 
ENDROOT
BRANCH  15  16
ATOM     16  C   UNL     1      -0.269   1.781  24.913  0.00  0.00    +0.251 A 
ATOM     17  N   UNL     1      -0.718   2.433  24.679  0.00  0.00    -0.188 NA
ATOM     18  C   UNL     1      -0.692   2.992  25.284  0.00  0.00    +0.223 A 
ATOM     19  N   UNL     1      -0.227   2.686  25.893  0.00  0.00    -0.054 NA
ATOM     20  O   UNL     1       0.033   1.939  25.664  0.00  0.00    -0.336 OA
BRANCH  18  21
ATOM     21  C   UNL     1      -1.065   3.729  25.282  0.00  0.00    +0.139 A 
ATOM     22  C   UNL     1      -1.815   3.811  25.614  0.00  0.00    +0.121 A 
ATOM     23  N   UNL     1      -2.188   4.548  25.611  0.00  0.00    -0.239 NA
ATOM     24  C   UNL     1      -1.810   5.200  25.276  0.00  0.00    +0.120 A 
ATOM     25  C   UNL     1      -1.060   5.117  24.944  0.00  0.00    +0.120 A 
ATOM     26  N   UNL     1      -0.687   4.381  24.947  0.00  0.00    -0.237 NA
ENDBRANCH  18  21
ENDBRANCH  15  16
BRANCH  10   9
ATOM      9  C   UNL     1      -1.127   0.222  25.133  0.00  0.00    +0.100 C 
BRANCH   9   8
ATOM      5  C   UNL     1      -2.656  -1.700  24.819  0.00  0.00    +0.106 A 
ATOM      6  C   UNL     1      -1.937  -1.804  25.210  0.00  0.00    +0.018 A 
ATOM      7  C   UNL     1      -1.427  -1.164  25.315  0.00  0.00    -0.002 A 
ATOM      8  C   UNL     1      -1.637  -0.419  25.028  0.00  0.00    -0.006 A 
ATOM     27  C   UNL     1      -2.356  -0.315  24.637  0.00  0.00    -0.002 A 
ATOM     28  C   UNL     1      -2.865  -0.956  24.533  0.00  0.00    +0.018 A 
BRANCH   5   2
ATOM      1  C   UNL     1      -3.674  -2.981  24.610  0.00  0.00    +0.182 C 
ATOM      2  S   UNL     1      -3.165  -2.340  24.715  0.00  0.00    +0.010 S 
ATOM      3  O   UNL     1      -2.681  -2.627  24.111  0.00  0.00    -0.169 OA
ATOM      4  O   UNL     1      -3.649  -2.055  25.318  0.00  0.00    -0.169 OA
ENDBRANCH   5   2
ENDBRANCH   9   8
ENDBRANCH  10   9
TORSDOF 5
ENDMDL
MODEL 3
REMARK VINA RESULT:     -10.1      2.950      5.903
REMARK  Name = 
REMARK  5 active torsions:
REMARK  status: ('A' for Active; 'I' for Inactive)
REMARK    1  A    between atoms: S_2  and  C_5
REMARK    2  A    between atoms: C_8  and  C_9
REMARK    3  A    between atoms: C_9  and  N_10
REMARK    4  A    between atoms: C_15  and  C_16
REMARK    5  A    between atoms: C_18  and  C_21
REMARK                            x       y       z     vdW  Elec       q    Type
REMARK                         _______ _______ _______ _____ _____    ______ ____
ROOT
ATOM     10  N   UNL     1      -0.686   0.940  24.708  0.00  0.00    -0.260 NA
ATOM     11  C   UNL     1      -0.040   1.290  24.334  0.00  0.00    +0.106 C 
ATOM     12  C   UNL     1       0.334   0.713  23.879  0.00  0.00    +0.170 C 
ATOM     13  O   UNL     1       1.005   0.823  23.412  0.00  0.00    -0.222 OA
ATOM     14  C   UNL     1      -0.081   0.006  23.972  0.00  0.00    +0.060 C 
ATOM     15  C   UNL     1      -0.712   0.147  24.485  0.00  0.00    +0.140 C 
ENDROOT
BRANCH  15  16
ATOM     16  C   UNL     1      -1.270  -0.408  24.731  0.00  0.00    +0.251 A 
ATOM     17  N   UNL     1      -1.882  -0.717  24.272  0.00  0.00    -0.188 NA
ATOM     18  C   UNL     1      -2.304  -1.252  24.736  0.00  0.00    +0.223 A 
ATOM     19  N   UNL     1      -1.954  -1.274  25.482  0.00  0.00    -0.054 NA
ATOM     20  O   UNL     1      -1.315  -0.753  25.479  0.00  0.00    -0.336 OA
BRANCH  18  21
ATOM     21  C   UNL     1      -2.963  -1.689  24.497  0.00  0.00    +0.139 A 
ATOM     22  C   UNL     1      -2.943  -2.513  24.526  0.00  0.00    +0.121 A 
ATOM     23  N   UNL     1      -3.601  -2.949  24.286  0.00  0.00    -0.239 NA
ATOM     24  C   UNL     1      -4.278  -2.562  24.017  0.00  0.00    +0.120 A 
ATOM     25  C   UNL     1      -4.297  -1.737  23.988  0.00  0.00    +0.120 A 
ATOM     26  N   UNL     1      -3.639  -1.301  24.228  0.00  0.00    -0.237 NA
ENDBRANCH  18  21
ENDBRANCH  15  16
BRANCH  10   9
ATOM      9  C   UNL     1      -1.215   1.317  25.216  0.00  0.00    +0.100 C 
BRANCH   9   8
ATOM      5  C   UNL     1      -1.409   3.785  25.191  0.00  0.00    +0.106 A 
ATOM      6  C   UNL     1      -1.869   3.330  24.680  0.00  0.00    +0.018 A 
ATOM      7  C   UNL     1      -1.805   2.508  24.688  0.00  0.00    -0.002 A 
ATOM      8  C   UNL     1      -1.279   2.141  25.208  0.00  0.00    -0.006 A 
ATOM     27  C   UNL     1      -0.819   2.596  25.720  0.00  0.00    -0.002 A 
ATOM     28  C   UNL     1      -0.884   3.418  25.711  0.00  0.00    +0.018 A 
BRANCH   5   2
ATOM      1  C   UNL     1      -1.538   5.430  25.174  0.00  0.00    +0.182 C 
ATOM      2  S   UNL     1      -1.473   4.607  25.183  0.00  0.00    +0.010 S 
ATOM      3  O   UNL     1      -2.187   4.556  25.593  0.00  0.00    -0.169 OA
ATOM      4  O   UNL     1      -0.760   4.660  24.772  0.00  0.00    -0.169 OA
ENDBRANCH   5   2
ENDBRANCH   9   8
ENDBRANCH  10   9
TORSDOF 5
ENDMDL
MODEL 4
REMARK VINA RESULT:     -10.1      2.206      5.142
REMARK  Name = 
REMARK  5 active torsions:
REMARK  status: ('A' for Active; 'I' for Inactive)
REMARK    1  A    between atoms: S_2  and  C_5
REMARK    2  A    between atoms: C_8  and  C_9
REMARK    3  A    between atoms: C_9  and  N_10
REMARK    4  A    between atoms: C_15  and  C_16
REMARK    5  A    between atoms: C_18  and  C_21
REMARK                            x       y       z     vdW  Elec       q    Type
REMARK                         _______ _______ _______ _____ _____    ______ ____
ROOT
ATOM     10  N   UNL     1      -3.876   1.983  25.042  0.00  0.00    -0.260 NA
ATOM     11  C   UNL     1      -4.316   2.610  25.347  0.00  0.00    +0.106 C 
ATOM     12  C   UNL     1      -5.115   2.406  25.301  0.00  0.00    +0.170 C 
ATOM     13  O   UNL     1      -5.749   2.873  25.545  0.00  0.00    -0.222 OA
ATOM     14  C   UNL     1      -5.167   1.653  24.968  0.00  0.00    +0.060 C 
ATOM     15  C   UNL     1      -4.400   1.392  24.809  0.00  0.00    +0.140 C 
ENDROOT
BRANCH  15  16
ATOM     16  C   UNL     1      -4.195   0.667  24.474  0.00  0.00    +0.251 A 
ATOM     17  N   UNL     1      -4.139  -0.054  24.874  0.00  0.00    -0.188 NA
ATOM     18  C   UNL     1      -3.920  -0.631  24.328  0.00  0.00    +0.223 A 
ATOM     19  N   UNL     1      -3.840  -0.269  23.591  0.00  0.00    -0.054 NA
ATOM     20  O   UNL     1      -4.010   0.532  23.682  0.00  0.00    -0.336 OA
BRANCH  18  21
ATOM     21  C   UNL     1      -3.800  -1.432  24.490  0.00  0.00    +0.139 A 
ATOM     22  C   UNL     1      -4.093  -2.005  23.974  0.00  0.00    +0.121 A 
ATOM     23  N   UNL     1      -3.974  -2.805  24.137  0.00  0.00    -0.239 NA
ATOM     24  C   UNL     1      -3.562  -3.032  24.815  0.00  0.00    +0.120 A 
ATOM     25  C   UNL     1      -3.270  -2.459  25.331  0.00  0.00    +0.120 A 
ATOM     26  N   UNL     1      -3.389  -1.658  25.168  0.00  0.00    -0.237 NA
ENDBRANCH  18  21
ENDBRANCH  15  16
BRANCH  10   9
ATOM      9  C   UNL     1      -3.054   1.953  24.982  0.00  0.00    +0.100 C 
BRANCH   9   8
ATOM      5  C   UNL     1      -1.732   4.046  25.017  0.00  0.00    +0.106 A 
ATOM      6  C   UNL     1      -2.063   3.778  24.310  0.00  0.00    +0.018 A 
ATOM      7  C   UNL     1      -2.503   3.081  24.298  0.00  0.00    -0.002 A 
ATOM      8  C   UNL     1      -2.613   2.651  24.994  0.00  0.00    -0.006 A 
ATOM     27  C   UNL     1      -2.283   2.919  25.701  0.00  0.00    -0.002 A 
ATOM     28  C   UNL     1      -1.842   3.617  25.712  0.00  0.00    +0.018 A 
BRANCH   5   2
ATOM      1  C   UNL     1      -0.851   5.441  25.039  0.00  0.00    +0.182 C 
ATOM      2  S   UNL     1      -1.292   4.743  25.028  0.00  0.00    +0.010 S 
ATOM      3  O   UNL     1      -0.657   4.348  24.679  0.00  0.00    -0.169 OA
ATOM      4  O   UNL     1      -1.926   5.139  25.377  0.00  0.00    -0.169 OA
ENDBRANCH   5   2
ENDBRANCH   9   8
ENDBRANCH  10   9
TORSDOF 5
ENDMDL
MODEL 5
REMARK VINA RESULT:      -9.4      2.182      3.460
REMARK  Name = 
REMARK  5 active torsions:
REMARK  status: ('A' for Active; 'I' for Inactive)
REMARK    1  A    between atoms: S_2  and  C_5
REMARK    2  A    between atoms: C_8  and  C_9
REMARK    3  A    between atoms: C_9  and  N_10
REMARK    4  A    between atoms: C_15  and  C_16
REMARK    5  A    between atoms: C_18  and  C_21
REMARK                            x       y       z     vdW  Elec       q    Type
REMARK                         _______ _______ _______ _____ _____    ______ ____
ROOT
ATOM     10  N   UNL     1      -1.103   1.935  25.125  0.00  0.00    -0.260 NA
ATOM     11  C   UNL     1      -0.366   1.849  25.485  0.00  0.00    +0.106 C 
ATOM     12  C   UNL     1      -0.234   2.515  25.955  0.00  0.00    +0.170 C 
ATOM     13  O   UNL     1       0.436   2.658  26.415  0.00  0.00    -0.222 OA
ATOM     14  C   UNL     1      -0.890   3.010  25.886  0.00  0.00    +0.060 C 
ATOM     15  C   UNL     1      -1.427   2.651  25.372  0.00  0.00    +0.140 C 
ENDROOT
BRANCH  15  16
ATOM     16  C   UNL     1      -2.159   2.956  25.146  0.00  0.00    +0.251 A 
ATOM     17  N   UNL     1      -2.885   2.789  25.502  0.00  0.00    -0.188 NA
ATOM     18  C   UNL     1      -3.469   3.211  25.100  0.00  0.00    +0.223 A 
ATOM     19  N   UNL     1      -3.104   3.638  24.496  0.00  0.00    -0.054 NA
ATOM     20  O   UNL     1      -2.296   3.480  24.524  0.00  0.00    -0.336 OA
BRANCH  18  21
ATOM     21  C   UNL     1      -4.276   3.206  25.272  0.00  0.00    +0.139 A 
ATOM     22  C   UNL     1      -4.636   3.883  25.576  0.00  0.00    +0.121 A 
ATOM     23  N   UNL     1      -5.443   3.878  25.749  0.00  0.00    -0.239 NA
ATOM     24  C   UNL     1      -5.889   3.197  25.617  0.00  0.00    +0.120 A 
ATOM     25  C   UNL     1      -5.529   2.520  25.313  0.00  0.00    +0.120 A 
ATOM     26  N   UNL     1      -4.722   2.525  25.141  0.00  0.00    -0.237 NA
ENDBRANCH  18  21
ENDBRANCH  15  16
BRANCH  10   9
ATOM      9  C   UNL     1      -1.454   1.397  24.607  0.00  0.00    +0.100 C 
BRANCH   9   8
ATOM      5  C   UNL     1      -1.015  -1.027  24.855  0.00  0.00    +0.106 A 
ATOM      6  C   UNL     1      -1.611  -0.668  25.299  0.00  0.00    +0.018 A 
ATOM      7  C   UNL     1      -1.758   0.139  25.217  0.00  0.00    -0.002 A 
ATOM      8  C   UNL     1      -1.308   0.589  24.690  0.00  0.00    -0.006 A 
ATOM     27  C   UNL     1      -0.712   0.230  24.246  0.00  0.00    -0.002 A 
ATOM     28  C   UNL     1      -0.566  -0.578  24.329  0.00  0.00    +0.018 A 
BRANCH   5   2
ATOM      1  C   UNL     1      -0.723  -2.642  25.020  0.00  0.00    +0.182 C 
ATOM      2  S   UNL     1      -0.869  -1.834  24.938  0.00  0.00    +0.010 S 
ATOM      3  O   UNL     1      -1.465  -1.998  24.391  0.00  0.00    -0.169 OA
ATOM      4  O   UNL     1      -0.273  -1.671  25.484  0.00  0.00    -0.169 OA
ENDBRANCH   5   2
ENDBRANCH   9   8
ENDBRANCH  10   9
TORSDOF 5
ENDMDL
MODEL 6
REMARK VINA RESULT:      -8.8      2.651      4.921
REMARK  Name = 
REMARK  5 active torsions:
REMARK  status: ('A' for Active; 'I' for Inactive)
REMARK    1  A    between atoms: S_2  and  C_5
REMARK    2  A    between atoms: C_8  and  C_9
REMARK    3  A    between atoms: C_9  and  N_10
REMARK    4  A    between atoms: C_15  and  C_16
REMARK    5  A    between atoms: C_18  and  C_21
REMARK                            x       y       z     vdW  Elec       q    Type
REMARK                         _______ _______ _______ _____ _____    ______ ____
ROOT
ATOM     10  N   UNL     1      -1.678   2.514  24.433  0.00  0.00    -0.260 NA
ATOM     11  C   UNL     1      -1.563   3.282  24.710  0.00  0.00    +0.106 C 
ATOM     12  C   UNL     1      -0.780   3.346  24.964  0.00  0.00    +0.170 C 
ATOM     13  O   UNL     1      -0.427   4.020  25.282  0.00  0.00    -0.222 OA
ATOM     14  C   UNL     1      -0.413   2.617  24.844  0.00  0.00    +0.060 C 
ATOM     15  C   UNL     1      -0.969   2.103  24.515  0.00  0.00    +0.140 C 
ENDROOT
BRANCH  15  16
ATOM     16  C   UNL     1      -0.837   1.316  24.306  0.00  0.00    +0.251 A 
ATOM     17  N   UNL     1      -1.046   0.654  24.753  0.00  0.00    -0.188 NA
ATOM     18  C   UNL     1      -0.811  -0.018  24.337  0.00  0.00    +0.223 A 
ATOM     19  N   UNL     1      -0.458   0.228  23.633  0.00  0.00    -0.054 NA
ATOM     20  O   UNL     1      -0.474   1.051  23.615  0.00  0.00    -0.336 OA
BRANCH  18  21
ATOM     21  C   UNL     1      -0.913  -0.800  24.581  0.00  0.00    +0.139 A 
ATOM     22  C   UNL     1      -0.340  -1.162  25.051  0.00  0.00    +0.121 A 
ATOM     23  N   UNL     1      -0.441  -1.944  25.296  0.00  0.00    -0.239 NA
ATOM     24  C   UNL     1      -1.115  -2.363  25.071  0.00  0.00    +0.120 A 
ATOM     25  C   UNL     1      -1.689  -2.000  24.601  0.00  0.00    +0.120 A 
ATOM     26  N   UNL     1      -1.587  -1.219  24.356  0.00  0.00    -0.237 NA
ENDBRANCH  18  21
ENDBRANCH  15  16
BRANCH  10   9
ATOM      9  C   UNL     1      -2.381   2.210  24.127  0.00  0.00    +0.100 C 
BRANCH   9   8
ATOM      5  C   UNL     1      -4.557   2.989  25.015  0.00  0.00    +0.106 A 
ATOM      6  C   UNL     1      -4.157   2.371  25.388  0.00  0.00    +0.018 A 
ATOM      7  C   UNL     1      -3.432   2.111  25.092  0.00  0.00    -0.002 A 
ATOM      8  C   UNL     1      -3.107   2.470  24.423  0.00  0.00    -0.006 A 
ATOM     27  C   UNL     1      -3.507   3.088  24.051  0.00  0.00    -0.002 A 
ATOM     28  C   UNL     1      -4.233   3.347  24.347  0.00  0.00    +0.018 A 
BRANCH   5   2
ATOM      1  C   UNL     1      -6.007   3.508  25.608  0.00  0.00    +0.182 C 
ATOM      2  S   UNL     1      -5.281   3.248  25.311  0.00  0.00    +0.010 S 
ATOM      3  O   UNL     1      -5.639   2.553  25.047  0.00  0.00    -0.169 OA
ATOM      4  O   UNL     1      -4.925   3.944  25.576  0.00  0.00    -0.169 OA
ENDBRANCH   5   2
ENDBRANCH   9   8
ENDBRANCH  10   9
TORSDOF 5
ENDMDL
MODEL 7
REMARK VINA RESULT:      -8.5     17.001     19.057
REMARK  Name = 
REMARK  5 active torsions:
REMARK  status: ('A' for Active; 'I' for Inactive)
REMARK    1  A    between atoms: S_2  and  C_5
REMARK    2  A    between atoms: C_8  and  C_9
REMARK    3  A    between atoms: C_9  and  N_10
REMARK    4  A    between atoms: C_15  and  C_16
REMARK    5  A    between atoms: C_18  and  C_21
REMARK                            x       y       z     vdW  Elec       q    Type
REMARK                         _______ _______ _______ _____ _____    ______ ____
ROOT
ATOM     10  N   UNL     1      12.558   7.380  20.159  0.00  0.00    -0.260 NA
ATOM     11  C   UNL     1      11.781   7.107  20.221  0.00  0.00    +0.106 C 
ATOM     12  C   UNL     1      11.748   6.576  20.851  0.00  0.00    +0.170 C 
ATOM     13  O   UNL     1      11.077   6.172  21.109  0.00  0.00    -0.222 OA
ATOM     14  C   UNL     1      12.503   6.521  21.178  0.00  0.00    +0.060 C 
ATOM     15  C   UNL     1      13.004   7.018  20.750  0.00  0.00    +0.140 C 
ENDROOT
BRANCH  15  16
ATOM     16  C   UNL     1      13.808   7.132  20.888  0.00  0.00    +0.251 A 
ATOM     17  N   UNL     1      14.426   6.718  20.531  0.00  0.00    -0.188 NA
ATOM     18  C   UNL     1      15.137   7.010  20.830  0.00  0.00    +0.223 A 
ATOM     19  N   UNL     1      14.959   7.606  21.372  0.00  0.00    -0.054 NA
ATOM     20  O   UNL     1      14.139   7.681  21.408  0.00  0.00    -0.336 OA
BRANCH  18  21
ATOM     21  C   UNL     1      15.893   6.753  20.624  0.00  0.00    +0.139 A 
ATOM     22  C   UNL     1      16.483   6.704  21.198  0.00  0.00    +0.121 A 
ATOM     23  N   UNL     1      17.239   6.446  20.992  0.00  0.00    -0.239 NA
ATOM     24  C   UNL     1      17.405   6.238  20.211  0.00  0.00    +0.120 A 
ATOM     25  C   UNL     1      16.815   6.286  19.636  0.00  0.00    +0.120 A 
ATOM     26  N   UNL     1      16.059   6.544  19.843  0.00  0.00    -0.237 NA
ENDBRANCH  18  21
ENDBRANCH  15  16
BRANCH  10   9
ATOM      9  C   UNL     1      12.838   7.920  19.602  0.00  0.00    +0.100 C 
BRANCH   9   8
ATOM      5  C   UNL     1      11.501   8.420  17.579  0.00  0.00    +0.106 A 
ATOM      6  C   UNL     1      12.064   7.817  17.563  0.00  0.00    +0.018 A 
ATOM      7  C   UNL     1      12.510   7.650  18.237  0.00  0.00    -0.002 A 
ATOM      8  C   UNL     1      12.392   8.087  18.927  0.00  0.00    -0.006 A 
ATOM     27  C   UNL     1      11.830   8.690  18.944  0.00  0.00    -0.002 A 
ATOM     28  C   UNL     1      11.384   8.857  18.269  0.00  0.00    +0.018 A 
BRANCH   5   2
ATOM      1  C   UNL     1      10.611   8.754  16.231  0.00  0.00    +0.182 C 
ATOM      2  S   UNL     1      11.056   8.587  16.906  0.00  0.00    +0.010 S 
ATOM      3  O   UNL     1      11.745   8.797  16.502  0.00  0.00    -0.169 OA
ATOM      4  O   UNL     1      10.367   8.377  17.308  0.00  0.00    -0.169 OA
ENDBRANCH   5   2
ENDBRANCH   9   8
ENDBRANCH  10   9
TORSDOF 5
ENDMDL
MODEL 8
REMARK VINA RESULT:      -8.3      1.622      2.677
REMARK  Name = 
REMARK  5 active torsions:
REMARK  status: ('A' for Active; 'I' for Inactive)
REMARK    1  A    between atoms: S_2  and  C_5
REMARK    2  A    between atoms: C_8  and  C_9
REMARK    3  A    between atoms: C_9  and  N_10
REMARK    4  A    between atoms: C_15  and  C_16
REMARK    5  A    between atoms: C_18  and  C_21
REMARK                            x       y       z     vdW  Elec       q    Type
REMARK                         _______ _______ _______ _____ _____    ______ ____
ROOT
ATOM     10  N   UNL     1      -2.549   0.799  24.886  0.00  0.00    -0.260 NA
ATOM     11  C   UNL     1      -1.815   0.433  24.972  0.00  0.00    +0.106 C 
ATOM     12  C   UNL     1      -1.230   0.998  24.830  0.00  0.00    +0.170 C 
ATOM     13  O   UNL     1      -0.416   0.870  24.857  0.00  0.00    -0.222 OA
ATOM     14  C   UNL     1      -1.604   1.713  24.656  0.00  0.00    +0.060 C 
ATOM     15  C   UNL     1      -2.419   1.589  24.691  0.00  0.00    +0.140 C 
ENDROOT
BRANCH  15  16
ATOM     16  C   UNL     1      -3.002   2.157  24.554  0.00  0.00    +0.251 A 
ATOM     17  N   UNL     1      -3.544   2.439  25.109  0.00  0.00    -0.188 NA
ATOM     18  C   UNL     1      -4.022   2.998  24.736  0.00  0.00    +0.223 A 
ATOM     19  N   UNL     1      -3.776   3.062  23.952  0.00  0.00    -0.054 NA
ATOM     20  O   UNL     1      -3.146   2.543  23.840  0.00  0.00    -0.336 OA
BRANCH  18  21
ATOM     21  C   UNL     1      -4.639   3.420  25.087  0.00  0.00    +0.139 A 
ATOM     22  C   UNL     1      -5.316   3.024  25.342  0.00  0.00    +0.121 A 
ATOM     23  N   UNL     1      -5.932   3.445  25.693  0.00  0.00    -0.239 NA
ATOM     24  C   UNL     1      -5.871   4.262  25.789  0.00  0.00    +0.120 A 
ATOM     25  C   UNL     1      -5.194   4.659  25.534  0.00  0.00    +0.120 A 
ATOM     26  N   UNL     1      -4.577   4.237  25.183  0.00  0.00    -0.237 NA
ENDBRANCH  18  21
ENDBRANCH  15  16
BRANCH  10   9
ATOM      9  C   UNL     1      -3.284   0.437  24.979  0.00  0.00    +0.100 C 
BRANCH   9   8
ATOM      5  C   UNL     1      -3.530  -1.992  24.572  0.00  0.00    +0.106 A 
ATOM      6  C   UNL     1      -3.625  -1.458  23.950  0.00  0.00    +0.018 A 
ATOM      7  C   UNL     1      -3.543  -0.648  24.085  0.00  0.00    -0.002 A 
ATOM      8  C   UNL     1      -3.366  -0.373  24.843  0.00  0.00    -0.006 A 
ATOM     27  C   UNL     1      -3.272  -0.907  25.465  0.00  0.00    -0.002 A 
ATOM     28  C   UNL     1      -3.354  -1.717  25.328  0.00  0.00    +0.018 A 
BRANCH   5   2
ATOM      1  C   UNL     1      -3.694  -3.611  24.299  0.00  0.00    +0.182 C 
ATOM      2  S   UNL     1      -3.612  -2.801  24.436  0.00  0.00    +0.010 S 
ATOM      3  O   UNL     1      -4.227  -2.651  23.907  0.00  0.00    -0.169 OA
ATOM      4  O   UNL     1      -2.997  -2.953  24.964  0.00  0.00    -0.169 OA
ENDBRANCH   5   2
ENDBRANCH   9   8
ENDBRANCH  10   9
TORSDOF 5
ENDMDL
MODEL 9
REMARK VINA RESULT:      -8.2     16.435     19.091
REMARK  Name = 
REMARK  5 active torsions:
REMARK  status: ('A' for Active; 'I' for Inactive)
REMARK    1  A    between atoms: S_2  and  C_5
REMARK    2  A    between atoms: C_8  and  C_9
REMARK    3  A    between atoms: C_9  and  N_10
REMARK    4  A    between atoms: C_15  and  C_16
REMARK    5  A    between atoms: C_18  and  C_21
REMARK                            x       y       z     vdW  Elec       q    Type
REMARK                         _______ _______ _______ _____ _____    ______ ____
ROOT
ATOM     10  N   UNL     1      13.412   7.961  18.738  0.00  0.00    -0.260 NA
ATOM     11  C   UNL     1      13.702   7.729  18.002  0.00  0.00    +0.106 C 
ATOM     12  C   UNL     1      13.069   7.719  17.471  0.00  0.00    +0.170 C 
ATOM     13  O   UNL     1      13.110   7.518  16.673  0.00  0.00    -0.222 OA
ATOM     14  C   UNL     1      12.390   7.945  17.881  0.00  0.00    +0.060 C 
ATOM     15  C   UNL     1      12.602   8.094  18.664  0.00  0.00    +0.140 C 
ENDROOT
BRANCH  15  16
ATOM     16  C   UNL     1      12.093   8.335  19.267  0.00  0.00    +0.251 A 
ATOM     17  N   UNL     1      11.856   7.879  19.913  0.00  0.00    -0.188 NA
ATOM     18  C   UNL     1      11.349   8.336  20.375  0.00  0.00    +0.223 A 
ATOM     19  N   UNL     1      11.272   9.074  20.015  0.00  0.00    -0.054 NA
ATOM     20  O   UNL     1      11.731   9.073  19.331  0.00  0.00    -0.336 OA
BRANCH  18  21
ATOM     21  C   UNL     1      10.982   8.097  21.074  0.00  0.00    +0.139 A 
ATOM     22  C   UNL     1      10.880   8.635  21.691  0.00  0.00    +0.121 A 
ATOM     23  N   UNL     1      10.514   8.395  22.391  0.00  0.00    -0.239 NA
ATOM     24  C   UNL     1      10.249   7.618  22.473  0.00  0.00    +0.120 A 
ATOM     25  C   UNL     1      10.350   7.080  21.856  0.00  0.00    +0.120 A 
ATOM     26  N   UNL     1      10.717   7.320  21.156  0.00  0.00    -0.237 NA
ENDBRANCH  18  21
ENDBRANCH  15  16
BRANCH  10   9
ATOM      9  C   UNL     1      13.856   8.045  19.429  0.00  0.00    +0.100 C 
BRANCH   9   8
ATOM      5  C   UNL     1      15.986   6.810  19.689  0.00  0.00    +0.106 A 
ATOM      6  C   UNL     1      15.991   7.591  19.424  0.00  0.00    +0.018 A 
ATOM      7  C   UNL     1      15.282   8.003  19.337  0.00  0.00    -0.002 A 
ATOM      8  C   UNL     1      14.566   7.633  19.516  0.00  0.00    -0.006 A 
ATOM     27  C   UNL     1      14.560   6.852  19.781  0.00  0.00    -0.002 A 
ATOM     28  C   UNL     1      15.271   6.441  19.868  0.00  0.00    +0.018 A 
BRANCH   5   2
ATOM      1  C   UNL     1      17.405   5.987  19.863  0.00  0.00    +0.182 C 
ATOM      2  S   UNL     1      16.695   6.399  19.776  0.00  0.00    +0.010 S 
ATOM      3  O   UNL     1      16.523   5.959  19.099  0.00  0.00    -0.169 OA
ATOM      4  O   UNL     1      16.868   6.838  20.453  0.00  0.00    -0.169 OA
ENDBRANCH   5   2
ENDBRANCH   9   8
ENDBRANCH  10   9
TORSDOF 5
ENDMDL
MODEL 10
REMARK VINA RESULT:      -8.2     16.387     19.017
REMARK  Name = 
REMARK  5 active torsions:
REMARK  status: ('A' for Active; 'I' for Inactive)
REMARK    1  A    between atoms: S_2  and  C_5
REMARK    2  A    between atoms: C_8  and  C_9
REMARK    3  A    between atoms: C_9  and  N_10
REMARK    4  A    between atoms: C_15  and  C_16
REMARK    5  A    between atoms: C_18  and  C_21
REMARK                            x       y       z     vdW  Elec       q    Type
REMARK                         _______ _______ _______ _____ _____    ______ ____
ROOT
ATOM     10  N   UNL     1      12.857   7.861  19.089  0.00  0.00    -0.260 NA
ATOM     11  C   UNL     1      12.150   7.809  18.668  0.00  0.00    +0.106 C 
ATOM     12  C   UNL     1      12.334   7.619  17.886  0.00  0.00    +0.170 C 
ATOM     13  O   UNL     1      11.792   7.514  17.272  0.00  0.00    -0.222 OA
ATOM     14  C   UNL     1      13.154   7.555  17.825  0.00  0.00    +0.060 C 
ATOM     15  C   UNL     1      13.477   7.704  18.570  0.00  0.00    +0.140 C 
ENDROOT
BRANCH  15  16
ATOM     16  C   UNL     1      14.279   7.698  18.760  0.00  0.00    +0.251 A 
ATOM     17  N   UNL     1      14.731   7.030  18.936  0.00  0.00    -0.188 NA
ATOM     18  C   UNL     1      15.502   7.277  19.093  0.00  0.00    +0.223 A 
ATOM     19  N   UNL     1      15.527   8.097  19.014  0.00  0.00    -0.054 NA
ATOM     20  O   UNL     1      14.772   8.357  18.809  0.00  0.00    -0.336 OA
BRANCH  18  21
ATOM     21  C   UNL     1      16.136   6.789  19.294  0.00  0.00    +0.139 A 
ATOM     22  C   UNL     1      16.525   6.894  20.014  0.00  0.00    +0.121 A 
ATOM     23  N   UNL     1      17.160   6.406  20.214  0.00  0.00    -0.239 NA
ATOM     24  C   UNL     1      17.405   5.814  19.695  0.00  0.00    +0.120 A 
ATOM     25  C   UNL     1      17.016   5.709  18.975  0.00  0.00    +0.120 A 
ATOM     26  N   UNL     1      16.382   6.197  18.774  0.00  0.00    -0.237 NA
ENDBRANCH  18  21
ENDBRANCH  15  16
BRANCH  10   9
ATOM      9  C   UNL     1      12.930   8.038  19.892  0.00  0.00    +0.100 C 
BRANCH   9   8
ATOM      5  C   UNL     1      11.037   7.617  21.431  0.00  0.00    +0.106 A 
ATOM      6  C   UNL     1      11.596   7.026  21.293  0.00  0.00    +0.018 A 
ATOM      7  C   UNL     1      12.227   7.166  20.780  0.00  0.00    -0.002 A 
ATOM      8  C   UNL     1      12.299   7.898  20.405  0.00  0.00    -0.006 A 
ATOM     27  C   UNL     1      11.740   8.489  20.543  0.00  0.00    -0.002 A 
ATOM     28  C   UNL     1      11.109   8.348  21.056  0.00  0.00    +0.018 A 
BRANCH   5   2
ATOM      1  C   UNL     1       9.776   7.336  22.457  0.00  0.00    +0.182 C 
ATOM      2  S   UNL     1      10.407   7.477  21.944  0.00  0.00    +0.010 S 
ATOM      3  O   UNL     1      10.570   8.183  22.338  0.00  0.00    -0.169 OA
ATOM      4  O   UNL     1      10.243   6.771  21.550  0.00  0.00    -0.169 OA
ENDBRANCH   5   2
ENDBRANCH   9   8
ENDBRANCH  10   9
TORSDOF 5
ENDMDL
