MODEL 1
REMARK VINA RESULT:      -9.9      0.000      0.000
REMARK  Name = 
REMARK  9 active torsions:
REMARK  status: ('A' for Active; 'I' for Inactive)
REMARK    1  A    between atoms: O_2  and  C_3
REMARK    2  A    between atoms: C_3  and  C_4
REMARK    3  A    between atoms: C_4  and  N_5
REMARK    4  A    between atoms: C_6  and  C_8
REMARK    5  A    between atoms: C_8  and  C_10
REMARK    6  A    between atoms: C_17  and  N_18
REMARK    7  A    between atoms: C_19  and  C_21
REMARK    8  A    between atoms: C_21  and  O_22
REMARK    9  A    between atoms: O_22  and  C_23
REMARK                            x       y       z     vdW  Elec       q    Type
REMARK                         _______ _______ _______ _____ _____    ______ ____
ROOT
ATOM     10  C   UNL     1      -4.214  -0.523  24.358  0.00  0.00    +0.039 C 
ATOM     11  C   UNL     1      -4.923  -0.520  24.778  0.00  0.00    +0.003 C 
ATOM     12  C   UNL     1      -5.221   0.188  25.082  0.00  0.00    +0.000 C 
ATOM     13  C   UNL     1      -4.808   0.892  24.965  0.00  0.00    +0.002 C 
ATOM     14  C   UNL     1      -5.518   0.894  25.385  0.00  0.00    +0.000 C 
ATOM     15  C   UNL     1      -5.105   1.600  25.268  0.00  0.00    +0.002 C 
ATOM     16  C   UNL     1      -4.692   2.304  25.152  0.00  0.00    +0.022 C 
ATOM     17  C   UNL     1      -3.983   2.301  24.732  0.00  0.00    +0.095 C 
ATOM     29  C   UNL     1      -3.685   1.595  24.428  0.00  0.00    +0.022 C 
ATOM     30  C   UNL     1      -2.975   1.592  24.008  0.00  0.00    +0.002 C 
ATOM     31  C   UNL     1      -4.098   0.889  24.545  0.00  0.00    +0.032 C 
ATOM     32  C   UNL     1      -3.801   0.183  24.241  0.00  0.00    +0.152 C 
ATOM     33  O   UNL     1      -3.091   0.180  23.821  0.00  0.00    -0.223 OA
ENDROOT
BRANCH  17  18
ATOM     18  N   UNL     1      -3.569   3.006  24.615  0.00  0.00    -0.204 NA
ATOM     19  C   UNL     1      -3.451   3.524  25.247  0.00  0.00    +0.286 C 
ATOM     20  O   UNL     1      -3.745   3.337  25.994  0.00  0.00    -0.269 OA
BRANCH  19  21
ATOM     21  C   UNL     1      -3.037   4.229  25.130  0.00  0.00    +0.291 C 
BRANCH  21  22
ATOM     22  O   UNL     1      -2.389   4.409  25.607  0.00  0.00    -0.466 OA
BRANCH  22  23
ATOM     23  C   UNL     1      -1.720   4.759  25.275  0.00  0.00    +0.139 A 
ATOM     24  C   UNL     1      -1.036   4.311  25.156  0.00  0.00    +0.037 A 
ATOM     25  C   UNL     1      -0.367   4.661  24.824  0.00  0.00    +0.003 A 
ATOM     26  C   UNL     1      -0.380   5.459  24.612  0.00  0.00    +0.000 A 
ATOM     27  C   UNL     1      -1.063   5.906  24.732  0.00  0.00    +0.003 A 
ATOM     28  C   UNL     1      -1.733   5.556  25.063  0.00  0.00    +0.037 A 
ENDBRANCH  22  23
ENDBRANCH  21  22
ENDBRANCH  19  21
ENDBRANCH  17  18
BRANCH  10   8
ATOM      8  C   UNL     1      -3.916  -1.229  24.054  0.00  0.00    +0.081 C 
ATOM      9  C   UNL     1      -4.065  -1.437  23.270  0.00  0.00    +0.010 C 
BRANCH   8   6
ATOM      5  N   UNL     1      -2.663  -1.827  24.393  0.00  0.00    -0.203 NA
ATOM      6  C   UNL     1      -3.470  -1.729  24.536  0.00  0.00    +0.241 C 
ATOM      7  O   UNL     1      -3.829  -2.130  25.160  0.00  0.00    -0.273 OA
BRANCH   5   4
ATOM      4  C   UNL     1      -2.216  -2.327  24.874  0.00  0.00    +0.147 C 
BRANCH   4   3
ATOM      3  C   UNL     1      -1.401  -2.384  24.765  0.00  0.00    +0.166 C 
BRANCH   3   2
ATOM      1  C   UNL     1      -0.148  -1.792  25.114  0.00  0.00    +0.174 C 
ATOM      2  O   UNL     1      -0.886  -2.085  25.337  0.00  0.00    -0.349 OA
ENDBRANCH   3   2
ENDBRANCH   4   3
ENDBRANCH   5   4
ENDBRANCH   8   6
ENDBRANCH  10   8
TORSDOF 9
ENDMDL
MODEL 2
REMARK VINA RESULT:      -9.8      2.780      5.007
REMARK  Name = 
REMARK  9 active torsions:
REMARK  status: ('A' for Active; 'I' for Inactive)
REMARK    1  A    between atoms: O_2  and  C_3
REMARK    2  A    between atoms: C_3  and  C_4
REMARK    3  A    between atoms: C_4  and  N_5
REMARK    4  A    between atoms: C_6  and  C_8
REMARK    5  A    between atoms: C_8  and  C_10
REMARK    6  A    between atoms: C_17  and  N_18
REMARK    7  A    between atoms: C_19  and  C_21
REMARK    8  A    between atoms: C_21  and  O_22
REMARK    9  A    between atoms: O_22  and  C_23
REMARK                            x       y       z     vdW  Elec       q    Type
REMARK                         _______ _______ _______ _____ _____    ______ ____
ROOT
ATOM     10  C   UNL     1      -3.182  -0.358  24.541  0.00  0.00    +0.039 C 
ATOM     11  C   UNL     1      -3.080  -1.037  24.995  0.00  0.00    +0.003 C 
ATOM     12  C   UNL     1      -2.320  -1.320  25.151  0.00  0.00    +0.000 C 
ATOM     13  C   UNL     1      -1.663  -0.921  24.851  0.00  0.00    +0.002 C 
ATOM     14  C   UNL     1      -1.561  -1.602  25.307  0.00  0.00    +0.000 C 
ATOM     15  C   UNL     1      -0.903  -1.203  25.007  0.00  0.00    +0.002 C 
ATOM     16  C   UNL     1      -0.246  -0.804  24.707  0.00  0.00    +0.022 C 
ATOM     17  C   UNL     1      -0.348  -0.124  24.253  0.00  0.00    +0.095 C 
ATOM     29  C   UNL     1      -1.107   0.158  24.097  0.00  0.00    +0.022 C 
ATOM     30  C   UNL     1      -1.209   0.839  23.643  0.00  0.00    +0.002 C 
ATOM     31  C   UNL     1      -1.765  -0.241  24.397  0.00  0.00    +0.032 C 
ATOM     32  C   UNL     1      -2.524   0.042  24.241  0.00  0.00    +0.152 C 
ATOM     33  O   UNL     1      -2.626   0.722  23.786  0.00  0.00    -0.223 OA
ENDROOT
BRANCH  17  18
ATOM     18  N   UNL     1       0.309   0.275  23.954  0.00  0.00    -0.204 NA
ATOM     19  C   UNL     1       0.832  -0.114  23.447  0.00  0.00    +0.286 C 
ATOM     20  O   UNL     1       0.697  -0.901  23.240  0.00  0.00    -0.269 OA
BRANCH  19  21
ATOM     21  C   UNL     1       1.489   0.285  23.147  0.00  0.00    +0.291 C 
BRANCH  21  22
ATOM     22  O   UNL     1       2.110  -0.141  22.809  0.00  0.00    -0.466 OA
BRANCH  22  23
ATOM     23  C   UNL     1       2.878   0.159  22.839  0.00  0.00    +0.139 A 
ATOM     24  C   UNL     1       3.019   0.950  22.648  0.00  0.00    +0.037 A 
ATOM     25  C   UNL     1       3.787   1.250  22.677  0.00  0.00    +0.003 A 
ATOM     26  C   UNL     1       4.413   0.761  22.898  0.00  0.00    +0.000 A 
ATOM     27  C   UNL     1       4.272  -0.028  23.089  0.00  0.00    +0.003 A 
ATOM     28  C   UNL     1       3.505  -0.330  23.060  0.00  0.00    +0.037 A 
ENDBRANCH  22  23
ENDBRANCH  21  22
ENDBRANCH  19  21
ENDBRANCH  17  18
BRANCH  10   8
ATOM      8  C   UNL     1      -3.941  -0.075  24.385  0.00  0.00    +0.081 C 
ATOM      9  C   UNL     1      -4.300  -0.233  23.659  0.00  0.00    +0.010 C 
BRANCH   8   6
ATOM      5  N   UNL     1      -4.654   1.104  24.763  0.00  0.00    -0.203 NA
ATOM      6  C   UNL     1      -4.342   0.366  24.957  0.00  0.00    +0.241 C 
ATOM      7  O   UNL     1      -4.430   0.068  25.720  0.00  0.00    -0.273 OA
BRANCH   5   4
ATOM      4  C   UNL     1      -5.055   1.545  25.334  0.00  0.00    +0.147 C 
BRANCH   4   3
ATOM      3  C   UNL     1      -5.282   2.321  25.171  0.00  0.00    +0.166 C 
BRANCH   3   2
ATOM      1  C   UNL     1      -5.595   3.621  25.676  0.00  0.00    +0.174 C 
ATOM      2  O   UNL     1      -5.569   2.803  25.778  0.00  0.00    -0.349 OA
ENDBRANCH   3   2
ENDBRANCH   4   3
ENDBRANCH   5   4
ENDBRANCH   8   6
ENDBRANCH  10   8
TORSDOF 9
ENDMDL
MODEL 3
REMARK VINA RESULT:      -9.6      3.020      5.290
REMARK  Name = 
REMARK  9 active torsions:
REMARK  status: ('A' for Active; 'I' for Inactive)
REMARK    1  A    between atoms: O_2  and  C_3
REMARK    2  A    between atoms: C_3  and  C_4
REMARK    3  A    between atoms: C_4  and  N_5
REMARK    4  A    between atoms: C_6  and  C_8
REMARK    5  A    between atoms: C_8  and  C_10
REMARK    6  A    between atoms: C_17  and  N_18
REMARK    7  A    between atoms: C_19  and  C_21
REMARK    8  A    between atoms: C_21  and  O_22
REMARK    9  A    between atoms: O_22  and  C_23
REMARK                            x       y       z     vdW  Elec       q    Type
REMARK                         _______ _______ _______ _____ _____    ______ ____
ROOT
ATOM     10  C   UNL     1      -2.885   1.761  24.154  0.00  0.00    +0.039 C 
ATOM     11  C   UNL     1      -3.131   0.995  24.331  0.00  0.00    +0.003 C 
ATOM     12  C   UNL     1      -2.576   0.386  24.388  0.00  0.00    +0.000 C 
ATOM     13  C   UNL     1      -1.776   0.546  24.267  0.00  0.00    +0.002 C 
ATOM     14  C   UNL     1      -2.022  -0.223  24.445  0.00  0.00    +0.000 C 
ATOM     15  C   UNL     1      -1.221  -0.063  24.324  0.00  0.00    +0.002 C 
ATOM     16  C   UNL     1      -0.421   0.096  24.203  0.00  0.00    +0.022 C 
ATOM     17  C   UNL     1      -0.175   0.863  24.026  0.00  0.00    +0.095 C 
ATOM     29  C   UNL     1      -0.729   1.471  23.969  0.00  0.00    +0.022 C 
ATOM     30  C   UNL     1      -0.482   2.238  23.792  0.00  0.00    +0.002 C 
ATOM     31  C   UNL     1      -1.530   1.312  24.090  0.00  0.00    +0.032 C 
ATOM     32  C   UNL     1      -2.084   1.921  24.033  0.00  0.00    +0.152 C 
ATOM     33  O   UNL     1      -1.838   2.688  23.856  0.00  0.00    -0.223 OA
ENDROOT
BRANCH  17  18
ATOM     18  N   UNL     1       0.625   1.022  23.906  0.00  0.00    -0.204 NA
ATOM     19  C   UNL     1       1.070   0.542  23.402  0.00  0.00    +0.286 C 
ATOM     20  O   UNL     1       0.715  -0.096  23.021  0.00  0.00    -0.269 OA
BRANCH  19  21
ATOM     21  C   UNL     1       1.871   0.701  23.281  0.00  0.00    +0.291 C 
BRANCH  21  22
ATOM     22  O   UNL     1       2.346   0.151  22.892  0.00  0.00    -0.466 OA
BRANCH  22  23
ATOM     23  C   UNL     1       3.167   0.225  22.917  0.00  0.00    +0.139 A 
ATOM     24  C   UNL     1       3.627  -0.383  23.235  0.00  0.00    +0.037 A 
ATOM     25  C   UNL     1       4.448  -0.308  23.261  0.00  0.00    +0.003 A 
ATOM     26  C   UNL     1       4.810   0.373  22.968  0.00  0.00    +0.000 A 
ATOM     27  C   UNL     1       4.351   0.979  22.650  0.00  0.00    +0.003 A 
ATOM     28  C   UNL     1       3.530   0.906  22.624  0.00  0.00    +0.037 A 
ENDBRANCH  22  23
ENDBRANCH  21  22
ENDBRANCH  19  21
ENDBRANCH  17  18
BRANCH  10   8
ATOM      8  C   UNL     1      -3.439   2.370  24.097  0.00  0.00    +0.081 C 
ATOM      9  C   UNL     1      -3.597   2.717  23.366  0.00  0.00    +0.010 C 
BRANCH   8   6
ATOM      5  N   UNL     1      -4.635   2.461  24.873  0.00  0.00    -0.203 NA
ATOM      6  C   UNL     1      -3.835   2.631  24.773  0.00  0.00    +0.241 C 
ATOM      7  O   UNL     1      -3.430   3.062  25.347  0.00  0.00    -0.273 OA
BRANCH   5   4
ATOM      4  C   UNL     1      -5.031   2.722  25.548  0.00  0.00    +0.147 C 
BRANCH   4   3
ATOM      3  C   UNL     1      -5.804   2.473  25.695  0.00  0.00    +0.166 C 
BRANCH   3   2
ATOM      1  C   UNL     1      -6.592   1.828  26.697  0.00  0.00    +0.174 C 
ATOM      2  O   UNL     1      -6.086   2.438  26.470  0.00  0.00    -0.349 OA
ENDBRANCH   3   2
ENDBRANCH   4   3
ENDBRANCH   5   4
ENDBRANCH   8   6
ENDBRANCH  10   8
TORSDOF 9
ENDMDL
MODEL 4
REMARK VINA RESULT:      -9.5      1.665      5.877
REMARK  Name = 
REMARK  9 active torsions:
REMARK  status: ('A' for Active; 'I' for Inactive)
REMARK    1  A    between atoms: O_2  and  C_3
REMARK    2  A    between atoms: C_3  and  C_4
REMARK    3  A    between atoms: C_4  and  N_5
REMARK    4  A    between atoms: C_6  and  C_8
REMARK    5  A    between atoms: C_8  and  C_10
REMARK    6  A    between atoms: C_17  and  N_18
REMARK    7  A    between atoms: C_19  and  C_21
REMARK    8  A    between atoms: C_21  and  O_22
REMARK    9  A    between atoms: O_22  and  C_23
REMARK                            x       y       z     vdW  Elec       q    Type
REMARK                         _______ _______ _______ _____ _____    ______ ____
ROOT
ATOM     10  C   UNL     1      -2.014   3.464  25.283  0.00  0.00    +0.039 C 
ATOM     11  C   UNL     1      -1.354   3.649  25.741  0.00  0.00    +0.003 C 
ATOM     12  C   UNL     1      -0.774   3.078  25.879  0.00  0.00    +0.000 C 
ATOM     13  C   UNL     1      -0.854   2.323  25.557  0.00  0.00    +0.002 C 
ATOM     14  C   UNL     1      -0.193   2.509  26.016  0.00  0.00    +0.000 C 
ATOM     15  C   UNL     1      -0.273   1.753  25.695  0.00  0.00    +0.002 C 
ATOM     16  C   UNL     1      -0.354   0.997  25.373  0.00  0.00    +0.022 C 
ATOM     17  C   UNL     1      -1.014   0.812  24.916  0.00  0.00    +0.095 C 
ATOM     29  C   UNL     1      -1.594   1.381  24.778  0.00  0.00    +0.022 C 
ATOM     30  C   UNL     1      -2.254   1.196  24.320  0.00  0.00    +0.002 C 
ATOM     31  C   UNL     1      -1.514   2.138  25.099  0.00  0.00    +0.032 C 
ATOM     32  C   UNL     1      -2.094   2.707  24.962  0.00  0.00    +0.152 C 
ATOM     33  O   UNL     1      -2.755   2.522  24.503  0.00  0.00    -0.223 OA
ENDROOT
BRANCH  17  18
ATOM     18  N   UNL     1      -1.094   0.056  24.594  0.00  0.00    -0.204 NA
ATOM     19  C   UNL     1      -1.087  -0.605  25.089  0.00  0.00    +0.286 C 
ATOM     20  O   UNL     1      -0.999  -0.510  25.903  0.00  0.00    -0.269 OA
BRANCH  19  21
ATOM     21  C   UNL     1      -1.168  -1.361  24.768  0.00  0.00    +0.291 C 
BRANCH  21  22
ATOM     22  O   UNL     1      -1.570  -1.946  25.188  0.00  0.00    -0.466 OA
BRANCH  22  23
ATOM     23  C   UNL     1      -2.211  -2.333  24.842  0.00  0.00    +0.139 A 
ATOM     24  C   UNL     1      -2.970  -2.229  25.151  0.00  0.00    +0.037 A 
ATOM     25  C   UNL     1      -3.612  -2.616  24.806  0.00  0.00    +0.003 A 
ATOM     26  C   UNL     1      -3.496  -3.106  24.153  0.00  0.00    +0.000 A 
ATOM     27  C   UNL     1      -2.738  -3.209  23.844  0.00  0.00    +0.003 A 
ATOM     28  C   UNL     1      -2.096  -2.823  24.189  0.00  0.00    +0.037 A 
ENDBRANCH  22  23
ENDBRANCH  21  22
ENDBRANCH  19  21
ENDBRANCH  17  18
BRANCH  10   8
ATOM      8  C   UNL     1      -2.594   4.033  25.146  0.00  0.00    +0.081 C 
ATOM      9  C   UNL     1      -2.526   4.546  24.503  0.00  0.00    +0.010 C 
BRANCH   8   6
ATOM      5  N   UNL     1      -3.990   3.850  25.394  0.00  0.00    -0.203 NA
ATOM      6  C   UNL     1      -3.244   4.090  25.652  0.00  0.00    +0.241 C 
ATOM      7  O   UNL     1      -3.148   4.387  26.415  0.00  0.00    -0.273 OA
BRANCH   5   4
ATOM      4  C   UNL     1      -4.640   3.907  25.900  0.00  0.00    +0.147 C 
BRANCH   4   3
ATOM      3  C   UNL     1      -5.357   3.559  25.690  0.00  0.00    +0.166 C 
BRANCH   3   2
ATOM      1  C   UNL     1      -6.100   2.359  25.911  0.00  0.00    +0.174 C 
ATOM      2  O   UNL     1      -5.727   3.032  26.207  0.00  0.00    -0.349 OA
ENDBRANCH   3   2
ENDBRANCH   4   3
ENDBRANCH   5   4
ENDBRANCH   8   6
ENDBRANCH  10   8
TORSDOF 9
ENDMDL
MODEL 5
REMARK VINA RESULT:      -9.5      1.236      5.263
REMARK  Name = 
REMARK  9 active torsions:
REMARK  status: ('A' for Active; 'I' for Inactive)
REMARK    1  A    between atoms: O_2  and  C_3
REMARK    2  A    between atoms: C_3  and  C_4
REMARK    3  A    between atoms: C_4  and  N_5
REMARK    4  A    between atoms: C_6  and  C_8
REMARK    5  A    between atoms: C_8  and  C_10
REMARK    6  A    between atoms: C_17  and  N_18
REMARK    7  A    between atoms: C_19  and  C_21
REMARK    8  A    between atoms: C_21  and  O_22
REMARK    9  A    between atoms: O_22  and  C_23
REMARK                            x       y       z     vdW  Elec       q    Type
REMARK                         _______ _______ _______ _____ _____    ______ ____
ROOT
ATOM     10  C   UNL     1      -3.826   3.628  24.845  0.00  0.00    +0.039 C 
ATOM     11  C   UNL     1      -4.467   3.796  25.334  0.00  0.00    +0.003 C 
ATOM     12  C   UNL     1      -4.992   3.196  25.548  0.00  0.00    +0.000 C 
ATOM     13  C   UNL     1      -4.875   2.428  25.271  0.00  0.00    +0.002 C 
ATOM     14  C   UNL     1      -5.517   2.597  25.762  0.00  0.00    +0.000 C 
ATOM     15  C   UNL     1      -5.400   1.828  25.485  0.00  0.00    +0.002 C 
ATOM     16  C   UNL     1      -5.282   1.060  25.208  0.00  0.00    +0.022 C 
ATOM     17  C   UNL     1      -4.641   0.892  24.718  0.00  0.00    +0.095 C 
ATOM     29  C   UNL     1      -4.116   1.491  24.504  0.00  0.00    +0.022 C 
ATOM     30  C   UNL     1      -3.474   1.323  24.014  0.00  0.00    +0.002 C 
ATOM     31  C   UNL     1      -4.234   2.260  24.781  0.00  0.00    +0.032 C 
ATOM     32  C   UNL     1      -3.709   2.859  24.567  0.00  0.00    +0.152 C 
ATOM     33  O   UNL     1      -3.067   2.691  24.077  0.00  0.00    -0.223 OA
ENDROOT
BRANCH  17  18
ATOM     18  N   UNL     1      -4.523   0.124  24.441  0.00  0.00    -0.204 NA
ATOM     19  C   UNL     1      -4.345  -0.483  24.972  0.00  0.00    +0.286 C 
ATOM     20  O   UNL     1      -4.286  -0.322  25.778  0.00  0.00    -0.269 OA
BRANCH  19  21
ATOM     21  C   UNL     1      -4.227  -1.252  24.695  0.00  0.00    +0.291 C 
BRANCH  21  22
ATOM     22  O   UNL     1      -3.771  -1.782  25.133  0.00  0.00    -0.466 OA
BRANCH  22  23
ATOM     23  C   UNL     1      -3.241  -2.283  24.749  0.00  0.00    +0.139 A 
ATOM     24  C   UNL     1      -3.524  -2.911  24.293  0.00  0.00    +0.037 A 
ATOM     25  C   UNL     1      -2.994  -3.412  23.908  0.00  0.00    +0.003 A 
ATOM     26  C   UNL     1      -2.181  -3.287  23.980  0.00  0.00    +0.000 A 
ATOM     27  C   UNL     1      -1.899  -2.661  24.435  0.00  0.00    +0.003 A 
ATOM     28  C   UNL     1      -2.429  -2.159  24.820  0.00  0.00    +0.037 A 
ENDBRANCH  22  23
ENDBRANCH  21  22
ENDBRANCH  19  21
ENDBRANCH  17  18
BRANCH  10   8
ATOM      8  C   UNL     1      -3.301   4.228  24.631  0.00  0.00    +0.081 C 
ATOM      9  C   UNL     1      -3.420   4.650  23.932  0.00  0.00    +0.010 C 
BRANCH   8   6
ATOM      5  N   UNL     1      -1.902   4.147  24.908  0.00  0.00    -0.203 NA
ATOM      6  C   UNL     1      -2.657   4.404  25.116  0.00  0.00    +0.241 C 
ATOM      7  O   UNL     1      -2.770   4.837  25.809  0.00  0.00    -0.273 OA
BRANCH   5   4
ATOM      4  C   UNL     1      -1.258   4.324  25.394  0.00  0.00    +0.147 C 
BRANCH   4   3
ATOM      3  C   UNL     1      -0.543   3.925  25.291  0.00  0.00    +0.166 C 
BRANCH   3   2
ATOM      1  C   UNL     1       0.172   2.737  25.634  0.00  0.00    +0.174 C 
ATOM      2  O   UNL     1      -0.287   3.384  25.859  0.00  0.00    -0.349 OA
ENDBRANCH   3   2
ENDBRANCH   4   3
ENDBRANCH   5   4
ENDBRANCH   8   6
ENDBRANCH  10   8
TORSDOF 9
ENDMDL
MODEL 6
REMARK VINA RESULT:      -9.2      2.264      3.799
REMARK  Name = 
REMARK  9 active torsions:
REMARK  status: ('A' for Active; 'I' for Inactive)
REMARK    1  A    between atoms: O_2  and  C_3
REMARK    2  A    between atoms: C_3  and  C_4
REMARK    3  A    between atoms: C_4  and  N_5
REMARK    4  A    between atoms: C_6  and  C_8
REMARK    5  A    between atoms: C_8  and  C_10
REMARK    6  A    between atoms: C_17  and  N_18
REMARK    7  A    between atoms: C_19  and  C_21
REMARK    8  A    between atoms: C_21  and  O_22
REMARK    9  A    between atoms: O_22  and  C_23
REMARK                            x       y       z     vdW  Elec       q    Type
REMARK                         _______ _______ _______ _____ _____    ______ ____
ROOT
ATOM     10  C   UNL     1      -1.200  -1.513  24.610  0.00  0.00    +0.039 C 
ATOM     11  C   UNL     1      -1.557  -2.230  24.414  0.00  0.00    +0.003 C 
ATOM     12  C   UNL     1      -2.377  -2.312  24.473  0.00  0.00    +0.000 C 
ATOM     13  C   UNL     1      -2.838  -1.677  24.728  0.00  0.00    +0.002 C 
ATOM     14  C   UNL     1      -3.195  -2.395  24.532  0.00  0.00    +0.000 C 
ATOM     15  C   UNL     1      -3.657  -1.760  24.787  0.00  0.00    +0.002 C 
ATOM     16  C   UNL     1      -4.118  -1.125  25.041  0.00  0.00    +0.022 C 
ATOM     17  C   UNL     1      -3.761  -0.408  25.237  0.00  0.00    +0.095 C 
ATOM     29  C   UNL     1      -2.942  -0.325  25.178  0.00  0.00    +0.022 C 
ATOM     30  C   UNL     1      -2.585   0.392  25.374  0.00  0.00    +0.002 C 
ATOM     31  C   UNL     1      -2.481  -0.961  24.923  0.00  0.00    +0.032 C 
ATOM     32  C   UNL     1      -1.662  -0.878  24.865  0.00  0.00    +0.152 C 
ATOM     33  O   UNL     1      -1.305  -0.160  25.061  0.00  0.00    -0.223 OA
ENDROOT
BRANCH  17  18
ATOM     18  N   UNL     1      -4.221   0.227  25.492  0.00  0.00    -0.204 NA
ATOM     19  C   UNL     1      -4.790   0.551  24.989  0.00  0.00    +0.286 C 
ATOM     20  O   UNL     1      -4.898   0.240  24.233  0.00  0.00    -0.269 OA
BRANCH  19  21
ATOM     21  C   UNL     1      -5.252   1.187  25.243  0.00  0.00    +0.291 C 
BRANCH  21  22
ATOM     22  O   UNL     1      -5.396   1.820  24.735  0.00  0.00    -0.466 OA
BRANCH  22  23
ATOM     23  C   UNL     1      -5.347   2.594  25.018  0.00  0.00    +0.139 A 
ATOM     24  C   UNL     1      -5.909   2.871  25.556  0.00  0.00    +0.037 A 
ATOM     25  C   UNL     1      -5.860   3.645  25.839  0.00  0.00    +0.003 A 
ATOM     26  C   UNL     1      -5.252   4.140  25.585  0.00  0.00    +0.000 A 
ATOM     27  C   UNL     1      -4.692   3.863  25.047  0.00  0.00    +0.003 A 
ATOM     28  C   UNL     1      -4.739   3.089  24.764  0.00  0.00    +0.037 A 
ENDBRANCH  22  23
ENDBRANCH  21  22
ENDBRANCH  19  21
ENDBRANCH  17  18
BRANCH  10   8
ATOM      8  C   UNL     1      -0.382  -1.430  24.551  0.00  0.00    +0.081 C 
ATOM      9  C   UNL     1       0.097  -1.585  25.205  0.00  0.00    +0.010 C 
BRANCH   8   6
ATOM      5  N   UNL     1       0.560  -0.627  23.837  0.00  0.00    -0.203 NA
ATOM      6  C   UNL     1      -0.042  -1.192  23.838  0.00  0.00    +0.241 C 
ATOM      7  O   UNL     1      -0.303  -1.517  23.127  0.00  0.00    -0.273 OA
BRANCH   5   4
ATOM      4  C   UNL     1       0.900  -0.389  23.123  0.00  0.00    +0.147 C 
BRANCH   4   3
ATOM      3  C   UNL     1       1.568   0.094  23.127  0.00  0.00    +0.166 C 
BRANCH   3   2
ATOM      1  C   UNL     1       2.856   0.394  22.584  0.00  0.00    +0.174 C 
ATOM      2  O   UNL     1       2.108   0.056  22.503  0.00  0.00    -0.349 OA
ENDBRANCH   3   2
ENDBRANCH   4   3
ENDBRANCH   5   4
ENDBRANCH   8   6
ENDBRANCH  10   8
TORSDOF 9
ENDMDL
MODEL 7
REMARK VINA RESULT:      -9.0      2.802      5.205
REMARK  Name = 
REMARK  9 active torsions:
REMARK  status: ('A' for Active; 'I' for Inactive)
REMARK    1  A    between atoms: O_2  and  C_3
REMARK    2  A    between atoms: C_3  and  C_4
REMARK    3  A    between atoms: C_4  and  N_5
REMARK    4  A    between atoms: C_6  and  C_8
REMARK    5  A    between atoms: C_8  and  C_10
REMARK    6  A    between atoms: C_17  and  N_18
REMARK    7  A    between atoms: C_19  and  C_21
REMARK    8  A    between atoms: C_21  and  O_22
REMARK    9  A    between atoms: O_22  and  C_23
REMARK                            x       y       z     vdW  Elec       q    Type
REMARK                         _______ _______ _______ _____ _____    ______ ____
ROOT
ATOM     10  C   UNL     1      -3.124   3.342  24.780  0.00  0.00    +0.039 C 
ATOM     11  C   UNL     1      -2.883   3.777  25.437  0.00  0.00    +0.003 C 
ATOM     12  C   UNL     1      -2.125   3.671  25.747  0.00  0.00    +0.000 C 
ATOM     13  C   UNL     1      -1.609   3.130  25.398  0.00  0.00    +0.002 C 
ATOM     14  C   UNL     1      -1.368   3.566  26.057  0.00  0.00    +0.000 C 
ATOM     15  C   UNL     1      -0.851   3.024  25.708  0.00  0.00    +0.002 C 
ATOM     16  C   UNL     1      -0.336   2.483  25.360  0.00  0.00    +0.022 C 
ATOM     17  C   UNL     1      -0.577   2.048  24.703  0.00  0.00    +0.095 C 
ATOM     29  C   UNL     1      -1.334   2.153  24.393  0.00  0.00    +0.022 C 
ATOM     30  C   UNL     1      -1.575   1.718  23.735  0.00  0.00    +0.002 C 
ATOM     31  C   UNL     1      -1.850   2.695  24.741  0.00  0.00    +0.032 C 
ATOM     32  C   UNL     1      -2.607   2.800  24.431  0.00  0.00    +0.152 C 
ATOM     33  O   UNL     1      -2.849   2.365  23.773  0.00  0.00    -0.223 OA
ENDROOT
BRANCH  17  18
ATOM     18  N   UNL     1      -0.061   1.507  24.354  0.00  0.00    -0.204 NA
ATOM     19  C   UNL     1       0.702   1.741  24.144  0.00  0.00    +0.286 C 
ATOM     20  O   UNL     1       0.948   2.515  24.282  0.00  0.00    -0.269 OA
BRANCH  19  21
ATOM     21  C   UNL     1       1.218   1.199  23.795  0.00  0.00    +0.291 C 
BRANCH  21  22
ATOM     22  O   UNL     1       1.924   1.462  23.457  0.00  0.00    -0.466 OA
BRANCH  22  23
ATOM     23  C   UNL     1       2.415   0.928  23.065  0.00  0.00    +0.139 A 
ATOM     24  C   UNL     1       3.230   1.058  23.043  0.00  0.00    +0.037 A 
ATOM     25  C   UNL     1       3.722   0.525  22.650  0.00  0.00    +0.003 A 
ATOM     26  C   UNL     1       3.400  -0.138  22.279  0.00  0.00    +0.000 A 
ATOM     27  C   UNL     1       2.586  -0.268  22.302  0.00  0.00    +0.003 A 
ATOM     28  C   UNL     1       2.093   0.265  22.694  0.00  0.00    +0.037 A 
ENDBRANCH  22  23
ENDBRANCH  21  22
ENDBRANCH  19  21
ENDBRANCH  17  18
BRANCH  10   8
ATOM      8  C   UNL     1      -3.881   3.448  24.470  0.00  0.00    +0.081 C 
ATOM      9  C   UNL     1      -3.982   3.569  23.660  0.00  0.00    +0.010 C 
BRANCH   8   6
ATOM      5  N   UNL     1      -4.959   2.730  25.074  0.00  0.00    -0.203 NA
ATOM      6  C   UNL     1      -4.537   3.431  24.970  0.00  0.00    +0.241 C 
ATOM      7  O   UNL     1      -4.771   4.115  25.366  0.00  0.00    -0.273 OA
BRANCH   5   4
ATOM      4  C   UNL     1      -5.615   2.714  25.575  0.00  0.00    +0.147 C 
BRANCH   4   3
ATOM      3  C   UNL     1      -5.956   1.992  25.783  0.00  0.00    +0.166 C 
BRANCH   3   2
ATOM      1  C   UNL     1      -6.549   1.361  26.920  0.00  0.00    +0.174 C 
ATOM      2  O   UNL     1      -6.547   1.966  26.360  0.00  0.00    -0.349 OA
ENDBRANCH   3   2
ENDBRANCH   4   3
ENDBRANCH   5   4
ENDBRANCH   8   6
ENDBRANCH  10   8
TORSDOF 9
ENDMDL
MODEL 8
REMARK VINA RESULT:      -8.9      2.988      4.861
REMARK  Name = 
REMARK  9 active torsions:
REMARK  status: ('A' for Active; 'I' for Inactive)
REMARK    1  A    between atoms: O_2  and  C_3
REMARK    2  A    between atoms: C_3  and  C_4
REMARK    3  A    between atoms: C_4  and  N_5
REMARK    4  A    between atoms: C_6  and  C_8
REMARK    5  A    between atoms: C_8  and  C_10
REMARK    6  A    between atoms: C_17  and  N_18
REMARK    7  A    between atoms: C_19  and  C_21
REMARK    8  A    between atoms: C_21  and  O_22
REMARK    9  A    between atoms: O_22  and  C_23
REMARK                            x       y       z     vdW  Elec       q    Type
REMARK                         _______ _______ _______ _____ _____    ______ ____
ROOT
ATOM     10  C   UNL     1       0.594  -0.095  23.354  0.00  0.00    +0.039 C 
ATOM     11  C   UNL     1       0.662  -0.739  23.863  0.00  0.00    +0.003 C 
ATOM     12  C   UNL     1       0.066  -0.895  24.413  0.00  0.00    +0.000 C 
ATOM     13  C   UNL     1      -0.596  -0.405  24.453  0.00  0.00    +0.002 C 
ATOM     14  C   UNL     1      -0.528  -1.051  24.963  0.00  0.00    +0.000 C 
ATOM     15  C   UNL     1      -1.192  -0.561  25.003  0.00  0.00    +0.002 C 
ATOM     16  C   UNL     1      -1.854  -0.072  25.042  0.00  0.00    +0.022 C 
ATOM     17  C   UNL     1      -1.922   0.572  24.533  0.00  0.00    +0.095 C 
ATOM     29  C   UNL     1      -1.327   0.729  23.983  0.00  0.00    +0.022 C 
ATOM     30  C   UNL     1      -1.395   1.374  23.473  0.00  0.00    +0.002 C 
ATOM     31  C   UNL     1      -0.664   0.239  23.943  0.00  0.00    +0.032 C 
ATOM     32  C   UNL     1      -0.069   0.395  23.393  0.00  0.00    +0.152 C 
ATOM     33  O   UNL     1      -0.137   1.040  22.884  0.00  0.00    -0.223 OA
ENDROOT
BRANCH  17  18
ATOM     18  N   UNL     1      -2.585   1.062  24.572  0.00  0.00    -0.204 NA
ATOM     19  C   UNL     1      -3.340   0.731  24.612  0.00  0.00    +0.286 C 
ATOM     20  O   UNL     1      -3.432  -0.088  24.613  0.00  0.00    -0.269 OA
BRANCH  19  21
ATOM     21  C   UNL     1      -4.004   1.221  24.652  0.00  0.00    +0.291 C 
BRANCH  21  22
ATOM     22  O   UNL     1      -4.372   1.358  25.377  0.00  0.00    -0.466 OA
BRANCH  22  23
ATOM     23  C   UNL     1      -4.935   1.957  25.446  0.00  0.00    +0.139 A 
ATOM     24  C   UNL     1      -4.695   2.745  25.490  0.00  0.00    +0.037 A 
ATOM     25  C   UNL     1      -5.258   3.344  25.559  0.00  0.00    +0.003 A 
ATOM     26  C   UNL     1      -6.061   3.155  25.583  0.00  0.00    +0.000 A 
ATOM     27  C   UNL     1      -6.300   2.367  25.539  0.00  0.00    +0.003 A 
ATOM     28  C   UNL     1      -5.738   1.768  25.470  0.00  0.00    +0.037 A 
ENDBRANCH  22  23
ENDBRANCH  21  22
ENDBRANCH  19  21
ENDBRANCH  17  18
BRANCH  10   8
ATOM      8  C   UNL     1       1.189   0.061  22.804  0.00  0.00    +0.081 C 
ATOM      9  C   UNL     1       1.085  -0.148  22.013  0.00  0.00    +0.010 C 
BRANCH   8   6
ATOM      5  N   UNL     1       2.615   0.145  22.778  0.00  0.00    -0.203 NA
ATOM      6  C   UNL     1       1.888   0.428  23.046  0.00  0.00    +0.241 C 
ATOM      7  O   UNL     1       1.860   1.075  23.555  0.00  0.00    -0.273 OA
BRANCH   5   4
ATOM      4  C   UNL     1       3.315   0.512  23.020  0.00  0.00    +0.147 C 
BRANCH   4   3
ATOM      3  C   UNL     1       4.042   0.156  22.862  0.00  0.00    +0.166 C 
BRANCH   3   2
ATOM      1  C   UNL     1       5.378   0.126  23.369  0.00  0.00    +0.174 C 
ATOM      2  O   UNL     1       4.743   0.548  23.054  0.00  0.00    -0.349 OA
ENDBRANCH   3   2
ENDBRANCH   4   3
ENDBRANCH   5   4
ENDBRANCH   8   6
ENDBRANCH  10   8
TORSDOF 9
ENDMDL
MODEL 9
REMARK VINA RESULT:      -7.3     14.376     16.659
REMARK  Name = 
REMARK  9 active torsions:
REMARK  status: ('A' for Active; 'I' for Inactive)
REMARK    1  A    between atoms: O_2  and  C_3
REMARK    2  A    between atoms: C_3  and  C_4
REMARK    3  A    between atoms: C_4  and  N_5
REMARK    4  A    between atoms: C_6  and  C_8
REMARK    5  A    between atoms: C_8  and  C_10
REMARK    6  A    between atoms: C_17  and  N_18
REMARK    7  A    between atoms: C_19  and  C_21
REMARK    8  A    between atoms: C_21  and  O_22
REMARK    9  A    between atoms: O_22  and  C_23
REMARK                            x       y       z     vdW  Elec       q    Type
REMARK                         _______ _______ _______ _____ _____    ______ ____
ROOT
ATOM     10  C   UNL     1      -3.944  -9.821  11.162  0.00  0.00    +0.039 C 
ATOM     11  C   UNL     1      -4.507  -9.320  10.831  0.00  0.00    +0.003 C 
ATOM     12  C   UNL     1      -5.193  -9.134  11.251  0.00  0.00    +0.000 C 
ATOM     13  C   UNL     1      -5.314  -9.451  12.003  0.00  0.00    +0.002 C 
ATOM     14  C   UNL     1      -5.879  -8.948  11.671  0.00  0.00    +0.000 C 
ATOM     15  C   UNL     1      -6.000  -9.265  12.423  0.00  0.00    +0.002 C 
ATOM     16  C   UNL     1      -6.121  -9.582  13.175  0.00  0.00    +0.022 C 
ATOM     17  C   UNL     1      -5.558 -10.084  13.507  0.00  0.00    +0.095 C 
ATOM     29  C   UNL     1      -4.872 -10.270  13.087  0.00  0.00    +0.022 C 
ATOM     30  C   UNL     1      -4.309 -10.772  13.419  0.00  0.00    +0.002 C 
ATOM     31  C   UNL     1      -4.751  -9.953  12.334  0.00  0.00    +0.032 C 
ATOM     32  C   UNL     1      -4.066 -10.139  11.915  0.00  0.00    +0.152 C 
ATOM     33  O   UNL     1      -3.502 -10.641  12.247  0.00  0.00    -0.223 OA
ENDROOT
BRANCH  17  18
ATOM     18  N   UNL     1      -5.679 -10.401  14.258  0.00  0.00    -0.204 NA
ATOM     19  C   UNL     1      -5.872  -9.904  14.889  0.00  0.00    +0.286 C 
ATOM     20  O   UNL     1      -5.945  -9.093  14.767  0.00  0.00    -0.269 OA
BRANCH  19  21
ATOM     21  C   UNL     1      -5.993 -10.221  15.642  0.00  0.00    +0.291 C 
BRANCH  21  22
ATOM     22  O   UNL     1      -5.992  -9.727  16.302  0.00  0.00    -0.466 OA
BRANCH  22  23
ATOM     23  C   UNL     1      -6.022 -10.052  17.059  0.00  0.00    +0.139 A 
ATOM     24  C   UNL     1      -5.328 -10.309  17.425  0.00  0.00    +0.037 A 
ATOM     25  C   UNL     1      -5.358 -10.634  18.183  0.00  0.00    +0.003 A 
ATOM     26  C   UNL     1      -6.080 -10.702  18.575  0.00  0.00    +0.000 A 
ATOM     27  C   UNL     1      -6.773 -10.445  18.209  0.00  0.00    +0.003 A 
ATOM     28  C   UNL     1      -6.744 -10.120  17.451  0.00  0.00    +0.037 A 
ENDBRANCH  22  23
ENDBRANCH  21  22
ENDBRANCH  19  21
ENDBRANCH  17  18
BRANCH  10   8
ATOM      8  C   UNL     1      -3.259 -10.007  10.743  0.00  0.00    +0.081 C 
ATOM      9  C   UNL     1      -3.146 -10.772  10.454  0.00  0.00    +0.010 C 
BRANCH   8   6
ATOM      5  N   UNL     1      -1.958  -9.474  11.000  0.00  0.00    -0.203 NA
ATOM      6  C   UNL     1      -2.685  -9.428  10.613  0.00  0.00    +0.241 C 
ATOM      7  O   UNL     1      -2.839  -8.804  10.097  0.00  0.00    -0.273 OA
BRANCH   5   4
ATOM      4  C   UNL     1      -1.384  -8.894  10.870  0.00  0.00    +0.147 C 
BRANCH   4   3
ATOM      3  C   UNL     1      -0.676  -8.914  11.293  0.00  0.00    +0.166 C 
BRANCH   3   2
ATOM      1  C   UNL     1       0.636  -8.494  10.914  0.00  0.00    +0.174 C 
ATOM      2  O   UNL     1       0.035  -9.059  10.899  0.00  0.00    -0.349 OA
ENDBRANCH   3   2
ENDBRANCH   4   3
ENDBRANCH   5   4
ENDBRANCH   8   6
ENDBRANCH  10   8
TORSDOF 9
ENDMDL
MODEL 10
REMARK VINA RESULT:      -6.8     16.407     18.391
REMARK  Name = 
REMARK  9 active torsions:
REMARK  status: ('A' for Active; 'I' for Inactive)
REMARK    1  A    between atoms: O_2  and  C_3
REMARK    2  A    between atoms: C_3  and  C_4
REMARK    3  A    between atoms: C_4  and  N_5
REMARK    4  A    between atoms: C_6  and  C_8
REMARK    5  A    between atoms: C_8  and  C_10
REMARK    6  A    between atoms: C_17  and  N_18
REMARK    7  A    between atoms: C_19  and  C_21
REMARK    8  A    between atoms: C_21  and  O_22
REMARK    9  A    between atoms: O_22  and  C_23
REMARK                            x       y       z     vdW  Elec       q    Type
REMARK                         _______ _______ _______ _____ _____    ______ ____
ROOT
ATOM     10  C   UNL     1      -8.277  -8.754   9.530  0.00  0.00    +0.039 C 
ATOM     11  C   UNL     1      -8.862  -9.113   9.986  0.00  0.00    +0.003 C 
ATOM     12  C   UNL     1      -8.665  -9.466  10.706  0.00  0.00    +0.000 C 
ATOM     13  C   UNL     1      -7.883  -9.459  10.968  0.00  0.00    +0.002 C 
ATOM     14  C   UNL     1      -8.470  -9.819  11.425  0.00  0.00    +0.000 C 
ATOM     15  C   UNL     1      -7.687  -9.812  11.688  0.00  0.00    +0.002 C 
ATOM     16  C   UNL     1      -6.905  -9.805  11.951  0.00  0.00    +0.022 C 
ATOM     17  C   UNL     1      -6.320  -9.446  11.495  0.00  0.00    +0.095 C 
ATOM     29  C   UNL     1      -6.516  -9.093  10.776  0.00  0.00    +0.022 C 
ATOM     30  C   UNL     1      -5.930  -8.733  10.319  0.00  0.00    +0.002 C 
ATOM     31  C   UNL     1      -7.299  -9.100  10.513  0.00  0.00    +0.032 C 
ATOM     32  C   UNL     1      -7.494  -8.747   9.793  0.00  0.00    +0.152 C 
ATOM     33  O   UNL     1      -6.909  -8.387   9.337  0.00  0.00    -0.223 OA
ENDROOT
BRANCH  17  18
ATOM     18  N   UNL     1      -5.538  -9.439  11.757  0.00  0.00    -0.204 NA
ATOM     19  C   UNL     1      -5.222 -10.105  12.129  0.00  0.00    +0.286 C 
ATOM     20  O   UNL     1      -5.687 -10.776  12.237  0.00  0.00    -0.269 OA
BRANCH  19  21
ATOM     21  C   UNL     1      -4.439 -10.098  12.392  0.00  0.00    +0.291 C 
BRANCH  21  22
ATOM     22  O   UNL     1      -4.184 -10.661  12.938  0.00  0.00    -0.466 OA
BRANCH  22  23
ATOM     23  C   UNL     1      -3.409 -10.638  13.219  0.00  0.00    +0.139 A 
ATOM     24  C   UNL     1      -3.266 -10.595  14.031  0.00  0.00    +0.037 A 
ATOM     25  C   UNL     1      -2.491 -10.572  14.313  0.00  0.00    +0.003 A 
ATOM     26  C   UNL     1      -1.859 -10.594  13.783  0.00  0.00    +0.000 A 
ATOM     27  C   UNL     1      -2.001 -10.637  12.972  0.00  0.00    +0.003 A 
ATOM     28  C   UNL     1      -2.776 -10.660  12.690  0.00  0.00    +0.037 A 
ENDBRANCH  22  23
ENDBRANCH  21  22
ENDBRANCH  19  21
ENDBRANCH  17  18
BRANCH  10   8
ATOM      8  C   UNL     1      -8.473  -8.401   8.811  0.00  0.00    +0.081 C 
ATOM      9  C   UNL     1      -8.053  -8.595   8.128  0.00  0.00    +0.010 C 
BRANCH   8   6
ATOM      5  N   UNL     1      -8.921  -7.047   8.719  0.00  0.00    -0.203 NA
ATOM      6  C   UNL     1      -9.089  -7.852   8.775  0.00  0.00    +0.241 C 
ATOM      7  O   UNL     1      -9.871  -8.110   8.795  0.00  0.00    -0.273 OA
BRANCH   5   4
ATOM      4  C   UNL     1      -9.537  -6.499   8.683  0.00  0.00    +0.147 C 
BRANCH   4   3
ATOM      3  C   UNL     1      -9.370  -5.698   8.577  0.00  0.00    +0.166 C 
BRANCH   3   2
ATOM      1  C   UNL     1     -10.117  -4.496   8.777  0.00  0.00    +0.174 C 
ATOM      2  O   UNL     1      -9.968  -5.180   8.341  0.00  0.00    -0.349 OA
ENDBRANCH   3   2
ENDBRANCH   4   3
ENDBRANCH   5   4
ENDBRANCH   8   6
ENDBRANCH  10   8
TORSDOF 9
ENDMDL
