MODEL 1
REMARK VINA RESULT:     -12.0      0.000      0.000
REMARK  Name = 
REMARK  2 active torsions:
REMARK  status: ('A' for Active; 'I' for Inactive)
REMARK    1  A    between atoms: C_7  and  C_9
REMARK    2  A    between atoms: C_14  and  C_16
REMARK                            x       y       z     vdW  Elec       q    Type
REMARK                         _______ _______ _______ _____ _____    ______ ____
ROOT
ATOM      1  C   UNL     1      -3.148  -2.736  25.153  0.00  0.00    +0.031 C 
ATOM      2  C   UNL     1      -3.519  -2.054  24.877  0.00  0.00    -0.020 A 
ATOM      3  C   UNL     1      -3.587  -1.394  25.366  0.00  0.00    +0.018 A 
ATOM      4  C   UNL     1      -3.959  -0.711  25.090  0.00  0.00    +0.118 A 
ATOM      5  C   UNL     1      -4.264  -0.689  24.324  0.00  0.00    +0.164 A 
ATOM      6  O   UNL     1      -4.599   0.054  24.204  0.00  0.00    -0.438 OA
ATOM      7  C   UNL     1      -4.502   0.492  24.895  0.00  0.00    +0.207 A 
ATOM      8  N   UNL     1      -4.106   0.019  25.442  0.00  0.00    -0.212 NA
ATOM     19  C   UNL     1      -4.197  -1.351  23.834  0.00  0.00    +0.039 A 
ATOM     20  C   UNL     1      -3.825  -2.032  24.111  0.00  0.00    -0.001 A 
ENDROOT
BRANCH   7   9
ATOM      9  C   UNL     1      -4.755   1.268  25.018  0.00  0.00    +0.098 C 
ATOM     10  C   UNL     1      -5.538   1.515  25.102  0.00  0.00    +0.032 C 
ATOM     11  C   UNL     1      -5.538   2.332  25.214  0.00  0.00    +0.094 C 
ATOM     12  N   UNL     1      -4.754   2.591  25.200  0.00  0.00    -0.279 N 
ATOM     13  C   UNL     1      -4.271   1.933  25.079  0.00  0.00    +0.103 C 
ATOM     14  C   UNL     1      -4.499   3.369  25.291  0.00  0.00    +0.225 C 
ATOM     15  O   UNL     1      -5.049   3.973  25.409  0.00  0.00    -0.275 OA
BRANCH  14  16
ATOM     16  C   UNL     1      -3.693   3.546  25.265  0.00  0.00    +0.077 C 
ATOM     17  C   UNL     1      -3.010   3.700  24.829  0.00  0.00    +0.010 C 
ATOM     18  C   UNL     1      -2.982   3.696  25.654  0.00  0.00    +0.010 C 
ENDBRANCH  14  16
ENDBRANCH   7   9
TORSDOF 2
ENDMDL
MODEL 2
REMARK VINA RESULT:     -11.0      1.560      4.381
REMARK  Name = 
REMARK  2 active torsions:
REMARK  status: ('A' for Active; 'I' for Inactive)
REMARK    1  A    between atoms: C_7  and  C_9
REMARK    2  A    between atoms: C_14  and  C_16
REMARK                            x       y       z     vdW  Elec       q    Type
REMARK                         _______ _______ _______ _____ _____    ______ ____
ROOT
ATOM      1  C   UNL     1      -5.759   3.051  25.546  0.00  0.00    +0.031 C 
ATOM      2  C   UNL     1      -5.234   2.532  25.178  0.00  0.00    -0.020 A 
ATOM      3  C   UNL     1      -5.228   1.735  25.386  0.00  0.00    +0.018 A 
ATOM      4  C   UNL     1      -4.704   1.215  25.018  0.00  0.00    +0.118 A 
ATOM      5  C   UNL     1      -4.184   1.495  24.441  0.00  0.00    +0.164 A 
ATOM      6  O   UNL     1      -3.733   0.858  24.174  0.00  0.00    -0.438 OA
ATOM      7  C   UNL     1      -3.973   0.185  24.586  0.00  0.00    +0.207 A 
ATOM      8  N   UNL     1      -4.572   0.407  25.107  0.00  0.00    -0.212 NA
ATOM     19  C   UNL     1      -4.190   2.293  24.232  0.00  0.00    +0.039 A 
ATOM     20  C   UNL     1      -4.715   2.812  24.601  0.00  0.00    -0.001 A 
ENDROOT
BRANCH   7   9
ATOM      9  C   UNL     1      -3.666  -0.575  24.494  0.00  0.00    +0.098 C 
ATOM     10  C   UNL     1      -4.091  -1.245  24.267  0.00  0.00    +0.032 C 
ATOM     11  C   UNL     1      -3.569  -1.883  24.244  0.00  0.00    +0.094 C 
ATOM     12  N   UNL     1      -2.821  -1.608  24.458  0.00  0.00    -0.279 N 
ATOM     13  C   UNL     1      -2.882  -0.800  24.612  0.00  0.00    +0.103 C 
ATOM     14  C   UNL     1      -2.134  -2.061  24.509  0.00  0.00    +0.225 C 
ATOM     15  O   UNL     1      -2.158  -2.868  24.338  0.00  0.00    -0.275 OA
BRANCH  14  16
ATOM     16  C   UNL     1      -1.422  -1.708  24.731  0.00  0.00    +0.077 C 
ATOM     17  C   UNL     1      -0.890  -1.483  25.320  0.00  0.00    +0.010 C 
ATOM     18  C   UNL     1      -0.722  -1.322  24.527  0.00  0.00    +0.010 C 
ENDBRANCH  14  16
ENDBRANCH   7   9
TORSDOF 2
ENDMDL
MODEL 3
REMARK VINA RESULT:     -10.7      2.178      2.738
REMARK  Name = 
REMARK  2 active torsions:
REMARK  status: ('A' for Active; 'I' for Inactive)
REMARK    1  A    between atoms: C_7  and  C_9
REMARK    2  A    between atoms: C_14  and  C_16
REMARK                            x       y       z     vdW  Elec       q    Type
REMARK                         _______ _______ _______ _____ _____    ______ ____
ROOT
ATOM      1  C   UNL     1      -4.336  -1.923  23.912  0.00  0.00    +0.031 C 
ATOM      2  C   UNL     1      -3.818  -1.476  24.372  0.00  0.00    -0.020 A 
ATOM      3  C   UNL     1      -3.469  -0.798  24.059  0.00  0.00    +0.018 A 
ATOM      4  C   UNL     1      -2.951  -0.350  24.519  0.00  0.00    +0.118 A 
ATOM      5  C   UNL     1      -2.781  -0.582  25.292  0.00  0.00    +0.164 A 
ATOM      6  O   UNL     1      -2.253  -0.036  25.612  0.00  0.00    -0.438 OA
ATOM      7  C   UNL     1      -2.095   0.534  25.037  0.00  0.00    +0.207 A 
ATOM      8  N   UNL     1      -2.527   0.339  24.361  0.00  0.00    -0.212 NA
ATOM     19  C   UNL     1      -3.130  -1.261  25.606  0.00  0.00    +0.039 A 
ATOM     20  C   UNL     1      -3.648  -1.708  25.145  0.00  0.00    -0.001 A 
ENDROOT
BRANCH   7   9
ATOM      9  C   UNL     1      -1.595   1.184  25.122  0.00  0.00    +0.098 C 
ATOM     10  C   UNL     1      -0.770   1.168  25.099  0.00  0.00    +0.032 C 
ATOM     11  C   UNL     1      -0.496   1.938  25.207  0.00  0.00    +0.094 C 
ATOM     12  N   UNL     1      -1.151   2.431  25.297  0.00  0.00    -0.279 N 
ATOM     13  C   UNL     1      -1.830   1.965  25.244  0.00  0.00    +0.103 C 
ATOM     14  C   UNL     1      -1.132   3.247  25.418  0.00  0.00    +0.225 C 
ATOM     15  O   UNL     1      -0.408   3.641  25.460  0.00  0.00    -0.275 OA
BRANCH  14  16
ATOM     16  C   UNL     1      -1.836   3.670  25.499  0.00  0.00    +0.077 C 
ATOM     17  C   UNL     1      -2.435   3.974  25.976  0.00  0.00    +0.010 C 
ATOM     18  C   UNL     1      -2.455   4.096  25.160  0.00  0.00    +0.010 C 
ENDBRANCH  14  16
ENDBRANCH   7   9
TORSDOF 2
ENDMDL
