MODEL 1
REMARK VINA RESULT:     -12.0      0.000      0.000
REMARK  Name = 
REMARK  6 active torsions:
REMARK  status: ('A' for Active; 'I' for Inactive)
REMARK    1  A    between atoms: C_2  and  C_5
REMARK    2  A    between atoms: C_9  and  N_10
REMARK    3  A    between atoms: C_11  and  O_13
REMARK    4  A    between atoms: O_13  and  C_14
REMARK    5  A    between atoms: C_18  and  N_22
REMARK    6  A    between atoms: N_25  and  C_26
REMARK                            x       y       z     vdW  Elec       q    Type
REMARK                         _______ _______ _______ _____ _____    ______ ____
ROOT
ATOM     14  C   UNL     1       0.010   1.447  24.547  0.00  0.00    +0.229 C 
ATOM     15  C   UNL     1       0.099   1.205  23.763  0.00  0.00    +0.188 C 
ATOM     16  O   UNL     1      -0.184   0.432  23.702  0.00  0.00    -0.348 OA
ATOM     17  C   UNL     1      -0.448   0.197  24.447  0.00  0.00    +0.168 C 
ATOM     18  C   UNL     1      -0.787  -0.424  24.870  0.00  0.00    +0.156 C 
ATOM     19  C   UNL     1      -0.876  -0.182  25.653  0.00  0.00    +0.166 C 
ATOM     20  O   UNL     1      -0.593   0.590  25.714  0.00  0.00    -0.348 OA
ATOM     21  C   UNL     1      -0.329   0.825  24.969  0.00  0.00    +0.186 C 
ENDROOT
BRANCH  18  22
ATOM     22  N   UNL     1      -0.998  -1.161  24.563  0.00  0.00    -0.184 NA
ATOM     23  C   UNL     1      -1.790  -1.395  24.559  0.00  0.00    +0.339 C 
ATOM     24  O   UNL     1      -2.369  -0.892  24.863  0.00  0.00    -0.249 OA
ATOM     25  N   UNL     1      -2.001  -2.130  24.253  0.00  0.00    -0.189 NA
BRANCH  25  26
ATOM     26  C   UNL     1      -2.793  -2.364  24.249  0.00  0.00    +0.097 C 
ATOM     27  C   UNL     1      -3.339  -1.964  23.778  0.00  0.00    +0.022 C 
ATOM     28  C   UNL     1      -4.129  -2.198  23.774  0.00  0.00    +0.002 C 
ATOM     29  C   UNL     1      -4.375  -2.832  24.242  0.00  0.00    +0.000 C 
ATOM     30  C   UNL     1      -3.828  -3.232  24.714  0.00  0.00    +0.002 C 
ATOM     31  C   UNL     1      -3.037  -2.997  24.717  0.00  0.00    +0.022 C 
ENDBRANCH  25  26
ENDBRANCH  18  22
BRANCH  14  13
ATOM     13  O   UNL     1       0.221   2.183  24.854  0.00  0.00    -0.432 OA
BRANCH  13  11
ATOM     10  N   UNL     1      -0.538   3.234  25.454  0.00  0.00    -0.142 NA
ATOM     11  C   UNL     1      -0.294   2.824  24.782  0.00  0.00    +0.425 C 
ATOM     12  O   UNL     1      -0.565   3.054  24.037  0.00  0.00    -0.224 OA
BRANCH  10   9
ATOM      5  C   UNL     1      -2.357   4.439  25.539  0.00  0.00    +0.073 A 
ATOM      6  C   UNL     1      -2.082   5.157  25.240  0.00  0.00    +0.004 A 
ATOM      7  C   UNL     1      -1.293   5.234  25.013  0.00  0.00    +0.001 A 
ATOM      8  C   UNL     1      -0.778   4.593  25.084  0.00  0.00    +0.017 A 
ATOM      9  C   UNL     1      -1.053   3.875  25.383  0.00  0.00    +0.077 A 
ATOM     32  C   UNL     1      -1.842   3.798  25.610  0.00  0.00    +0.021 A 
BRANCH   5   2
ATOM      1  F   UNL     1      -3.935   4.284  25.994  0.00  0.00    -0.166 F 
ATOM      2  C   UNL     1      -3.145   4.361  25.766  0.00  0.00    +0.419 C 
ATOM      3  F   UNL     1      -3.353   4.188  24.988  0.00  0.00    -0.166 F 
ATOM      4  F   UNL     1      -2.939   4.535  26.546  0.00  0.00    -0.166 F 
ENDBRANCH   5   2
ENDBRANCH  10   9
ENDBRANCH  13  11
ENDBRANCH  14  13
TORSDOF 6
ENDMDL
MODEL 2
REMARK VINA RESULT:     -11.1      2.897      6.471
REMARK  Name = 
REMARK  6 active torsions:
REMARK  status: ('A' for Active; 'I' for Inactive)
REMARK    1  A    between atoms: C_2  and  C_5
REMARK    2  A    between atoms: C_9  and  N_10
REMARK    3  A    between atoms: C_11  and  O_13
REMARK    4  A    between atoms: O_13  and  C_14
REMARK    5  A    between atoms: C_18  and  N_22
REMARK    6  A    between atoms: N_25  and  C_26
REMARK                            x       y       z     vdW  Elec       q    Type
REMARK                         _______ _______ _______ _____ _____    ______ ____
ROOT
ATOM     14  C   UNL     1      -4.647   0.801  24.675  0.00  0.00    +0.229 C 
ATOM     15  C   UNL     1      -4.759   0.982  25.472  0.00  0.00    +0.188 C 
ATOM     16  O   UNL     1      -4.476   1.746  25.601  0.00  0.00    -0.348 OA
ATOM     17  C   UNL     1      -4.189   2.036  24.885  0.00  0.00    +0.168 C 
ATOM     18  C   UNL     1      -3.836   2.687  24.522  0.00  0.00    +0.156 C 
ATOM     19  C   UNL     1      -3.724   2.506  23.725  0.00  0.00    +0.166 C 
ATOM     20  O   UNL     1      -4.007   1.743  23.596  0.00  0.00    -0.348 OA
ATOM     21  C   UNL     1      -4.294   1.452  24.313  0.00  0.00    +0.186 C 
ENDROOT
BRANCH  18  22
ATOM     22  N   UNL     1      -3.631   3.397  24.891  0.00  0.00    -0.184 NA
ATOM     23  C   UNL     1      -2.869   3.701  24.806  0.00  0.00    +0.339 C 
ATOM     24  O   UNL     1      -2.312   3.297  24.352  0.00  0.00    -0.249 OA
ATOM     25  N   UNL     1      -2.664   4.410  25.175  0.00  0.00    -0.189 NA
BRANCH  25  26
ATOM     26  C   UNL     1      -1.902   4.714  25.091  0.00  0.00    +0.097 C 
ATOM     27  C   UNL     1      -1.794   5.486  24.822  0.00  0.00    +0.022 C 
ATOM     28  C   UNL     1      -1.033   5.791  24.737  0.00  0.00    +0.002 C 
ATOM     29  C   UNL     1      -0.378   5.323  24.921  0.00  0.00    +0.000 C 
ATOM     30  C   UNL     1      -0.486   4.550  25.191  0.00  0.00    +0.002 C 
ATOM     31  C   UNL     1      -1.248   4.246  25.275  0.00  0.00    +0.022 C 
ENDBRANCH  25  26
ENDBRANCH  18  22
BRANCH  14  13
ATOM     13  O   UNL     1      -4.852   0.092  24.306  0.00  0.00    -0.432 OA
BRANCH  13  11
ATOM     10  N   UNL     1      -4.089  -1.053  23.918  0.00  0.00    -0.142 NA
ATOM     11  C   UNL     1      -4.458  -0.606  24.504  0.00  0.00    +0.425 C 
ATOM     12  O   UNL     1      -4.435  -0.856  25.291  0.00  0.00    -0.224 OA
BRANCH  10   9
ATOM      5  C   UNL     1      -2.492  -2.437  24.466  0.00  0.00    +0.073 A 
ATOM      6  C   UNL     1      -2.910  -3.146  24.513  0.00  0.00    +0.004 A 
ATOM      7  C   UNL     1      -3.721  -3.158  24.362  0.00  0.00    +0.001 A 
ATOM      8  C   UNL     1      -4.114  -2.460  24.164  0.00  0.00    +0.017 A 
ATOM      9  C   UNL     1      -3.696  -1.751  24.116  0.00  0.00    +0.077 A 
ATOM     32  C   UNL     1      -2.886  -1.739  24.268  0.00  0.00    +0.021 A 
BRANCH   5   2
ATOM      1  F   UNL     1      -0.871  -2.413  24.769  0.00  0.00    -0.166 F 
ATOM      2  C   UNL     1      -1.682  -2.425  24.617  0.00  0.00    +0.419 C 
ATOM      3  F   UNL     1      -1.832  -2.258  25.411  0.00  0.00    -0.166 F 
ATOM      4  F   UNL     1      -1.530  -2.592  23.824  0.00  0.00    -0.166 F 
ENDBRANCH   5   2
ENDBRANCH  10   9
ENDBRANCH  13  11
ENDBRANCH  14  13
TORSDOF 6
ENDMDL
MODEL 3
REMARK VINA RESULT:     -11.1      2.000      5.715
REMARK  Name = 
REMARK  6 active torsions:
REMARK  status: ('A' for Active; 'I' for Inactive)
REMARK    1  A    between atoms: C_2  and  C_5
REMARK    2  A    between atoms: C_9  and  N_10
REMARK    3  A    between atoms: C_11  and  O_13
REMARK    4  A    between atoms: O_13  and  C_14
REMARK    5  A    between atoms: C_18  and  N_22
REMARK    6  A    between atoms: N_25  and  C_26
REMARK                            x       y       z     vdW  Elec       q    Type
REMARK                         _______ _______ _______ _____ _____    ______ ____
ROOT
ATOM     14  C   UNL     1      -0.353  -0.445  24.587  0.00  0.00    +0.229 C 
ATOM     15  C   UNL     1      -0.103  -0.243  23.827  0.00  0.00    +0.188 C 
ATOM     16  O   UNL     1      -0.011   0.576  23.799  0.00  0.00    -0.348 OA
ATOM     17  C   UNL     1      -0.204   0.880  24.540  0.00  0.00    +0.168 C 
ATOM     18  C   UNL     1      -0.267   1.574  24.981  0.00  0.00    +0.156 C 
ATOM     19  C   UNL     1      -0.517   1.373  25.741  0.00  0.00    +0.166 C 
ATOM     20  O   UNL     1      -0.609   0.554  25.769  0.00  0.00    -0.348 OA
ATOM     21  C   UNL     1      -0.416   0.249  25.027  0.00  0.00    +0.186 C 
ENDROOT
BRANCH  18  22
ATOM     22  N   UNL     1      -0.108   2.337  24.710  0.00  0.00    -0.184 NA
ATOM     23  C   UNL     1      -0.615   2.959  24.903  0.00  0.00    +0.339 C 
ATOM     24  O   UNL     1      -1.282   2.817  25.367  0.00  0.00    -0.249 OA
ATOM     25  N   UNL     1      -0.456   3.721  24.632  0.00  0.00    -0.189 NA
BRANCH  25  26
ATOM     26  C   UNL     1      -0.964   4.342  24.825  0.00  0.00    +0.097 C 
ATOM     27  C   UNL     1      -1.750   4.188  25.017  0.00  0.00    +0.022 C 
ATOM     28  C   UNL     1      -2.257   4.809  25.209  0.00  0.00    +0.002 C 
ATOM     29  C   UNL     1      -1.978   5.586  25.210  0.00  0.00    +0.000 C 
ATOM     30  C   UNL     1      -1.190   5.740  25.018  0.00  0.00    +0.002 C 
ATOM     31  C   UNL     1      -0.683   5.118  24.825  0.00  0.00    +0.022 C 
ENDBRANCH  25  26
ENDBRANCH  18  22
BRANCH  14  13
ATOM     13  O   UNL     1      -0.513  -1.208  24.858  0.00  0.00    -0.432 OA
BRANCH  13  11
ATOM     10  N   UNL     1      -1.840  -1.683  25.090  0.00  0.00    -0.142 NA
ATOM     11  C   UNL     1      -1.185  -1.608  24.596  0.00  0.00    +0.425 C 
ATOM     12  O   UNL     1      -1.201  -1.932  23.837  0.00  0.00    -0.224 OA
BRANCH  10   9
ATOM      5  C   UNL     1      -3.837  -2.057  24.292  0.00  0.00    +0.073 A 
ATOM      6  C   UNL     1      -3.857  -2.882  24.303  0.00  0.00    +0.004 A 
ATOM      7  C   UNL     1      -3.204  -3.307  24.576  0.00  0.00    +0.001 A 
ATOM      8  C   UNL     1      -2.533  -2.907  24.838  0.00  0.00    +0.017 A 
ATOM      9  C   UNL     1      -2.513  -2.082  24.828  0.00  0.00    +0.077 A 
ATOM     32  C   UNL     1      -3.165  -1.658  24.555  0.00  0.00    +0.021 A 
BRANCH   5   2
ATOM      1  F   UNL     1      -5.142  -1.209  23.746  0.00  0.00    -0.166 F 
ATOM      2  C   UNL     1      -4.489  -1.633  24.019  0.00  0.00    +0.419 C 
ATOM      3  F   UNL     1      -4.398  -1.972  23.273  0.00  0.00    -0.166 F 
ATOM      4  F   UNL     1      -4.582  -1.293  24.765  0.00  0.00    -0.166 F 
ENDBRANCH   5   2
ENDBRANCH  10   9
ENDBRANCH  13  11
ENDBRANCH  14  13
TORSDOF 6
ENDMDL
MODEL 4
REMARK VINA RESULT:     -10.8      2.383      3.235
REMARK  Name = 
REMARK  6 active torsions:
REMARK  status: ('A' for Active; 'I' for Inactive)
REMARK    1  A    between atoms: C_2  and  C_5
REMARK    2  A    between atoms: C_9  and  N_10
REMARK    3  A    between atoms: C_11  and  O_13
REMARK    4  A    between atoms: O_13  and  C_14
REMARK    5  A    between atoms: C_18  and  N_22
REMARK    6  A    between atoms: N_25  and  C_26
REMARK                            x       y       z     vdW  Elec       q    Type
REMARK                         _______ _______ _______ _____ _____    ______ ____
ROOT
ATOM     14  C   UNL     1      -4.504   2.968  25.110  0.00  0.00    +0.229 C 
ATOM     15  C   UNL     1      -4.909   2.720  25.784  0.00  0.00    +0.188 C 
ATOM     16  O   UNL     1      -5.042   1.908  25.717  0.00  0.00    -0.348 OA
ATOM     17  C   UNL     1      -4.719   1.655  25.002  0.00  0.00    +0.168 C 
ATOM     18  C   UNL     1      -4.601   0.998  24.518  0.00  0.00    +0.156 C 
ATOM     19  C   UNL     1      -4.196   1.246  23.844  0.00  0.00    +0.166 C 
ATOM     20  O   UNL     1      -4.063   2.057  23.911  0.00  0.00    -0.348 OA
ATOM     21  C   UNL     1      -4.387   2.310  24.627  0.00  0.00    +0.186 C 
ENDROOT
BRANCH  18  22
ATOM     22  N   UNL     1      -4.846   0.226  24.680  0.00  0.00    -0.184 NA
ATOM     23  C   UNL     1      -4.319  -0.402  24.588  0.00  0.00    +0.339 C 
ATOM     24  O   UNL     1      -3.548  -0.259  24.334  0.00  0.00    -0.249 OA
ATOM     25  N   UNL     1      -4.563  -1.173  24.750  0.00  0.00    -0.189 NA
BRANCH  25  26
ATOM     26  C   UNL     1      -4.037  -1.801  24.659  0.00  0.00    +0.097 C 
ATOM     27  C   UNL     1      -3.467  -1.950  25.236  0.00  0.00    +0.022 C 
ATOM     28  C   UNL     1      -2.941  -2.577  25.144  0.00  0.00    +0.002 C 
ATOM     29  C   UNL     1      -2.983  -3.058  24.474  0.00  0.00    +0.000 C 
ATOM     30  C   UNL     1      -3.554  -2.909  23.896  0.00  0.00    +0.002 C 
ATOM     31  C   UNL     1      -4.080  -2.281  23.989  0.00  0.00    +0.022 C 
ENDBRANCH  25  26
ENDBRANCH  18  22
BRANCH  14  13
ATOM     13  O   UNL     1      -4.259   3.739  24.947  0.00  0.00    -0.432 OA
BRANCH  13  11
ATOM     10  N   UNL     1      -2.937   4.126  24.571  0.00  0.00    -0.142 NA
ATOM     11  C   UNL     1      -3.499   3.984  25.156  0.00  0.00    +0.425 C 
ATOM     12  O   UNL     1      -3.303   4.085  25.951  0.00  0.00    -0.224 OA
BRANCH  10   9
ATOM      5  C   UNL     1      -0.809   4.062  25.056  0.00  0.00    +0.073 A 
ATOM      6  C   UNL     1      -0.657   4.861  25.196  0.00  0.00    +0.004 A 
ATOM      7  C   UNL     1      -1.265   5.415  25.128  0.00  0.00    +0.001 A 
ATOM      8  C   UNL     1      -2.025   5.169  24.919  0.00  0.00    +0.017 A 
ATOM      9  C   UNL     1      -2.177   4.371  24.779  0.00  0.00    +0.077 A 
ATOM     32  C   UNL     1      -1.569   3.818  24.847  0.00  0.00    +0.021 A 
BRANCH   5   2
ATOM      1  F   UNL     1       0.406   2.955  25.193  0.00  0.00    -0.166 F 
ATOM      2  C   UNL     1      -0.202   3.509  25.124  0.00  0.00    +0.419 C 
ATOM      3  F   UNL     1      -0.099   3.520  24.306  0.00  0.00    -0.166 F 
ATOM      4  F   UNL     1      -0.304   3.497  25.943  0.00  0.00    -0.166 F 
ENDBRANCH   5   2
ENDBRANCH  10   9
ENDBRANCH  13  11
ENDBRANCH  14  13
TORSDOF 6
ENDMDL
MODEL 5
REMARK VINA RESULT:     -10.5      4.164      5.546
REMARK  Name = 
REMARK  6 active torsions:
REMARK  status: ('A' for Active; 'I' for Inactive)
REMARK    1  A    between atoms: C_2  and  C_5
REMARK    2  A    between atoms: C_9  and  N_10
REMARK    3  A    between atoms: C_11  and  O_13
REMARK    4  A    between atoms: O_13  and  C_14
REMARK    5  A    between atoms: C_18  and  N_22
REMARK    6  A    between atoms: N_25  and  C_26
REMARK                            x       y       z     vdW  Elec       q    Type
REMARK                         _______ _______ _______ _____ _____    ______ ____
ROOT
ATOM     14  C   UNL     1       0.673   0.744  23.558  0.00  0.00    +0.229 C 
ATOM     15  C   UNL     1       0.767   1.501  23.872  0.00  0.00    +0.188 C 
ATOM     16  O   UNL     1       0.102   1.671  24.329  0.00  0.00    -0.348 OA
ATOM     17  C   UNL     1      -0.403   1.020  24.297  0.00  0.00    +0.168 C 
ATOM     18  C   UNL     1      -1.127   0.722  24.559  0.00  0.00    +0.156 C 
ATOM     19  C   UNL     1      -1.220  -0.035  24.245  0.00  0.00    +0.166 C 
ATOM     20  O   UNL     1      -0.555  -0.205  23.788  0.00  0.00    -0.348 OA
ATOM     21  C   UNL     1      -0.050   0.447  23.820  0.00  0.00    +0.186 C 
ENDROOT
BRANCH  18  22
ATOM     22  N   UNL     1      -1.662   1.113  25.050  0.00  0.00    -0.184 NA
ATOM     23  C   UNL     1      -2.442   1.223  24.804  0.00  0.00    +0.339 C 
ATOM     24  O   UNL     1      -2.687   0.943  24.068  0.00  0.00    -0.249 OA
ATOM     25  N   UNL     1      -2.978   1.614  25.295  0.00  0.00    -0.189 NA
BRANCH  25  26
ATOM     26  C   UNL     1      -3.758   1.725  25.049  0.00  0.00    +0.097 C 
ATOM     27  C   UNL     1      -3.977   2.424  24.672  0.00  0.00    +0.022 C 
ATOM     28  C   UNL     1      -4.756   2.535  24.427  0.00  0.00    +0.002 C 
ATOM     29  C   UNL     1      -5.318   1.945  24.559  0.00  0.00    +0.000 C 
ATOM     30  C   UNL     1      -5.099   1.244  24.936  0.00  0.00    +0.002 C 
ATOM     31  C   UNL     1      -4.319   1.134  25.181  0.00  0.00    +0.022 C 
ENDBRANCH  25  26
ENDBRANCH  18  22
BRANCH  14  13
ATOM     13  O   UNL     1       1.209   0.353  23.067  0.00  0.00    -0.432 OA
BRANCH  13  11
ATOM     10  N   UNL     1       2.568  -0.038  22.863  0.00  0.00    -0.142 NA
ATOM     11  C   UNL     1       2.016   0.516  23.123  0.00  0.00    +0.425 C 
ATOM     12  O   UNL     1       2.269   1.236  23.439  0.00  0.00    -0.224 OA
BRANCH  10   9
ATOM      5  C   UNL     1       4.646  -0.107  23.530  0.00  0.00    +0.073 A 
ATOM      6  C   UNL     1       4.988   0.454  23.031  0.00  0.00    +0.004 A 
ATOM      7  C   UNL     1       4.524   0.851  22.476  0.00  0.00    +0.001 A 
ATOM      8  C   UNL     1       3.718   0.686  22.421  0.00  0.00    +0.017 A 
ATOM      9  C   UNL     1       3.375   0.126  22.920  0.00  0.00    +0.077 A 
ATOM     32  C   UNL     1       3.839  -0.270  23.474  0.00  0.00    +0.021 A 
BRANCH   5   2
ATOM      1  F   UNL     1       5.574  -0.900  24.640  0.00  0.00    -0.166 F 
ATOM      2  C   UNL     1       5.110  -0.503  24.085  0.00  0.00    +0.419 C 
ATOM      3  F   UNL     1       4.862  -1.226  23.776  0.00  0.00    -0.166 F 
ATOM      4  F   UNL     1       5.358   0.220  24.395  0.00  0.00    -0.166 F 
ENDBRANCH   5   2
ENDBRANCH  10   9
ENDBRANCH  13  11
ENDBRANCH  14  13
TORSDOF 6
ENDMDL
MODEL 6
REMARK VINA RESULT:     -10.3      2.788      4.600
REMARK  Name = 
REMARK  6 active torsions:
REMARK  status: ('A' for Active; 'I' for Inactive)
REMARK    1  A    between atoms: C_2  and  C_5
REMARK    2  A    between atoms: C_9  and  N_10
REMARK    3  A    between atoms: C_11  and  O_13
REMARK    4  A    between atoms: O_13  and  C_14
REMARK    5  A    between atoms: C_18  and  N_22
REMARK    6  A    between atoms: N_25  and  C_26
REMARK                            x       y       z     vdW  Elec       q    Type
REMARK                         _______ _______ _______ _____ _____    ______ ____
ROOT
ATOM     14  C   UNL     1      -1.242   0.613  24.679  0.00  0.00    +0.229 C 
ATOM     15  C   UNL     1      -1.315  -0.145  24.364  0.00  0.00    +0.188 C 
ATOM     16  O   UNL     1      -0.660  -0.286  23.883  0.00  0.00    -0.348 OA
ATOM     17  C   UNL     1      -0.181   0.385  23.902  0.00  0.00    +0.168 C 
ATOM     18  C   UNL     1       0.520   0.714  23.617  0.00  0.00    +0.156 C 
ATOM     19  C   UNL     1       0.594   1.472  23.932  0.00  0.00    +0.166 C 
ATOM     20  O   UNL     1      -0.062   1.613  24.412  0.00  0.00    -0.348 OA
ATOM     21  C   UNL     1      -0.541   0.941  24.393  0.00  0.00    +0.186 C 
ENDROOT
BRANCH  18  22
ATOM     22  N   UNL     1       1.054   0.347  23.105  0.00  0.00    -0.184 NA
ATOM     23  C   UNL     1       1.865   0.460  23.205  0.00  0.00    +0.339 C 
ATOM     24  O   UNL     1       2.142   0.940  23.816  0.00  0.00    -0.249 OA
ATOM     25  N   UNL     1       2.399   0.094  22.695  0.00  0.00    -0.189 NA
BRANCH  25  26
ATOM     26  C   UNL     1       3.210   0.207  22.795  0.00  0.00    +0.097 C 
ATOM     27  C   UNL     1       3.572   0.886  22.497  0.00  0.00    +0.022 C 
ATOM     28  C   UNL     1       4.382   0.999  22.597  0.00  0.00    +0.002 C 
ATOM     29  C   UNL     1       4.833   0.433  22.995  0.00  0.00    +0.000 C 
ATOM     30  C   UNL     1       4.471  -0.247  23.292  0.00  0.00    +0.002 C 
ATOM     31  C   UNL     1       3.660  -0.359  23.192  0.00  0.00    +0.022 C 
ENDBRANCH  25  26
ENDBRANCH  18  22
BRANCH  14  13
ATOM     13  O   UNL     1      -1.776   0.980  25.190  0.00  0.00    -0.432 OA
BRANCH  13  11
ATOM     10  N   UNL     1      -2.846   1.927  25.166  0.00  0.00    -0.142 NA
ATOM     11  C   UNL     1      -2.518   1.214  24.914  0.00  0.00    +0.425 C 
ATOM     12  O   UNL     1      -2.931   0.733  24.385  0.00  0.00    -0.224 OA
BRANCH  10   9
ATOM      5  C   UNL     1      -5.009   2.189  25.033  0.00  0.00    +0.073 A 
ATOM      6  C   UNL     1      -5.071   2.628  24.337  0.00  0.00    +0.004 A 
ATOM      7  C   UNL     1      -4.390   2.834  23.918  0.00  0.00    +0.001 A 
ATOM      8  C   UNL     1      -3.649   2.599  24.194  0.00  0.00    +0.017 A 
ATOM      9  C   UNL     1      -3.588   2.160  24.890  0.00  0.00    +0.077 A 
ATOM     32  C   UNL     1      -4.268   1.955  25.309  0.00  0.00    +0.021 A 
BRANCH   5   2
ATOM      1  F   UNL     1      -6.370   1.778  25.871  0.00  0.00    -0.166 F 
ATOM      2  C   UNL     1      -5.689   1.984  25.452  0.00  0.00    +0.419 C 
ATOM      3  F   UNL     1      -5.877   1.426  24.875  0.00  0.00    -0.166 F 
ATOM      4  F   UNL     1      -5.502   2.542  26.030  0.00  0.00    -0.166 F 
ENDBRANCH   5   2
ENDBRANCH  10   9
ENDBRANCH  13  11
ENDBRANCH  14  13
TORSDOF 6
ENDMDL
MODEL 7
REMARK VINA RESULT:     -10.3      3.506      5.939
REMARK  Name = 
REMARK  6 active torsions:
REMARK  status: ('A' for Active; 'I' for Inactive)
REMARK    1  A    between atoms: C_2  and  C_5
REMARK    2  A    between atoms: C_9  and  N_10
REMARK    3  A    between atoms: C_11  and  O_13
REMARK    4  A    between atoms: O_13  and  C_14
REMARK    5  A    between atoms: C_18  and  N_22
REMARK    6  A    between atoms: N_25  and  C_26
REMARK                            x       y       z     vdW  Elec       q    Type
REMARK                         _______ _______ _______ _____ _____    ______ ____
ROOT
ATOM     14  C   UNL     1      -0.339   0.171  23.853  0.00  0.00    +0.229 C 
ATOM     15  C   UNL     1      -0.219  -0.579  23.532  0.00  0.00    +0.188 C 
ATOM     16  O   UNL     1       0.526  -0.589  23.179  0.00  0.00    -0.348 OA
ATOM     17  C   UNL     1       0.867   0.155  23.281  0.00  0.00    +0.168 C 
ATOM     18  C   UNL     1       1.537   0.610  23.126  0.00  0.00    +0.156 C 
ATOM     19  C   UNL     1       1.417   1.360  23.446  0.00  0.00    +0.166 C 
ATOM     20  O   UNL     1       0.672   1.369  23.800  0.00  0.00    -0.348 OA
ATOM     21  C   UNL     1       0.332   0.625  23.698  0.00  0.00    +0.186 C 
ENDROOT
BRANCH  18  22
ATOM     22  N   UNL     1       2.210   0.358  22.720  0.00  0.00    -0.184 NA
ATOM     23  C   UNL     1       2.940   0.333  23.105  0.00  0.00    +0.339 C 
ATOM     24  O   UNL     1       2.996   0.561  23.896  0.00  0.00    -0.249 OA
ATOM     25  N   UNL     1       3.612   0.082  22.701  0.00  0.00    -0.189 NA
BRANCH  25  26
ATOM     26  C   UNL     1       4.341   0.057  23.086  0.00  0.00    +0.097 C 
ATOM     27  C   UNL     1       4.819   0.729  23.109  0.00  0.00    +0.022 C 
ATOM     28  C   UNL     1       5.547   0.705  23.494  0.00  0.00    +0.002 C 
ATOM     29  C   UNL     1       5.799   0.007  23.857  0.00  0.00    +0.000 C 
ATOM     30  C   UNL     1       5.322  -0.665  23.834  0.00  0.00    +0.002 C 
ATOM     31  C   UNL     1       4.593  -0.640  23.448  0.00  0.00    +0.022 C 
ENDBRANCH  25  26
ENDBRANCH  18  22
BRANCH  14  13
ATOM     13  O   UNL     1      -1.012   0.423  24.259  0.00  0.00    -0.432 OA
BRANCH  13  11
ATOM     10  N   UNL     1      -2.346  -0.062  24.419  0.00  0.00    -0.142 NA
ATOM     11  C   UNL     1      -1.539  -0.131  24.569  0.00  0.00    +0.425 C 
ATOM     12  O   UNL     1      -1.256  -0.754  25.031  0.00  0.00    -0.224 OA
BRANCH  10   9
ATOM      5  C   UNL     1      -3.788  -1.697  24.539  0.00  0.00    +0.073 A 
ATOM      6  C   UNL     1      -3.926  -1.724  25.352  0.00  0.00    +0.004 A 
ATOM      7  C   UNL     1      -3.537  -1.196  25.854  0.00  0.00    +0.001 A 
ATOM      8  C   UNL     1      -3.011  -0.643  25.543  0.00  0.00    +0.017 A 
ATOM      9  C   UNL     1      -2.873  -0.616  24.730  0.00  0.00    +0.077 A 
ATOM     32  C   UNL     1      -3.261  -1.143  24.229  0.00  0.00    +0.021 A 
BRANCH   5   2
ATOM      1  F   UNL     1      -4.565  -2.752  23.536  0.00  0.00    -0.166 F 
ATOM      2  C   UNL     1      -4.176  -2.224  24.038  0.00  0.00    +0.419 C 
ATOM      3  F   UNL     1      -3.608  -2.798  24.201  0.00  0.00    -0.166 F 
ATOM      4  F   UNL     1      -4.746  -1.650  23.875  0.00  0.00    -0.166 F 
ENDBRANCH   5   2
ENDBRANCH  10   9
ENDBRANCH  13  11
ENDBRANCH  14  13
TORSDOF 6
ENDMDL
