MODEL 1
REMARK VINA RESULT:     -10.8      0.000      0.000
REMARK  Name = 
REMARK  7 active torsions:
REMARK  status: ('A' for Active; 'I' for Inactive)
REMARK    1  A    between atoms: C_3  and  N_18
REMARK    2  A    between atoms: C_6  and  C_7
REMARK    3  A    between atoms: C_7  and  N_8
REMARK    4  A    between atoms: N_8  and  S_9
REMARK    5  A    between atoms: S_9  and  C_12
REMARK    6  A    between atoms: N_18  and  C_19
REMARK    7  A    between atoms: C_19  and  C_20
REMARK                            x       y       z     vdW  Elec       q    Type
REMARK                         _______ _______ _______ _____ _____    ______ ____
ROOT
ATOM      1  O   UNL     1      -3.003   1.222  23.677  0.00  0.00    -0.219 OA
ATOM      2  C   UNL     1      -3.575   1.312  24.264  0.00  0.00    +0.199 C 
ATOM      3  C   UNL     1      -4.084   0.724  24.539  0.00  0.00    +0.135 C 
ATOM      4  C   UNL     1      -4.562   1.054  25.125  0.00  0.00    +0.162 C 
ATOM      5  O   UNL     1      -4.348   1.846  25.212  0.00  0.00    -0.350 OA
ATOM      6  C   UNL     1      -3.738   2.006  24.680  0.00  0.00    +0.166 C 
ENDROOT
BRANCH   6   7
ATOM      7  C   UNL     1      -3.358   2.731  24.581  0.00  0.00    +0.148 C 
BRANCH   7   8
ATOM      8  N   UNL     1      -3.111   3.160  25.241  0.00  0.00    -0.075 NA
BRANCH   8   9
ATOM      9  S   UNL     1      -2.519   3.730  25.165  0.00  0.00    +0.077 S 
ATOM     10  O   UNL     1      -2.067   3.337  25.733  0.00  0.00    -0.152 OA
ATOM     11  O   UNL     1      -2.971   4.123  24.597  0.00  0.00    -0.152 OA
BRANCH   9  12
ATOM     12  C   UNL     1      -1.928   4.299  25.088  0.00  0.00    +0.124 A 
ATOM     13  C   UNL     1      -1.151   4.070  24.927  0.00  0.00    +0.020 A 
ATOM     14  C   UNL     1      -0.560   4.639  24.851  0.00  0.00    +0.001 A 
ATOM     15  C   UNL     1      -0.743   5.439  24.935  0.00  0.00    +0.000 A 
ATOM     16  C   UNL     1      -1.519   5.669  25.096  0.00  0.00    +0.001 A 
ATOM     17  C   UNL     1      -2.111   5.099  25.173  0.00  0.00    +0.020 A 
ENDBRANCH   9  12
ENDBRANCH   8   9
ENDBRANCH   7   8
ENDBRANCH   6   7
BRANCH   3  18
ATOM     18  N   UNL     1      -4.111  -0.057  24.275  0.00  0.00    -0.209 NA
BRANCH  18  19
ATOM     19  C   UNL     1      -4.269  -0.668  24.807  0.00  0.00    +0.115 C 
BRANCH  19  20
ATOM     20  C   UNL     1      -4.052  -1.442  24.622  0.00  0.00    -0.005 A 
ATOM     21  C   UNL     1      -3.543  -1.859  25.121  0.00  0.00    -0.001 A 
ATOM     22  C   UNL     1      -3.327  -2.633  24.936  0.00  0.00    +0.029 A 
ATOM     23  C   UNL     1      -3.620  -2.991  24.253  0.00  0.00    +0.140 A 
ATOM     24  F   UNL     1      -3.403  -3.765  24.068  0.00  0.00    -0.204 F 
ATOM     25  C   UNL     1      -4.129  -2.575  23.754  0.00  0.00    +0.029 A 
ATOM     26  C   UNL     1      -4.345  -1.800  23.939  0.00  0.00    -0.001 A 
ENDBRANCH  19  20
ENDBRANCH  18  19
ENDBRANCH   3  18
TORSDOF 7
ENDMDL
MODEL 2
REMARK VINA RESULT:     -10.5      2.800      6.248
REMARK  Name = 
REMARK  7 active torsions:
REMARK  status: ('A' for Active; 'I' for Inactive)
REMARK    1  A    between atoms: C_3  and  N_18
REMARK    2  A    between atoms: C_6  and  C_7
REMARK    3  A    between atoms: C_7  and  N_8
REMARK    4  A    between atoms: N_8  and  S_9
REMARK    5  A    between atoms: S_9  and  C_12
REMARK    6  A    between atoms: N_18  and  C_19
REMARK    7  A    between atoms: C_19  and  C_20
REMARK                            x       y       z     vdW  Elec       q    Type
REMARK                         _______ _______ _______ _____ _____    ______ ____
ROOT
ATOM      1  O   UNL     1      -1.748   1.376  23.862  0.00  0.00    -0.219 OA
ATOM      2  C   UNL     1      -1.396   1.207  24.588  0.00  0.00    +0.199 C 
ATOM      3  C   UNL     1      -1.001   1.745  25.073  0.00  0.00    +0.135 C 
ATOM      4  C   UNL     1      -0.738   1.341  25.741  0.00  0.00    +0.162 C 
ATOM      5  O   UNL     1      -0.971   0.552  25.671  0.00  0.00    -0.350 OA
ATOM      6  C   UNL     1      -1.377   0.469  24.959  0.00  0.00    +0.166 C 
ENDROOT
BRANCH   6   7
ATOM      7  C   UNL     1      -1.707  -0.228  24.667  0.00  0.00    +0.148 C 
BRANCH   7   8
ATOM      8  N   UNL     1      -2.092  -0.748  25.179  0.00  0.00    -0.075 NA
BRANCH   8   9
ATOM      9  S   UNL     1      -2.623  -1.305  24.880  0.00  0.00    +0.077 S 
ATOM     10  O   UNL     1      -3.219  -0.993  25.358  0.00  0.00    -0.152 OA
ATOM     11  O   UNL     1      -2.026  -1.617  24.403  0.00  0.00    -0.152 OA
BRANCH   9  12
ATOM     12  C   UNL     1      -3.152  -1.861  24.582  0.00  0.00    +0.124 A 
ATOM     13  C   UNL     1      -3.055  -2.661  24.760  0.00  0.00    +0.020 A 
ATOM     14  C   UNL     1      -3.585  -3.218  24.461  0.00  0.00    +0.001 A 
ATOM     15  C   UNL     1      -4.213  -2.976  23.984  0.00  0.00    +0.000 A 
ATOM     16  C   UNL     1      -4.311  -2.176  23.805  0.00  0.00    +0.001 A 
ATOM     17  C   UNL     1      -3.780  -1.619  24.104  0.00  0.00    +0.020 A 
ENDBRANCH   9  12
ENDBRANCH   8   9
ENDBRANCH   7   8
ENDBRANCH   6   7
BRANCH   3  18
ATOM     18  N   UNL     1      -0.888   2.547  24.915  0.00  0.00    -0.209 NA
BRANCH  18  19
ATOM     19  C   UNL     1      -0.953   3.101  25.524  0.00  0.00    +0.115 C 
BRANCH  19  20
ATOM     20  C   UNL     1      -1.093   3.894  25.347  0.00  0.00    -0.005 A 
ATOM     21  C   UNL     1      -1.796   4.253  25.586  0.00  0.00    -0.001 A 
ATOM     22  C   UNL     1      -1.936   5.046  25.410  0.00  0.00    +0.029 A 
ATOM     23  C   UNL     1      -1.371   5.481  24.994  0.00  0.00    +0.140 A 
ATOM     24  F   UNL     1      -1.511   6.275  24.817  0.00  0.00    -0.204 F 
ATOM     25  C   UNL     1      -0.668   5.123  24.755  0.00  0.00    +0.029 A 
ATOM     26  C   UNL     1      -0.528   4.329  24.932  0.00  0.00    -0.001 A 
ENDBRANCH  19  20
ENDBRANCH  18  19
ENDBRANCH   3  18
TORSDOF 7
ENDMDL
MODEL 3
REMARK VINA RESULT:     -10.2      1.531      1.902
REMARK  Name = 
REMARK  7 active torsions:
REMARK  status: ('A' for Active; 'I' for Inactive)
REMARK    1  A    between atoms: C_3  and  N_18
REMARK    2  A    between atoms: C_6  and  C_7
REMARK    3  A    between atoms: C_7  and  N_8
REMARK    4  A    between atoms: N_8  and  S_9
REMARK    5  A    between atoms: S_9  and  C_12
REMARK    6  A    between atoms: N_18  and  C_19
REMARK    7  A    between atoms: C_19  and  C_20
REMARK                            x       y       z     vdW  Elec       q    Type
REMARK                         _______ _______ _______ _____ _____    ______ ____
ROOT
ATOM      1  O   UNL     1      -1.864   0.821  23.868  0.00  0.00    -0.219 OA
ATOM      2  C   UNL     1      -1.591   0.611  24.618  0.00  0.00    +0.199 C 
ATOM      3  C   UNL     1      -1.686  -0.124  24.980  0.00  0.00    +0.135 C 
ATOM      4  C   UNL     1      -1.330  -0.091  25.722  0.00  0.00    +0.162 C 
ATOM      5  O   UNL     1      -1.014   0.665  25.820  0.00  0.00    -0.350 OA
ATOM      6  C   UNL     1      -1.175   1.099  25.138  0.00  0.00    +0.166 C 
ENDROOT
BRANCH   6   7
ATOM      7  C   UNL     1      -0.959   1.882  24.999  0.00  0.00    +0.148 C 
BRANCH   7   8
ATOM      8  N   UNL     1      -0.980   2.431  25.615  0.00  0.00    -0.075 NA
BRANCH   8   9
ATOM      9  S   UNL     1      -1.076   3.234  25.449  0.00  0.00    +0.077 S 
ATOM     10  O   UNL     1      -0.406   3.214  24.966  0.00  0.00    -0.152 OA
ATOM     11  O   UNL     1      -1.745   3.253  25.932  0.00  0.00    -0.152 OA
BRANCH   9  12
ATOM     12  C   UNL     1      -1.172   4.036  25.284  0.00  0.00    +0.124 A 
ATOM     13  C   UNL     1      -1.875   4.418  25.486  0.00  0.00    +0.020 A 
ATOM     14  C   UNL     1      -1.971   5.220  25.321  0.00  0.00    +0.001 A 
ATOM     15  C   UNL     1      -1.365   5.641  24.953  0.00  0.00    +0.000 A 
ATOM     16  C   UNL     1      -0.661   5.260  24.751  0.00  0.00    +0.001 A 
ATOM     17  C   UNL     1      -0.565   4.457  24.917  0.00  0.00    +0.020 A 
ENDBRANCH   9  12
ENDBRANCH   8   9
ENDBRANCH   7   8
ENDBRANCH   6   7
BRANCH   3  18
ATOM     18  N   UNL     1      -2.071  -0.779  24.655  0.00  0.00    -0.209 NA
BRANCH  18  19
ATOM     19  C   UNL     1      -2.663  -1.163  25.082  0.00  0.00    +0.115 C 
BRANCH  19  20
ATOM     20  C   UNL     1      -3.177  -1.683  24.700  0.00  0.00    -0.005 A 
ATOM     21  C   UNL     1      -3.848  -1.394  24.317  0.00  0.00    -0.001 A 
ATOM     22  C   UNL     1      -4.361  -1.914  23.935  0.00  0.00    +0.029 A 
ATOM     23  C   UNL     1      -4.203  -2.723  23.935  0.00  0.00    +0.140 A 
ATOM     24  F   UNL     1      -4.717  -3.244  23.552  0.00  0.00    -0.204 F 
ATOM     25  C   UNL     1      -3.532  -3.013  24.317  0.00  0.00    +0.029 A 
ATOM     26  C   UNL     1      -3.019  -2.492  24.700  0.00  0.00    -0.001 A 
ENDBRANCH  19  20
ENDBRANCH  18  19
ENDBRANCH   3  18
TORSDOF 7
ENDMDL
MODEL 4
REMARK VINA RESULT:      -8.4      4.447      5.809
REMARK  Name = 
REMARK  7 active torsions:
REMARK  status: ('A' for Active; 'I' for Inactive)
REMARK    1  A    between atoms: C_3  and  N_18
REMARK    2  A    between atoms: C_6  and  C_7
REMARK    3  A    between atoms: C_7  and  N_8
REMARK    4  A    between atoms: N_8  and  S_9
REMARK    5  A    between atoms: S_9  and  C_12
REMARK    6  A    between atoms: N_18  and  C_19
REMARK    7  A    between atoms: C_19  and  C_20
REMARK                            x       y       z     vdW  Elec       q    Type
REMARK                         _______ _______ _______ _____ _____    ______ ____
ROOT
ATOM      1  O   UNL     1       0.443   1.760  24.165  0.00  0.00    -0.219 OA
ATOM      2  C   UNL     1       0.298   1.014  23.844  0.00  0.00    +0.199 C 
ATOM      3  C   UNL     1       0.856   0.522  23.489  0.00  0.00    +0.135 C 
ATOM      4  C   UNL     1       0.472  -0.166  23.247  0.00  0.00    +0.162 C 
ATOM      5  O   UNL     1      -0.324  -0.099  23.452  0.00  0.00    -0.350 OA
ATOM      6  C   UNL     1      -0.432   0.630  23.821  0.00  0.00    +0.166 C 
ENDROOT
BRANCH   6   7
ATOM      7  C   UNL     1      -1.144   0.924  24.115  0.00  0.00    +0.148 C 
BRANCH   7   8
ATOM      8  N   UNL     1      -1.848   0.520  23.970  0.00  0.00    -0.075 NA
BRANCH   8   9
ATOM      9  S   UNL     1      -2.566   0.835  24.228  0.00  0.00    +0.077 S 
ATOM     10  O   UNL     1      -2.740   1.071  23.456  0.00  0.00    -0.152 OA
ATOM     11  O   UNL     1      -2.392   0.599  25.000  0.00  0.00    -0.152 OA
BRANCH   9  12
ATOM     12  C   UNL     1      -3.283   1.150  24.486  0.00  0.00    +0.124 A 
ATOM     13  C   UNL     1      -3.899   0.647  24.709  0.00  0.00    +0.020 A 
ATOM     14  C   UNL     1      -4.616   0.962  24.967  0.00  0.00    +0.001 A 
ATOM     15  C   UNL     1      -4.719   1.780  25.003  0.00  0.00    +0.000 A 
ATOM     16  C   UNL     1      -4.104   2.283  24.781  0.00  0.00    +0.001 A 
ATOM     17  C   UNL     1      -3.386   1.968  24.522  0.00  0.00    +0.020 A 
ENDBRANCH   9  12
ENDBRANCH   8   9
ENDBRANCH   7   8
ENDBRANCH   6   7
BRANCH   3  18
ATOM     18  N   UNL     1       1.659   0.689  23.394  0.00  0.00    -0.209 NA
BRANCH  18  19
ATOM     19  C   UNL     1       2.120   0.225  22.891  0.00  0.00    +0.115 C 
BRANCH  19  20
ATOM     20  C   UNL     1       2.942   0.282  22.915  0.00  0.00    -0.005 A 
ATOM     21  C   UNL     1       3.318   0.962  22.637  0.00  0.00    -0.001 A 
ATOM     22  C   UNL     1       4.140   1.019  22.661  0.00  0.00    +0.029 A 
ATOM     23  C   UNL     1       4.588   0.395  22.964  0.00  0.00    +0.140 A 
ATOM     24  F   UNL     1       5.411   0.452  22.988  0.00  0.00    -0.204 F 
ATOM     25  C   UNL     1       4.213  -0.285  23.242  0.00  0.00    +0.029 A 
ATOM     26  C   UNL     1       3.390  -0.342  23.218  0.00  0.00    -0.001 A 
ENDBRANCH  19  20
ENDBRANCH  18  19
ENDBRANCH   3  18
TORSDOF 7
ENDMDL
