MODEL 1
REMARK VINA RESULT:     -13.1      0.000      0.000
REMARK  Name = 
REMARK  6 active torsions:
REMARK  status: ('A' for Active; 'I' for Inactive)
REMARK    1  A    between atoms: C_2  and  C_5
REMARK    2  A    between atoms: C_9  and  N_10
REMARK    3  A    between atoms: N_13  and  C_14
REMARK    4  A    between atoms: C_18  and  N_22
REMARK    5  A    between atoms: C_26  and  O_27
REMARK    6  A    between atoms: O_27  and  C_28
REMARK                            x       y       z     vdW  Elec       q    Type
REMARK                         _______ _______ _______ _____ _____    ______ ____
ROOT
ATOM     14  C   UNL     1      -0.867   0.553  24.793  0.00  0.00    +0.156 C 
ATOM     15  C   UNL     1      -0.958   0.651  25.607  0.00  0.00    +0.166 C 
ATOM     16  O   UNL     1      -1.240   1.414  25.741  0.00  0.00    -0.350 OA
ATOM     17  C   UNL     1      -1.323   1.788  25.011  0.00  0.00    +0.169 C 
ATOM     18  C   UNL     1      -1.549   2.490  24.642  0.00  0.00    +0.170 C 
ATOM     19  C   UNL     1      -1.458   2.392  23.828  0.00  0.00    +0.169 C 
ATOM     20  O   UNL     1      -1.176   1.629  23.694  0.00  0.00    -0.350 OA
ATOM     21  C   UNL     1      -1.093   1.255  24.425  0.00  0.00    +0.167 C 
ENDROOT
BRANCH  18  22
ATOM     22  N   UNL     1      -1.819   3.172  25.021  0.00  0.00    -0.180 N 
ATOM     23  N   UNL     1      -1.354   3.711  25.438  0.00  0.00    -0.040 NA
ATOM     24  N   UNL     1      -1.849   4.306  25.724  0.00  0.00    -0.020 NA
ATOM     25  N   UNL     1      -2.618   4.135  25.484  0.00  0.00    -0.071 NA
ATOM     26  C   UNL     1      -2.600   3.434  25.050  0.00  0.00    +0.343 A 
BRANCH  26  27
ATOM     27  O   UNL     1      -3.250   3.060  24.705  0.00  0.00    -0.421 OA
BRANCH  27  28
ATOM     28  C   UNL     1      -4.007   3.182  25.010  0.00  0.00    +0.149 A 
ATOM     29  C   UNL     1      -4.399   3.893  24.868  0.00  0.00    +0.038 A 
ATOM     30  C   UNL     1      -5.155   4.016  25.173  0.00  0.00    +0.003 A 
ATOM     31  C   UNL     1      -5.520   3.426  25.622  0.00  0.00    +0.000 A 
ATOM     32  C   UNL     1      -5.127   2.714  25.764  0.00  0.00    +0.003 A 
ATOM     33  C   UNL     1      -4.370   2.593  25.458  0.00  0.00    +0.038 A 
ENDBRANCH  27  28
ENDBRANCH  26  27
ENDBRANCH  18  22
BRANCH  14  13
ATOM     10  N   UNL     1      -1.823  -0.791  24.734  0.00  0.00    -0.161 NA
ATOM     11  C   UNL     1      -1.075  -0.801  24.384  0.00  0.00    +0.344 C 
ATOM     12  O   UNL     1      -0.806  -1.482  24.006  0.00  0.00    -0.249 OA
ATOM     13  N   UNL     1      -0.597  -0.129  24.414  0.00  0.00    -0.184 NA
BRANCH  10   9
ATOM      5  C   UNL     1      -3.524  -2.095  24.324  0.00  0.00    +0.073 A 
ATOM      6  C   UNL     1      -3.256  -2.807  24.644  0.00  0.00    +0.004 A 
ATOM      7  C   UNL     1      -2.510  -2.847  24.994  0.00  0.00    +0.001 A 
ATOM      8  C   UNL     1      -2.032  -2.175  25.024  0.00  0.00    +0.017 A 
ATOM      9  C   UNL     1      -2.300  -1.463  24.704  0.00  0.00    +0.075 A 
ATOM     34  C   UNL     1      -3.046  -1.424  24.354  0.00  0.00    +0.021 A 
BRANCH   5   2
ATOM      1  F   UNL     1      -5.016  -2.016  23.624  0.00  0.00    -0.166 F 
ATOM      2  C   UNL     1      -4.270  -2.056  23.974  0.00  0.00    +0.419 C 
ATOM      3  F   UNL     1      -4.446  -1.388  24.425  0.00  0.00    -0.166 F 
ATOM      4  F   UNL     1      -4.094  -2.724  23.523  0.00  0.00    -0.166 F 
ENDBRANCH   5   2
ENDBRANCH  10   9
ENDBRANCH  14  13
TORSDOF 6
ENDMDL
MODEL 2
REMARK VINA RESULT:     -13.0      1.517      4.830
REMARK  Name = 
REMARK  6 active torsions:
REMARK  status: ('A' for Active; 'I' for Inactive)
REMARK    1  A    between atoms: C_2  and  C_5
REMARK    2  A    between atoms: C_9  and  N_10
REMARK    3  A    between atoms: N_13  and  C_14
REMARK    4  A    between atoms: C_18  and  N_22
REMARK    5  A    between atoms: C_26  and  O_27
REMARK    6  A    between atoms: O_27  and  C_28
REMARK                            x       y       z     vdW  Elec       q    Type
REMARK                         _______ _______ _______ _____ _____    ______ ____
ROOT
ATOM     14  C   UNL     1      -1.614   2.270  24.789  0.00  0.00    +0.156 C 
ATOM     15  C   UNL     1      -1.723   2.105  23.988  0.00  0.00    +0.166 C 
ATOM     16  O   UNL     1      -1.541   1.309  23.866  0.00  0.00    -0.350 OA
ATOM     17  C   UNL     1      -1.321   0.983  24.590  0.00  0.00    +0.169 C 
ATOM     18  C   UNL     1      -1.073   0.290  24.963  0.00  0.00    +0.170 C 
ATOM     19  C   UNL     1      -0.964   0.456  25.764  0.00  0.00    +0.169 C 
ATOM     20  O   UNL     1      -1.145   1.251  25.886  0.00  0.00    -0.350 OA
ATOM     21  C   UNL     1      -1.366   1.577  25.161  0.00  0.00    +0.167 C 
ENDROOT
BRANCH  18  22
ATOM     22  N   UNL     1      -0.954  -0.440  24.599  0.00  0.00    -0.180 N 
ATOM     23  N   UNL     1      -0.290  -0.663  24.163  0.00  0.00    -0.040 NA
ATOM     24  N   UNL     1      -0.404  -1.437  23.901  0.00  0.00    -0.020 NA
ATOM     25  N   UNL     1      -1.139  -1.692  24.175  0.00  0.00    -0.071 NA
ATOM     26  C   UNL     1      -1.479  -1.077  24.606  0.00  0.00    +0.343 A 
BRANCH  26  27
ATOM     27  O   UNL     1      -2.215  -1.095  24.979  0.00  0.00    -0.421 OA
BRANCH  27  28
ATOM     28  C   UNL     1      -2.787  -1.638  24.737  0.00  0.00    +0.149 A 
ATOM     29  C   UNL     1      -2.763  -2.414  25.014  0.00  0.00    +0.038 A 
ATOM     30  C   UNL     1      -3.335  -2.956  24.772  0.00  0.00    +0.003 A 
ATOM     31  C   UNL     1      -3.931  -2.723  24.252  0.00  0.00    +0.000 A 
ATOM     32  C   UNL     1      -3.955  -1.946  23.974  0.00  0.00    +0.003 A 
ATOM     33  C   UNL     1      -3.383  -1.404  24.216  0.00  0.00    +0.038 A 
ENDBRANCH  27  28
ENDBRANCH  26  27
ENDBRANCH  18  22
BRANCH  14  13
ATOM     10  N   UNL     1      -3.147   2.829  25.037  0.00  0.00    -0.161 NA
ATOM     11  C   UNL     1      -2.499   3.281  25.278  0.00  0.00    +0.344 C 
ATOM     12  O   UNL     1      -2.618   4.010  25.642  0.00  0.00    -0.249 OA
ATOM     13  N   UNL     1      -1.733   3.001  25.154  0.00  0.00    -0.184 NA
BRANCH  10   9
ATOM      5  C   UNL     1      -5.264   2.877  25.565  0.00  0.00    +0.073 A 
ATOM      6  C   UNL     1      -5.445   3.667  25.410  0.00  0.00    +0.004 A 
ATOM      7  C   UNL     1      -4.860   4.178  25.132  0.00  0.00    +0.001 A 
ATOM      8  C   UNL     1      -4.094   3.899  25.007  0.00  0.00    +0.017 A 
ATOM      9  C   UNL     1      -3.913   3.108  25.161  0.00  0.00    +0.075 A 
ATOM     34  C   UNL     1      -4.498   2.598  25.440  0.00  0.00    +0.021 A 
BRANCH   5   2
ATOM      1  F   UNL     1      -6.434   1.855  26.122  0.00  0.00    -0.166 F 
ATOM      2  C   UNL     1      -5.849   2.366  25.843  0.00  0.00    +0.419 C 
ATOM      3  F   UNL     1      -5.955   2.071  25.080  0.00  0.00    -0.166 F 
ATOM      4  F   UNL     1      -5.743   2.661  26.606  0.00  0.00    -0.166 F 
ENDBRANCH   5   2
ENDBRANCH  10   9
ENDBRANCH  14  13
TORSDOF 6
ENDMDL
