MODEL 1
REMARK VINA RESULT:     -16.5      0.000      0.000
REMARK  Name = 
REMARK  5 active torsions:
REMARK  status: ('A' for Active; 'I' for Inactive)
REMARK    1  A    between atoms: C_2  and  C_28
REMARK    2  A    between atoms: C_12  and  N_13
REMARK    3  A    between atoms: N_13  and  S_14
REMARK    4  A    between atoms: S_14  and  C_17
REMARK    5  A    between atoms: C_17  and  C_18
REMARK                            x       y       z     vdW  Elec       q    Type
REMARK                         _______ _______ _______ _____ _____    ______ ____
ROOT
ATOM      1  O   UNL     1      -4.031   4.237  24.226  0.00  0.00    -0.270 OA
ATOM      2  C   UNL     1      -3.494   3.565  24.442  0.00  0.00    +0.249 C 
ATOM      3  N   UNL     1      -2.731   3.754  24.802  0.00  0.00    -0.276 N 
ATOM      4  C   UNL     1      -2.199   4.339  25.074  0.00  0.00    +0.096 C 
ATOM      5  C   UNL     1      -1.462   3.759  25.386  0.00  0.00    +0.043 C 
ATOM      6  C   UNL     1      -0.780   3.429  25.684  0.00  0.00    +0.011 C 
ATOM      7  C   UNL     1      -1.381   3.208  25.397  0.00  0.00    +0.058 C 
ATOM      8  C   UNL     1      -2.085   3.781  25.100  0.00  0.00    +0.099 C 
ATOM      9  C   UNL     1      -1.825   2.440  25.157  0.00  0.00    +0.041 A 
ATOM     10  C   UNL     1      -1.735   1.620  25.161  0.00  0.00    +0.014 A 
ATOM     11  C   UNL     1      -2.334   1.138  24.863  0.00  0.00    +0.024 A 
ATOM     12  C   UNL     1      -3.047   1.590  24.556  0.00  0.00    +0.147 A 
ATOM     24  C   UNL     1      -3.114   2.296  24.558  0.00  0.00    +0.277 A 
ATOM     25  O   UNL     1      -3.929   2.813  24.207  0.00  0.00    -0.266 OA
ATOM     26  N   UNL     1      -2.515   2.778  24.856  0.00  0.00    -0.298 N 
ATOM     27  C   UNL     1      -1.934   2.963  25.132  0.00  0.00    +0.110 C 
ENDROOT
BRANCH   2  28
ATOM     28  C   UNL     1      -3.487   2.609  24.401  0.00  0.00    +0.054 A 
ATOM     29  C   UNL     1      -3.320   2.308  23.651  0.00  0.00    +0.005 A 
ATOM     30  C   UNL     1      -3.295   1.492  23.531  0.00  0.00    +0.000 A 
ATOM     31  C   UNL     1      -3.437   0.978  24.159  0.00  0.00    +0.000 A 
ATOM     32  C   UNL     1      -3.604   1.279  24.909  0.00  0.00    +0.000 A 
ATOM     33  C   UNL     1      -3.629   2.096  25.030  0.00  0.00    +0.005 A 
ENDBRANCH   2  28
BRANCH  12  13
ATOM     13  N   UNL     1      -3.812   1.370  24.194  0.00  0.00    -0.095 NA
BRANCH  13  14
ATOM     14  S   UNL     1      -3.676   0.413  24.583  0.00  0.00    +0.078 S 
ATOM     15  O   UNL     1      -4.626   0.428  24.548  0.00  0.00    -0.153 OA
ATOM     16  O   UNL     1      -3.038  -0.255  24.871  0.00  0.00    -0.153 OA
BRANCH  14  17
ATOM     17  C   UNL     1      -3.865  -0.400  24.904  0.00  0.00    +0.201 C 
BRANCH  17  18
ATOM     18  C   UNL     1      -3.837  -1.195  24.685  0.00  0.00    +0.003 A 
ATOM     19  C   UNL     1      -4.262  -1.458  24.029  0.00  0.00    -0.003 A 
ATOM     20  C   UNL     1      -4.233  -2.253  23.811  0.00  0.00    -0.000 A 
ATOM     21  C   UNL     1      -3.779  -2.785  24.248  0.00  0.00    -0.000 A 
ATOM     22  C   UNL     1      -3.353  -2.522  24.904  0.00  0.00    -0.000 A 
ATOM     23  C   UNL     1      -3.383  -1.726  25.123  0.00  0.00    -0.003 A 
ENDBRANCH  17  18
ENDBRANCH  14  17
ENDBRANCH  13  14
ENDBRANCH  12  13
TORSDOF 5
ENDMDL
MODEL 2
REMARK VINA RESULT:     -16.0      1.690      4.455
REMARK  Name = 
REMARK  5 active torsions:
REMARK  status: ('A' for Active; 'I' for Inactive)
REMARK    1  A    between atoms: C_2  and  C_28
REMARK    2  A    between atoms: C_12  and  N_13
REMARK    3  A    between atoms: N_13  and  S_14
REMARK    4  A    between atoms: S_14  and  C_17
REMARK    5  A    between atoms: C_17  and  C_18
REMARK                            x       y       z     vdW  Elec       q    Type
REMARK                         _______ _______ _______ _____ _____    ______ ____
ROOT
ATOM      1  O   UNL     1      -0.949  -1.248  25.377  0.00  0.00    -0.270 OA
ATOM      2  C   UNL     1      -1.763  -1.131  25.049  0.00  0.00    +0.249 C 
ATOM      3  N   UNL     1      -2.233  -1.834  24.864  0.00  0.00    -0.276 N 
ATOM      4  C   UNL     1      -2.286  -2.667  24.847  0.00  0.00    +0.096 C 
ATOM      5  C   UNL     1      -3.198  -2.767  24.481  0.00  0.00    +0.043 C 
ATOM      6  C   UNL     1      -3.918  -3.016  24.192  0.00  0.00    +0.011 C 
ATOM      7  C   UNL     1      -3.593  -2.408  24.320  0.00  0.00    +0.058 C 
ATOM      8  C   UNL     1      -2.710  -2.328  24.675  0.00  0.00    +0.099 C 
ATOM      9  C   UNL     1      -3.717  -1.499  24.265  0.00  0.00    +0.041 A 
ATOM     10  C   UNL     1      -4.280  -0.942  24.035  0.00  0.00    +0.014 A 
ATOM     11  C   UNL     1      -4.113  -0.137  24.098  0.00  0.00    +0.024 A 
ATOM     12  C   UNL     1      -3.296   0.042  24.426  0.00  0.00    +0.147 A 
ATOM     24  C   UNL     1      -2.819  -0.445  24.620  0.00  0.00    +0.277 A 
ATOM     25  O   UNL     1      -1.886  -0.241  24.995  0.00  0.00    -0.266 OA
ATOM     26  N   UNL     1      -2.986  -1.250  24.557  0.00  0.00    -0.298 N 
ATOM     27  C   UNL     1      -3.318  -1.817  24.427  0.00  0.00    +0.110 C 
ENDROOT
BRANCH   2  28
ATOM     28  C   UNL     1      -2.346  -0.410  24.811  0.00  0.00    +0.054 A 
ATOM     29  C   UNL     1      -2.161  -0.057  24.089  0.00  0.00    +0.005 A 
ATOM     30  C   UNL     1      -2.616   0.574  23.810  0.00  0.00    +0.000 A 
ATOM     31  C   UNL     1      -3.253   0.850  24.254  0.00  0.00    +0.000 A 
ATOM     32  C   UNL     1      -3.438   0.497  24.977  0.00  0.00    +0.000 A 
ATOM     33  C   UNL     1      -2.983  -0.134  25.255  0.00  0.00    +0.005 A 
ENDBRANCH   2  28
BRANCH  12  13
ATOM     13  N   UNL     1      -2.845   0.770  24.603  0.00  0.00    -0.095 NA
BRANCH  13  14
ATOM     14  S   UNL     1      -3.745   1.294  24.553  0.00  0.00    +0.078 S 
ATOM     15  O   UNL     1      -3.147   2.001  24.339  0.00  0.00    -0.153 OA
ATOM     16  O   UNL     1      -4.707   1.248  24.641  0.00  0.00    -0.153 OA
BRANCH  14  17
ATOM     17  C   UNL     1      -4.321   1.967  24.442  0.00  0.00    +0.201 C 
BRANCH  17  18
ATOM     18  C   UNL     1      -4.698   2.563  24.872  0.00  0.00    +0.003 A 
ATOM     19  C   UNL     1      -5.431   2.418  25.221  0.00  0.00    -0.003 A 
ATOM     20  C   UNL     1      -5.807   3.014  25.651  0.00  0.00    -0.000 A 
ATOM     21  C   UNL     1      -5.450   3.753  25.732  0.00  0.00    -0.000 A 
ATOM     22  C   UNL     1      -4.717   3.897  25.382  0.00  0.00    -0.000 A 
ATOM     23  C   UNL     1      -4.341   3.301  24.952  0.00  0.00    -0.003 A 
ENDBRANCH  17  18
ENDBRANCH  14  17
ENDBRANCH  13  14
ENDBRANCH  12  13
TORSDOF 5
ENDMDL
MODEL 3
REMARK VINA RESULT:     -15.4      1.573      4.721
REMARK  Name = 
REMARK  5 active torsions:
REMARK  status: ('A' for Active; 'I' for Inactive)
REMARK    1  A    between atoms: C_2  and  C_28
REMARK    2  A    between atoms: C_12  and  N_13
REMARK    3  A    between atoms: N_13  and  S_14
REMARK    4  A    between atoms: S_14  and  C_17
REMARK    5  A    between atoms: C_17  and  C_18
REMARK                            x       y       z     vdW  Elec       q    Type
REMARK                         _______ _______ _______ _____ _____    ______ ____
ROOT
ATOM      1  O   UNL     1      -0.821  -2.040  25.039  0.00  0.00    -0.270 OA
ATOM      2  C   UNL     1      -1.413  -1.396  24.897  0.00  0.00    +0.249 C 
ATOM      3  N   UNL     1      -2.220  -1.623  24.686  0.00  0.00    -0.276 N 
ATOM      4  C   UNL     1      -2.768  -2.235  24.534  0.00  0.00    +0.096 C 
ATOM      5  C   UNL     1      -3.570  -1.693  24.337  0.00  0.00    +0.043 C 
ATOM      6  C   UNL     1      -4.307  -1.398  24.152  0.00  0.00    +0.011 C 
ATOM      7  C   UNL     1      -3.673  -1.146  24.319  0.00  0.00    +0.058 C 
ATOM      8  C   UNL     1      -2.907  -1.683  24.508  0.00  0.00    +0.099 C 
ATOM      9  C   UNL     1      -3.224  -0.355  24.448  0.00  0.00    +0.041 A 
ATOM     10  C   UNL     1      -3.344   0.461  24.430  0.00  0.00    +0.014 A 
ATOM     11  C   UNL     1      -2.721   0.974  24.599  0.00  0.00    +0.024 A 
ATOM     12  C   UNL     1      -1.948   0.558  24.791  0.00  0.00    +0.147 A 
ATOM     24  C   UNL     1      -1.855  -0.145  24.803  0.00  0.00    +0.277 A 
ATOM     25  O   UNL     1      -0.973  -0.621  25.023  0.00  0.00    -0.266 OA
ATOM     26  N   UNL     1      -2.479  -0.658  24.634  0.00  0.00    -0.298 N 
ATOM     27  C   UNL     1      -3.092  -0.872  24.473  0.00  0.00    +0.110 C 
ENDROOT
BRANCH   2  28
ATOM     28  C   UNL     1      -1.449  -0.439  24.903  0.00  0.00    +0.054 A 
ATOM     29  C   UNL     1      -1.116  -0.088  24.236  0.00  0.00    +0.005 A 
ATOM     30  C   UNL     1      -1.107   0.734  24.163  0.00  0.00    +0.000 A 
ATOM     31  C   UNL     1      -1.431   1.204  24.759  0.00  0.00    +0.000 A 
ATOM     32  C   UNL     1      -1.764   0.852  25.427  0.00  0.00    +0.000 A 
ATOM     33  C   UNL     1      -1.773   0.030  25.499  0.00  0.00    +0.005 A 
ENDBRANCH   2  28
BRANCH  12  13
ATOM     13  N   UNL     1      -1.141   0.818  25.003  0.00  0.00    -0.095 NA
BRANCH  13  14
ATOM     14  S   UNL     1      -1.542   1.751  25.232  0.00  0.00    +0.078 S 
ATOM     15  O   UNL     1      -0.791   1.765  25.813  0.00  0.00    -0.153 OA
ATOM     16  O   UNL     1      -2.251   2.386  25.057  0.00  0.00    -0.153 OA
BRANCH  14  17
ATOM     17  C   UNL     1      -1.644   2.553  25.614  0.00  0.00    +0.201 C 
BRANCH  17  18
ATOM     18  C   UNL     1      -1.554   3.356  25.446  0.00  0.00    +0.003 A 
ATOM     19  C   UNL     1      -0.814   3.652  25.232  0.00  0.00    -0.003 A 
ATOM     20  C   UNL     1      -0.725   4.455  25.064  0.00  0.00    -0.000 A 
ATOM     21  C   UNL     1      -1.374   4.961  25.111  0.00  0.00    -0.000 A 
ATOM     22  C   UNL     1      -2.114   4.665  25.325  0.00  0.00    -0.000 A 
ATOM     23  C   UNL     1      -2.203   3.862  25.493  0.00  0.00    -0.003 A 
ENDBRANCH  17  18
ENDBRANCH  14  17
ENDBRANCH  13  14
ENDBRANCH  12  13
TORSDOF 5
ENDMDL
