MODEL 1
REMARK VINA RESULT:     -10.1      0.000      0.000
REMARK  Name = 
REMARK  6 active torsions:
REMARK  status: ('A' for Active; 'I' for Inactive)
REMARK    1  A    between atoms: N_2  and  C_4
REMARK    2  A    between atoms: C_7  and  C_10
REMARK    3  A    between atoms: N_12  and  C_13
REMARK    4  A    between atoms: C_15  and  C_18
REMARK    5  A    between atoms: N_21  and  C_25
REMARK    6  A    between atoms: C_28  and  C_31
REMARK                            x       y       z     vdW  Elec       q    Type
REMARK                         _______ _______ _______ _____ _____    ______ ____
ROOT
ATOM     13  C   UNL     1      -0.676  -0.200  24.344  0.00  0.00    +0.118 C 
ATOM     14  C   UNL     1      -1.312   0.310  24.218  0.00  0.00    +0.035 C 
ATOM     15  C   UNL     1      -1.993  -0.057  24.505  0.00  0.00    +0.048 C 
ATOM     16  C   UNL     1      -1.777  -0.793  24.809  0.00  0.00    -0.025 C 
ATOM     17  C   UNL     1      -0.963  -0.881  24.709  0.00  0.00    -0.009 C 
ENDROOT
BRANCH  15  18
ATOM     18  C   UNL     1      -2.755   0.257  24.491  0.00  0.00    +0.010 A 
ATOM     19  C   UNL     1      -2.981   0.997  24.779  0.00  0.00    +0.058 A 
ATOM     20  C   UNL     1      -2.483   1.553  25.130  0.00  0.00    +0.052 C 
ATOM     21  N   UNL     1      -3.792   1.084  24.652  0.00  0.00    -0.234 N 
ATOM     22  N   UNL     1      -4.068   0.398  24.287  0.00  0.00    -0.170 NA
ATOM     23  C   UNL     1      -3.427  -0.113  24.187  0.00  0.00    +0.077 A 
ATOM     24  C   UNL     1      -3.454  -0.863  23.844  0.00  0.00    +0.054 C 
BRANCH  21  25
ATOM     25  C   UNL     1      -4.247   1.742  24.855  0.00  0.00    +0.082 A 
ATOM     26  C   UNL     1      -4.819   1.681  25.446  0.00  0.00    +0.019 A 
ATOM     27  C   UNL     1      -5.273   2.338  25.649  0.00  0.00    +0.005 A 
ATOM     28  C   UNL     1      -5.156   3.057  25.262  0.00  0.00    +0.072 A 
ATOM     29  C   UNL     1      -4.584   3.118  24.671  0.00  0.00    +0.005 A 
ATOM     30  C   UNL     1      -4.129   2.460  24.468  0.00  0.00    +0.019 A 
BRANCH  28  31
ATOM     31  C   UNL     1      -5.611   3.714  25.465  0.00  0.00    +0.419 C 
ATOM     32  F   UNL     1      -6.065   4.372  25.668  0.00  0.00    -0.166 F 
ATOM     33  F   UNL     1      -6.295   3.259  25.411  0.00  0.00    -0.166 F 
ATOM     34  F   UNL     1      -4.925   4.171  25.519  0.00  0.00    -0.166 F 
ENDBRANCH  28  31
ENDBRANCH  21  25
ENDBRANCH  15  18
BRANCH  13  12
ATOM     10  C   UNL     1       0.336  -0.040  23.348  0.00  0.00    +0.265 C 
ATOM     11  O   UNL     1      -0.225  -0.173  22.758  0.00  0.00    -0.268 OA
ATOM     12  N   UNL     1       0.110  -0.053  24.141  0.00  0.00    -0.199 NA
BRANCH  10   7
ATOM      4  C   UNL     1       2.694   0.400  22.738  0.00  0.00    +0.048 A 
ATOM      5  C   UNL     1       2.294  -0.238  22.404  0.00  0.00    +0.015 A 
ATOM      6  C   UNL     1       1.507  -0.385  22.607  0.00  0.00    +0.006 A 
ATOM      7  C   UNL     1       1.122   0.107  23.145  0.00  0.00    +0.055 A 
ATOM      8  C   UNL     1       1.522   0.745  23.479  0.00  0.00    +0.006 A 
ATOM      9  C   UNL     1       2.309   0.892  23.276  0.00  0.00    +0.015 A 
BRANCH   4   2
ATOM      1  C   UNL     1       3.733   0.434  21.759  0.00  0.00    +0.112 C 
ATOM      2  N   UNL     1       3.480   0.547  22.535  0.00  0.00    -0.304 N 
ATOM      3  C   UNL     1       4.012   0.806  23.109  0.00  0.00    +0.112 C 
ENDBRANCH   4   2
ENDBRANCH  10   7
ENDBRANCH  13  12
TORSDOF 6
ENDMDL
MODEL 2
REMARK VINA RESULT:      -9.5      1.533      2.221
REMARK  Name = 
REMARK  6 active torsions:
REMARK  status: ('A' for Active; 'I' for Inactive)
REMARK    1  A    between atoms: N_2  and  C_4
REMARK    2  A    between atoms: C_7  and  C_10
REMARK    3  A    between atoms: N_12  and  C_13
REMARK    4  A    between atoms: C_15  and  C_18
REMARK    5  A    between atoms: N_21  and  C_25
REMARK    6  A    between atoms: C_28  and  C_31
REMARK                            x       y       z     vdW  Elec       q    Type
REMARK                         _______ _______ _______ _____ _____    ______ ____
ROOT
ATOM     13  C   UNL     1       0.082   2.247  24.837  0.00  0.00    +0.118 C 
ATOM     14  C   UNL     1      -0.650   2.495  24.550  0.00  0.00    +0.035 C 
ATOM     15  C   UNL     1      -1.125   2.688  25.197  0.00  0.00    +0.048 C 
ATOM     16  C   UNL     1      -0.685   2.558  25.883  0.00  0.00    -0.025 C 
ATOM     17  C   UNL     1       0.062   2.286  25.660  0.00  0.00    -0.009 C 
ENDROOT
BRANCH  15  18
ATOM     18  C   UNL     1      -1.902   2.961  25.164  0.00  0.00    +0.010 A 
ATOM     19  C   UNL     1      -2.580   2.493  25.131  0.00  0.00    +0.058 A 
ATOM     20  C   UNL     1      -2.601   1.668  25.125  0.00  0.00    +0.052 C 
ATOM     21  N   UNL     1      -3.235   2.994  25.105  0.00  0.00    -0.234 N 
ATOM     22  N   UNL     1      -2.962   3.772  25.122  0.00  0.00    -0.170 NA
ATOM     23  C   UNL     1      -2.138   3.752  25.158  0.00  0.00    +0.077 A 
ATOM     24  C   UNL     1      -1.637   4.408  25.185  0.00  0.00    +0.054 C 
BRANCH  21  25
ATOM     25  C   UNL     1      -4.025   2.758  25.068  0.00  0.00    +0.082 A 
ATOM     26  C   UNL     1      -4.514   2.848  25.727  0.00  0.00    +0.019 A 
ATOM     27  C   UNL     1      -5.303   2.612  25.690  0.00  0.00    +0.005 A 
ATOM     28  C   UNL     1      -5.605   2.287  24.994  0.00  0.00    +0.072 A 
ATOM     29  C   UNL     1      -5.117   2.198  24.335  0.00  0.00    +0.005 A 
ATOM     30  C   UNL     1      -4.326   2.433  24.372  0.00  0.00    +0.019 A 
BRANCH  28  31
ATOM     31  C   UNL     1      -6.394   2.051  24.957  0.00  0.00    +0.419 C 
ATOM     32  F   UNL     1      -7.184   1.815  24.920  0.00  0.00    -0.166 F 
ATOM     33  F   UNL     1      -6.627   2.783  25.256  0.00  0.00    -0.166 F 
ATOM     34  F   UNL     1      -6.161   1.318  24.657  0.00  0.00    -0.166 F 
ENDBRANCH  28  31
ENDBRANCH  21  25
ENDBRANCH  15  18
BRANCH  13  12
ATOM     10  C   UNL     1       0.747   1.235  24.077  0.00  0.00    +0.265 C 
ATOM     11  O   UNL     1       0.129   0.713  24.234  0.00  0.00    -0.268 OA
ATOM     12  N   UNL     1       0.724   2.003  24.379  0.00  0.00    -0.199 NA
BRANCH  10   7
ATOM      4  C   UNL     1       2.672   0.502  22.704  0.00  0.00    +0.048 A 
ATOM      5  C   UNL     1       1.997   0.031  22.752  0.00  0.00    +0.015 A 
ATOM      6  C   UNL     1       1.355   0.276  23.211  0.00  0.00    +0.006 A 
ATOM      7  C   UNL     1       1.389   0.991  23.620  0.00  0.00    +0.055 A 
ATOM      8  C   UNL     1       2.064   1.462  23.571  0.00  0.00    +0.006 A 
ATOM      9  C   UNL     1       2.706   1.217  23.113  0.00  0.00    +0.015 A 
BRANCH   4   2
ATOM      1  C   UNL     1       3.192  -0.003  21.474  0.00  0.00    +0.112 C 
ATOM      2  N   UNL     1       3.313   0.258  22.247  0.00  0.00    -0.304 N 
ATOM      3  C   UNL     1       4.074   0.274  22.562  0.00  0.00    +0.112 C 
ENDBRANCH   4   2
ENDBRANCH  10   7
ENDBRANCH  13  12
TORSDOF 6
ENDMDL
MODEL 3
REMARK VINA RESULT:      -8.7      4.064      5.167
REMARK  Name = 
REMARK  6 active torsions:
REMARK  status: ('A' for Active; 'I' for Inactive)
REMARK    1  A    between atoms: N_2  and  C_4
REMARK    2  A    between atoms: C_7  and  C_10
REMARK    3  A    between atoms: N_12  and  C_13
REMARK    4  A    between atoms: C_15  and  C_18
REMARK    5  A    between atoms: N_21  and  C_25
REMARK    6  A    between atoms: C_28  and  C_31
REMARK                            x       y       z     vdW  Elec       q    Type
REMARK                         _______ _______ _______ _____ _____    ______ ____
ROOT
ATOM     13  C   UNL     1      -4.724   0.758  24.710  0.00  0.00    +0.118 C 
ATOM     14  C   UNL     1      -4.193   1.386  24.767  0.00  0.00    +0.035 C 
ATOM     15  C   UNL     1      -4.607   2.045  25.042  0.00  0.00    +0.048 C 
ATOM     16  C   UNL     1      -5.394   1.823  25.154  0.00  0.00    -0.025 C 
ATOM     17  C   UNL     1      -5.466   1.027  24.948  0.00  0.00    -0.009 C 
ENDROOT
BRANCH  15  18
ATOM     18  C   UNL     1      -4.290   2.794  25.180  0.00  0.00    +0.010 A 
ATOM     19  C   UNL     1      -3.523   3.036  25.000  0.00  0.00    +0.058 A 
ATOM     20  C   UNL     1      -2.937   2.573  24.650  0.00  0.00    +0.052 C 
ATOM     21  N   UNL     1      -3.443   3.825  25.231  0.00  0.00    -0.234 N 
ATOM     22  N   UNL     1      -4.162   4.069  25.555  0.00  0.00    -0.170 NA
ATOM     23  C   UNL     1      -4.686   3.432  25.523  0.00  0.00    +0.077 A 
ATOM     24  C   UNL     1      -5.467   3.432  25.788  0.00  0.00    +0.054 C 
BRANCH  21  25
ATOM     25  C   UNL     1      -2.764   4.287  25.153  0.00  0.00    +0.082 A 
ATOM     26  C   UNL     1      -2.140   4.196  25.684  0.00  0.00    +0.019 A 
ATOM     27  C   UNL     1      -1.462   4.658  25.606  0.00  0.00    +0.005 A 
ATOM     28  C   UNL     1      -1.407   5.212  24.997  0.00  0.00    +0.072 A 
ATOM     29  C   UNL     1      -2.032   5.303  24.466  0.00  0.00    +0.005 A 
ATOM     30  C   UNL     1      -2.711   4.841  24.544  0.00  0.00    +0.019 A 
BRANCH  28  31
ATOM     31  C   UNL     1      -0.729   5.675  24.919  0.00  0.00    +0.419 C 
ATOM     32  F   UNL     1      -0.050   6.137  24.840  0.00  0.00    -0.166 F 
ATOM     33  F   UNL     1      -1.176   6.354  25.052  0.00  0.00    -0.166 F 
ATOM     34  F   UNL     1      -0.281   4.994  24.786  0.00  0.00    -0.166 F 
ENDBRANCH  28  31
ENDBRANCH  21  25
ENDBRANCH  15  18
BRANCH  13  12
ATOM     10  C   UNL     1      -4.175  -0.536  24.972  0.00  0.00    +0.265 C 
ATOM     11  O   UNL     1      -3.987  -0.299  25.739  0.00  0.00    -0.268 OA
ATOM     12  N   UNL     1      -4.544  -0.007  24.457  0.00  0.00    -0.199 NA
BRANCH  10   7
ATOM      4  C   UNL     1      -3.635  -2.829  24.215  0.00  0.00    +0.048 A 
ATOM      5  C   UNL     1      -4.130  -2.351  23.761  0.00  0.00    +0.015 A 
ATOM      6  C   UNL     1      -4.310  -1.586  24.013  0.00  0.00    +0.006 A 
ATOM      7  C   UNL     1      -3.995  -1.300  24.720  0.00  0.00    +0.055 A 
ATOM      8  C   UNL     1      -3.501  -1.778  25.174  0.00  0.00    +0.006 A 
ATOM      9  C   UNL     1      -3.320  -2.544  24.921  0.00  0.00    +0.015 A 
BRANCH   4   2
ATOM      1  C   UNL     1      -2.669  -3.825  23.876  0.00  0.00    +0.112 C 
ATOM      2  N   UNL     1      -3.455  -3.594  23.962  0.00  0.00    -0.304 N 
ATOM      3  C   UNL     1      -4.062  -4.127  23.797  0.00  0.00    +0.112 C 
ENDBRANCH   4   2
ENDBRANCH  10   7
ENDBRANCH  13  12
TORSDOF 6
ENDMDL
MODEL 4
REMARK VINA RESULT:      -7.2     14.855     16.911
REMARK  Name = 
REMARK  6 active torsions:
REMARK  status: ('A' for Active; 'I' for Inactive)
REMARK    1  A    between atoms: N_2  and  C_4
REMARK    2  A    between atoms: C_7  and  C_10
REMARK    3  A    between atoms: N_12  and  C_13
REMARK    4  A    between atoms: C_15  and  C_18
REMARK    5  A    between atoms: N_21  and  C_25
REMARK    6  A    between atoms: C_28  and  C_31
REMARK                            x       y       z     vdW  Elec       q    Type
REMARK                         _______ _______ _______ _____ _____    ______ ____
ROOT
ATOM     13  C   UNL     1      -5.189 -10.612  15.216  0.00  0.00    +0.118 C 
ATOM     14  C   UNL     1      -5.072 -10.457  14.414  0.00  0.00    +0.035 C 
ATOM     15  C   UNL     1      -4.266 -10.531  14.255  0.00  0.00    +0.048 C 
ATOM     16  C   UNL     1      -3.885 -10.731  14.959  0.00  0.00    -0.025 C 
ATOM     17  C   UNL     1      -4.456 -10.781  15.553  0.00  0.00    -0.009 C 
ENDROOT
BRANCH  15  18
ATOM     18  C   UNL     1      -3.905 -10.424  13.521  0.00  0.00    +0.010 A 
ATOM     19  C   UNL     1      -4.292 -10.302  12.803  0.00  0.00    +0.058 A 
ATOM     20  C   UNL     1      -5.108 -10.266  12.692  0.00  0.00    +0.052 C 
ATOM     21  N   UNL     1      -3.719 -10.222  12.215  0.00  0.00    -0.234 N 
ATOM     22  N   UNL     1      -2.977 -10.295  12.569  0.00  0.00    -0.170 NA
ATOM     23  C   UNL     1      -3.092 -10.419  13.377  0.00  0.00    +0.077 A 
ATOM     24  C   UNL     1      -2.499 -10.522  13.941  0.00  0.00    +0.054 C 
BRANCH  21  25
ATOM     25  C   UNL     1      -3.862 -10.092  11.412  0.00  0.00    +0.082 A 
ATOM     26  C   UNL     1      -3.756 -10.704  10.870  0.00  0.00    +0.019 A 
ATOM     27  C   UNL     1      -3.899 -10.574  10.068  0.00  0.00    +0.005 A 
ATOM     28  C   UNL     1      -4.148  -9.832   9.808  0.00  0.00    +0.072 A 
ATOM     29  C   UNL     1      -4.255  -9.220  10.351  0.00  0.00    +0.005 A 
ATOM     30  C   UNL     1      -4.111  -9.350  11.153  0.00  0.00    +0.019 A 
BRANCH  28  31
ATOM     31  C   UNL     1      -4.292  -9.702   9.007  0.00  0.00    +0.419 C 
ATOM     32  F   UNL     1      -4.435  -9.572   8.205  0.00  0.00    -0.166 F 
ATOM     33  F   UNL     1      -3.620  -9.226   8.963  0.00  0.00    -0.166 F 
ATOM     34  F   UNL     1      -4.964 -10.179   9.050  0.00  0.00    -0.166 F 
ENDBRANCH  28  31
ENDBRANCH  21  25
ENDBRANCH  15  18
BRANCH  13  12
ATOM     10  C   UNL     1      -6.090  -9.982  16.129  0.00  0.00    +0.265 C 
ATOM     11  O   UNL     1      -5.542  -9.377  16.250  0.00  0.00    -0.268 OA
ATOM     12  N   UNL     1      -5.912 -10.599  15.611  0.00  0.00    -0.199 NA
BRANCH  10   7
ATOM      4  C   UNL     1      -8.261  -9.944  17.315  0.00  0.00    +0.048 A 
ATOM      5  C   UNL     1      -7.871  -9.237  17.147  0.00  0.00    +0.015 A 
ATOM      6  C   UNL     1      -7.146  -9.250  16.751  0.00  0.00    +0.006 A 
ATOM      7  C   UNL     1      -6.813  -9.969  16.524  0.00  0.00    +0.055 A 
ATOM      8  C   UNL     1      -7.203 -10.675  16.692  0.00  0.00    +0.006 A 
ATOM      9  C   UNL     1      -7.928 -10.663  17.089  0.00  0.00    +0.015 A 
BRANCH   4   2
ATOM      1  C   UNL     1      -9.070 -10.329  18.428  0.00  0.00    +0.112 C 
ATOM      2  N   UNL     1      -8.985  -9.931  17.711  0.00  0.00    -0.304 N 
ATOM      3  C   UNL     1      -9.623  -9.520  17.389  0.00  0.00    +0.112 C 
ENDBRANCH   4   2
ENDBRANCH  10   7
ENDBRANCH  13  12
TORSDOF 6
ENDMDL
MODEL 5
REMARK VINA RESULT:      -7.1     15.344     17.572
REMARK  Name = 
REMARK  6 active torsions:
REMARK  status: ('A' for Active; 'I' for Inactive)
REMARK    1  A    between atoms: N_2  and  C_4
REMARK    2  A    between atoms: C_7  and  C_10
REMARK    3  A    between atoms: N_12  and  C_13
REMARK    4  A    between atoms: C_15  and  C_18
REMARK    5  A    between atoms: N_21  and  C_25
REMARK    6  A    between atoms: C_28  and  C_31
REMARK                            x       y       z     vdW  Elec       q    Type
REMARK                         _______ _______ _______ _____ _____    ______ ____
ROOT
ATOM     13  C   UNL     1      -8.563  -9.860  13.424  0.00  0.00    +0.118 C 
ATOM     14  C   UNL     1      -8.092  -9.418  12.911  0.00  0.00    +0.035 C 
ATOM     15  C   UNL     1      -7.789  -9.931  12.339  0.00  0.00    +0.048 C 
ATOM     16  C   UNL     1      -8.073 -10.688  12.500  0.00  0.00    -0.025 C 
ATOM     17  C   UNL     1      -8.552 -10.644  13.171  0.00  0.00    -0.009 C 
ENDROOT
BRANCH  15  18
ATOM     18  C   UNL     1      -7.289  -9.722  11.717  0.00  0.00    +0.010 A 
ATOM     19  C   UNL     1      -6.465  -9.708  11.741  0.00  0.00    +0.058 A 
ATOM     20  C   UNL     1      -5.995  -9.901  12.390  0.00  0.00    +0.052 C 
ATOM     21  N   UNL     1      -6.193  -9.468  10.999  0.00  0.00    -0.234 N 
ATOM     22  N   UNL     1      -6.849  -9.333  10.518  0.00  0.00    -0.170 NA
ATOM     23  C   UNL     1      -7.527  -9.490  10.962  0.00  0.00    +0.077 A 
ATOM     24  C   UNL     1      -8.306  -9.426  10.696  0.00  0.00    +0.054 C 
BRANCH  21  25
ATOM     25  C   UNL     1      -5.402  -9.378  10.779  0.00  0.00    +0.082 A 
ATOM     26  C   UNL     1      -5.050  -8.632  10.801  0.00  0.00    +0.019 A 
ATOM     27  C   UNL     1      -4.261  -8.543  10.581  0.00  0.00    +0.005 A 
ATOM     28  C   UNL     1      -3.823  -9.199  10.337  0.00  0.00    +0.072 A 
ATOM     29  C   UNL     1      -4.175  -9.944  10.315  0.00  0.00    +0.005 A 
ATOM     30  C   UNL     1      -4.966 -10.034  10.535  0.00  0.00    +0.019 A 
BRANCH  28  31
ATOM     31  C   UNL     1      -3.034  -9.109  10.116  0.00  0.00    +0.419 C 
ATOM     32  F   UNL     1      -2.243  -9.020   9.896  0.00  0.00    -0.166 F 
ATOM     33  F   UNL     1      -3.270  -8.890   9.358  0.00  0.00    -0.166 F 
ATOM     34  F   UNL     1      -2.797  -9.329  10.876  0.00  0.00    -0.166 F 
ENDBRANCH  28  31
ENDBRANCH  21  25
ENDBRANCH  15  18
BRANCH  13  12
ATOM     10  C   UNL     1      -8.774  -9.817  14.837  0.00  0.00    +0.265 C 
ATOM     11  O   UNL     1      -8.162 -10.360  14.943  0.00  0.00    -0.268 OA
ATOM     12  N   UNL     1      -8.974  -9.567  14.077  0.00  0.00    -0.199 NA
BRANCH  10   7
ATOM      4  C   UNL     1     -10.007  -8.939  16.795  0.00  0.00    +0.048 A 
ATOM      5  C   UNL     1      -9.196  -8.809  16.727  0.00  0.00    +0.015 A 
ATOM      6  C   UNL     1      -8.785  -9.102  16.073  0.00  0.00    +0.006 A 
ATOM      7  C   UNL     1      -9.185  -9.525  15.489  0.00  0.00    +0.055 A 
ATOM      8  C   UNL     1      -9.996  -9.655  15.558  0.00  0.00    +0.006 A 
ATOM      9  C   UNL     1     -10.408  -9.362  16.211  0.00  0.00    +0.015 A 
BRANCH   4   2
ATOM      1  C   UNL     1     -10.719  -7.880  17.435  0.00  0.00    +0.112 C 
ATOM      2  N   UNL     1     -10.418  -8.647  17.448  0.00  0.00    -0.304 N 
ATOM      3  C   UNL     1     -10.528  -9.122  18.112  0.00  0.00    +0.112 C 
ENDBRANCH   4   2
ENDBRANCH  10   7
ENDBRANCH  13  12
TORSDOF 6
ENDMDL
MODEL 6
REMARK VINA RESULT:      -6.7     15.228     17.154
REMARK  Name = 
REMARK  6 active torsions:
REMARK  status: ('A' for Active; 'I' for Inactive)
REMARK    1  A    between atoms: N_2  and  C_4
REMARK    2  A    between atoms: C_7  and  C_10
REMARK    3  A    between atoms: N_12  and  C_13
REMARK    4  A    between atoms: C_15  and  C_18
REMARK    5  A    between atoms: N_21  and  C_25
REMARK    6  A    between atoms: C_28  and  C_31
REMARK                            x       y       z     vdW  Elec       q    Type
REMARK                         _______ _______ _______ _____ _____    ______ ____
ROOT
ATOM     13  C   UNL     1      12.540  -7.357  31.641  0.00  0.00    +0.118 C 
ATOM     14  C   UNL     1      11.845  -7.440  32.078  0.00  0.00    +0.035 C 
ATOM     15  C   UNL     1      11.456  -8.117  31.812  0.00  0.00    +0.048 C 
ATOM     16  C   UNL     1      11.910  -8.452  31.210  0.00  0.00    -0.025 C 
ATOM     17  C   UNL     1      12.581  -7.982  31.105  0.00  0.00    -0.009 C 
ENDROOT
BRANCH  15  18
ATOM     18  C   UNL     1      10.738  -8.407  32.097  0.00  0.00    +0.010 A 
ATOM     19  C   UNL     1       9.992  -8.090  31.945  0.00  0.00    +0.058 A 
ATOM     20  C   UNL     1       9.832  -7.427  31.481  0.00  0.00    +0.052 C 
ATOM     21  N   UNL     1       9.433  -8.554  32.338  0.00  0.00    -0.234 N 
ATOM     22  N   UNL     1       9.834  -9.156  32.733  0.00  0.00    -0.170 NA
ATOM     23  C   UNL     1      10.641  -9.066  32.584  0.00  0.00    +0.077 A 
ATOM     24  C   UNL     1      11.245  -9.550  32.872  0.00  0.00    +0.054 C 
BRANCH  21  25
ATOM     25  C   UNL     1       8.617  -8.434  32.337  0.00  0.00    +0.082 A 
ATOM     26  C   UNL     1       8.141  -8.842  31.800  0.00  0.00    +0.019 A 
ATOM     27  C   UNL     1       7.325  -8.722  31.799  0.00  0.00    +0.005 A 
ATOM     28  C   UNL     1       6.984  -8.196  32.334  0.00  0.00    +0.072 A 
ATOM     29  C   UNL     1       7.460  -7.788  32.871  0.00  0.00    +0.005 A 
ATOM     30  C   UNL     1       8.276  -7.907  32.873  0.00  0.00    +0.019 A 
BRANCH  28  31
ATOM     31  C   UNL     1       6.169  -8.076  32.333  0.00  0.00    +0.419 C 
ATOM     32  F   UNL     1       5.352  -7.957  32.332  0.00  0.00    -0.166 F 
ATOM     33  F   UNL     1       6.273  -7.359  31.941  0.00  0.00    -0.166 F 
ATOM     34  F   UNL     1       6.063  -8.795  32.726  0.00  0.00    -0.166 F 
ENDBRANCH  28  31
ENDBRANCH  21  25
ENDBRANCH  15  18
BRANCH  13  12
ATOM     10  C   UNL     1      13.146  -6.156  31.161  0.00  0.00    +0.265 C 
ATOM     11  O   UNL     1      12.638  -6.161  30.511  0.00  0.00    -0.268 OA
ATOM     12  N   UNL     1      13.096  -6.754  31.726  0.00  0.00    -0.199 NA
BRANCH  10   7
ATOM      4  C   UNL     1      14.816  -4.347  31.415  0.00  0.00    +0.048 A 
ATOM      5  C   UNL     1      14.146  -4.360  31.896  0.00  0.00    +0.015 A 
ATOM      6  C   UNL     1      13.589  -4.964  31.811  0.00  0.00    +0.006 A 
ATOM      7  C   UNL     1      13.702  -5.553  31.245  0.00  0.00    +0.055 A 
ATOM      8  C   UNL     1      14.372  -5.539  30.764  0.00  0.00    +0.006 A 
ATOM      9  C   UNL     1      14.929  -4.936  30.849  0.00  0.00    +0.015 A 
BRANCH   4   2
ATOM      1  C   UNL     1      15.915  -3.596  30.897  0.00  0.00    +0.112 C 
ATOM      2  N   UNL     1      15.372  -3.744  31.499  0.00  0.00    -0.304 N 
ATOM      3  C   UNL     1      15.386  -3.289  32.187  0.00  0.00    +0.112 C 
ENDBRANCH   4   2
ENDBRANCH  10   7
ENDBRANCH  13  12
TORSDOF 6
ENDMDL
MODEL 7
REMARK VINA RESULT:      -6.7     15.156     17.207
REMARK  Name = 
REMARK  6 active torsions:
REMARK  status: ('A' for Active; 'I' for Inactive)
REMARK    1  A    between atoms: N_2  and  C_4
REMARK    2  A    between atoms: C_7  and  C_10
REMARK    3  A    between atoms: N_12  and  C_13
REMARK    4  A    between atoms: C_15  and  C_18
REMARK    5  A    between atoms: N_21  and  C_25
REMARK    6  A    between atoms: C_28  and  C_31
REMARK                            x       y       z     vdW  Elec       q    Type
REMARK                         _______ _______ _______ _____ _____    ______ ____
ROOT
ATOM     13  C   UNL     1      12.613  -7.794  31.608  0.00  0.00    +0.118 C 
ATOM     14  C   UNL     1      11.924  -8.207  31.417  0.00  0.00    +0.035 C 
ATOM     15  C   UNL     1      11.433  -8.202  32.080  0.00  0.00    +0.048 C 
ATOM     16  C   UNL     1      11.818  -7.787  32.680  0.00  0.00    -0.025 C 
ATOM     17  C   UNL     1      12.548  -7.535  32.387  0.00  0.00    -0.009 C 
ENDROOT
BRANCH  15  18
ATOM     18  C   UNL     1      10.688  -8.552  32.133  0.00  0.00    +0.010 A 
ATOM     19  C   UNL     1       9.964  -8.157  32.105  0.00  0.00    +0.058 A 
ATOM     20  C   UNL     1       9.858  -7.344  32.017  0.00  0.00    +0.052 C 
ATOM     21  N   UNL     1       9.364  -8.719  32.178  0.00  0.00    -0.234 N 
ATOM     22  N   UNL     1       9.717  -9.461  32.253  0.00  0.00    -0.170 NA
ATOM     23  C   UNL     1      10.535  -9.358  32.225  0.00  0.00    +0.077 A 
ATOM     24  C   UNL     1      11.102  -9.955  32.279  0.00  0.00    +0.054 C 
BRANCH  21  25
ATOM     25  C   UNL     1       8.553  -8.566  32.178  0.00  0.00    +0.082 A 
ATOM     26  C   UNL     1       8.177  -8.331  32.873  0.00  0.00    +0.019 A 
ATOM     27  C   UNL     1       7.367  -8.178  32.873  0.00  0.00    +0.005 A 
ATOM     28  C   UNL     1       6.932  -8.259  32.176  0.00  0.00    +0.072 A 
ATOM     29  C   UNL     1       7.308  -8.494  31.481  0.00  0.00    +0.005 A 
ATOM     30  C   UNL     1       8.119  -8.648  31.481  0.00  0.00    +0.019 A 
BRANCH  28  31
ATOM     31  C   UNL     1       6.122  -8.106  32.176  0.00  0.00    +0.419 C 
ATOM     32  F   UNL     1       5.311  -7.954  32.175  0.00  0.00    -0.166 F 
ATOM     33  F   UNL     1       6.254  -7.405  31.764  0.00  0.00    -0.166 F 
ATOM     34  F   UNL     1       5.989  -8.809  32.587  0.00  0.00    -0.166 F 
ENDBRANCH  28  31
ENDBRANCH  21  25
ENDBRANCH  15  18
BRANCH  13  12
ATOM     10  C   UNL     1      13.339  -6.938  30.724  0.00  0.00    +0.265 C 
ATOM     11  O   UNL     1      12.782  -6.342  30.845  0.00  0.00    -0.268 OA
ATOM     12  N   UNL     1      13.254  -7.664  31.106  0.00  0.00    -0.199 NA
BRANCH  10   7
ATOM      4  C   UNL     1      15.264  -6.548  29.218  0.00  0.00    +0.048 A 
ATOM      5  C   UNL     1      14.841  -7.254  29.172  0.00  0.00    +0.015 A 
ATOM      6  C   UNL     1      14.199  -7.384  29.675  0.00  0.00    +0.006 A 
ATOM      7  C   UNL     1      13.981  -6.808  30.222  0.00  0.00    +0.055 A 
ATOM      8  C   UNL     1      14.403  -6.102  30.268  0.00  0.00    +0.006 A 
ATOM      9  C   UNL     1      15.046  -5.971  29.765  0.00  0.00    +0.015 A 
BRANCH   4   2
ATOM      1  C   UNL     1      15.857  -6.632  27.921  0.00  0.00    +0.112 C 
ATOM      2  N   UNL     1      15.905  -6.418  28.716  0.00  0.00    -0.304 N 
ATOM      3  C   UNL     1      16.595  -6.074  29.009  0.00  0.00    +0.112 C 
ENDBRANCH   4   2
ENDBRANCH  10   7
ENDBRANCH  13  12
TORSDOF 6
ENDMDL
MODEL 8
REMARK VINA RESULT:      -6.6     14.529     16.270
REMARK  Name = 
REMARK  6 active torsions:
REMARK  status: ('A' for Active; 'I' for Inactive)
REMARK    1  A    between atoms: N_2  and  C_4
REMARK    2  A    between atoms: C_7  and  C_10
REMARK    3  A    between atoms: N_12  and  C_13
REMARK    4  A    between atoms: C_15  and  C_18
REMARK    5  A    between atoms: N_21  and  C_25
REMARK    6  A    between atoms: C_28  and  C_31
REMARK                            x       y       z     vdW  Elec       q    Type
REMARK                         _______ _______ _______ _____ _____    ______ ____
ROOT
ATOM     13  C   UNL     1      -5.347 -10.650  16.860  0.00  0.00    +0.118 C 
ATOM     14  C   UNL     1      -5.007 -10.670  16.108  0.00  0.00    +0.035 C 
ATOM     15  C   UNL     1      -4.188 -10.632  16.199  0.00  0.00    +0.048 C 
ATOM     16  C   UNL     1      -4.023 -10.589  17.006  0.00  0.00    -0.025 C 
ATOM     17  C   UNL     1      -4.740 -10.600  17.414  0.00  0.00    -0.009 C 
ENDROOT
BRANCH  15  18
ATOM     18  C   UNL     1      -3.632 -10.637  15.590  0.00  0.00    +0.010 A 
ATOM     19  C   UNL     1      -3.795 -10.574  14.784  0.00  0.00    +0.058 A 
ATOM     20  C   UNL     1      -4.543 -10.496  14.445  0.00  0.00    +0.052 C 
ATOM     21  N   UNL     1      -3.079 -10.603  14.375  0.00  0.00    -0.234 N 
ATOM     22  N   UNL     1      -2.473 -10.684  14.929  0.00  0.00    -0.170 NA
ATOM     23  C   UNL     1      -2.814 -10.705  15.680  0.00  0.00    +0.077 A 
ATOM     24  C   UNL     1      -2.410 -10.781  16.396  0.00  0.00    +0.054 C 
BRANCH  21  25
ATOM     25  C   UNL     1      -2.985 -10.560  13.557  0.00  0.00    +0.082 A 
ATOM     26  C   UNL     1      -3.625 -10.710  13.059  0.00  0.00    +0.019 A 
ATOM     27  C   UNL     1      -3.531 -10.667  12.241  0.00  0.00    +0.005 A 
ATOM     28  C   UNL     1      -2.797 -10.472  11.920  0.00  0.00    +0.072 A 
ATOM     29  C   UNL     1      -2.156 -10.321  12.417  0.00  0.00    +0.005 A 
ATOM     30  C   UNL     1      -2.250 -10.365  13.236  0.00  0.00    +0.019 A 
BRANCH  28  31
ATOM     31  C   UNL     1      -2.703 -10.428  11.102  0.00  0.00    +0.419 C 
ATOM     32  F   UNL     1      -2.609 -10.384  10.283  0.00  0.00    -0.166 F 
ATOM     33  F   UNL     1      -1.965 -10.076  11.205  0.00  0.00    -0.166 F 
ATOM     34  F   UNL     1      -3.442 -10.780  10.998  0.00  0.00    -0.166 F 
ENDBRANCH  28  31
ENDBRANCH  21  25
ENDBRANCH  15  18
BRANCH  13  12
ATOM     10  C   UNL     1      -6.576  -9.976  17.139  0.00  0.00    +0.265 C 
ATOM     11  O   UNL     1      -6.189  -9.250  17.085  0.00  0.00    -0.268 OA
ATOM     12  N   UNL     1      -6.155 -10.677  17.026  0.00  0.00    -0.199 NA
BRANCH  10   7
ATOM      4  C   UNL     1      -8.999 -10.054  17.639  0.00  0.00    +0.048 A 
ATOM      5  C   UNL     1      -8.735  -9.725  16.931  0.00  0.00    +0.015 A 
ATOM      6  C   UNL     1      -7.926  -9.699  16.764  0.00  0.00    +0.006 A 
ATOM      7  C   UNL     1      -7.384 -10.002  17.306  0.00  0.00    +0.055 A 
ATOM      8  C   UNL     1      -7.648 -10.331  18.014  0.00  0.00    +0.006 A 
ATOM      9  C   UNL     1      -8.456 -10.357  18.181  0.00  0.00    +0.015 A 
BRANCH   4   2
ATOM      1  C   UNL     1     -10.101 -10.643  18.332  0.00  0.00    +0.112 C 
ATOM      2  N   UNL     1      -9.806 -10.080  17.806  0.00  0.00    -0.304 N 
ATOM      3  C   UNL     1     -10.319  -9.544  17.446  0.00  0.00    +0.112 C 
ENDBRANCH   4   2
ENDBRANCH  10   7
ENDBRANCH  13  12
TORSDOF 6
ENDMDL
MODEL 9
REMARK VINA RESULT:      -6.6     17.763     19.485
REMARK  Name = 
REMARK  6 active torsions:
REMARK  status: ('A' for Active; 'I' for Inactive)
REMARK    1  A    between atoms: N_2  and  C_4
REMARK    2  A    between atoms: C_7  and  C_10
REMARK    3  A    between atoms: N_12  and  C_13
REMARK    4  A    between atoms: C_15  and  C_18
REMARK    5  A    between atoms: N_21  and  C_25
REMARK    6  A    between atoms: C_28  and  C_31
REMARK                            x       y       z     vdW  Elec       q    Type
REMARK                         _______ _______ _______ _____ _____    ______ ____
ROOT
ATOM     13  C   UNL     1      13.827  -6.720  30.745  0.00  0.00    +0.118 C 
ATOM     14  C   UNL     1      14.378  -6.222  31.104  0.00  0.00    +0.035 C 
ATOM     15  C   UNL     1      14.805  -5.843  30.508  0.00  0.00    +0.048 C 
ATOM     16  C   UNL     1      14.518  -6.108  29.781  0.00  0.00    -0.025 C 
ATOM     17  C   UNL     1      13.913  -6.650  29.928  0.00  0.00    -0.009 C 
ENDROOT
BRANCH  15  18
ATOM     18  C   UNL     1      15.412  -5.296  30.620  0.00  0.00    +0.010 A 
ATOM     19  C   UNL     1      15.319  -4.506  30.841  0.00  0.00    +0.058 A 
ATOM     20  C   UNL     1      14.603  -4.125  30.989  0.00  0.00    +0.052 C 
ATOM     21  N   UNL     1      16.069  -4.165  30.887  0.00  0.00    -0.234 N 
ATOM     22  N   UNL     1      16.625  -4.743  30.696  0.00  0.00    -0.170 NA
ATOM     23  C   UNL     1      16.219  -5.442  30.530  0.00  0.00    +0.077 A 
ATOM     24  C   UNL     1      16.560  -6.162  30.313  0.00  0.00    +0.054 C 
BRANCH  21  25
ATOM     25  C   UNL     1      16.234  -3.382  31.091  0.00  0.00    +0.082 A 
ATOM     26  C   UNL     1      16.254  -2.800  30.506  0.00  0.00    +0.019 A 
ATOM     27  C   UNL     1      16.418  -2.018  30.710  0.00  0.00    +0.005 A 
ATOM     28  C   UNL     1      16.563  -1.817  31.497  0.00  0.00    +0.072 A 
ATOM     29  C   UNL     1      16.543  -2.399  32.081  0.00  0.00    +0.005 A 
ATOM     30  C   UNL     1      16.378  -3.182  31.878  0.00  0.00    +0.019 A 
BRANCH  28  31
ATOM     31  C   UNL     1      16.727  -1.035  31.700  0.00  0.00    +0.419 C 
ATOM     32  F   UNL     1      16.892  -0.253  31.904  0.00  0.00    -0.166 F 
ATOM     33  F   UNL     1      17.197  -0.958  31.027  0.00  0.00    -0.166 F 
ATOM     34  F   UNL     1      16.257  -1.112  32.374  0.00  0.00    -0.166 F 
ENDBRANCH  28  31
ENDBRANCH  21  25
ENDBRANCH  15  18
BRANCH  13  12
ATOM     10  C   UNL     1      12.477  -7.118  30.993  0.00  0.00    +0.265 C 
ATOM     11  O   UNL     1      12.212  -6.547  30.460  0.00  0.00    -0.268 OA
ATOM     12  N   UNL     1      13.285  -7.204  31.135  0.00  0.00    -0.199 NA
BRANCH  10   7
ATOM      4  C   UNL     1      10.851  -8.570  32.164  0.00  0.00    +0.048 A 
ATOM      5  C   UNL     1      10.778  -7.750  32.209  0.00  0.00    +0.015 A 
ATOM      6  C   UNL     1      11.321  -7.265  31.818  0.00  0.00    +0.006 A 
ATOM      7  C   UNL     1      11.935  -7.602  31.384  0.00  0.00    +0.055 A 
ATOM      8  C   UNL     1      12.008  -8.421  31.339  0.00  0.00    +0.006 A 
ATOM      9  C   UNL     1      11.465  -8.906  31.730  0.00  0.00    +0.015 A 
BRANCH   4   2
ATOM      1  C   UNL     1      10.553  -9.773  32.873  0.00  0.00    +0.112 C 
ATOM      2  N   UNL     1      10.308  -9.053  32.555  0.00  0.00    -0.304 N 
ATOM      3  C   UNL     1       9.522  -8.817  32.626  0.00  0.00    +0.112 C 
ENDBRANCH   4   2
ENDBRANCH  10   7
ENDBRANCH  13  12
TORSDOF 6
ENDMDL
MODEL 10
REMARK VINA RESULT:      -6.4     16.146     18.862
REMARK  Name = 
REMARK  6 active torsions:
REMARK  status: ('A' for Active; 'I' for Inactive)
REMARK    1  A    between atoms: N_2  and  C_4
REMARK    2  A    between atoms: C_7  and  C_10
REMARK    3  A    between atoms: N_12  and  C_13
REMARK    4  A    between atoms: C_15  and  C_18
REMARK    5  A    between atoms: N_21  and  C_25
REMARK    6  A    between atoms: C_28  and  C_31
REMARK                            x       y       z     vdW  Elec       q    Type
REMARK                         _______ _______ _______ _____ _____    ______ ____
ROOT
ATOM     13  C   UNL     1      11.925  -7.432  31.426  0.00  0.00    +0.118 C 
ATOM     14  C   UNL     1      12.370  -6.817  31.748  0.00  0.00    +0.035 C 
ATOM     15  C   UNL     1      13.153  -6.916  31.504  0.00  0.00    +0.048 C 
ATOM     16  C   UNL     1      13.189  -7.591  31.031  0.00  0.00    -0.025 C 
ATOM     17  C   UNL     1      12.430  -7.910  30.983  0.00  0.00    -0.009 C 
ENDROOT
BRANCH  15  18
ATOM     18  C   UNL     1      13.786  -6.425  31.698  0.00  0.00    +0.010 A 
ATOM     19  C   UNL     1      13.972  -5.707  31.338  0.00  0.00    +0.058 A 
ATOM     20  C   UNL     1      13.557  -5.353  30.719  0.00  0.00    +0.052 C 
ATOM     21  N   UNL     1      14.647  -5.404  31.705  0.00  0.00    -0.234 N 
ATOM     22  N   UNL     1      14.877  -5.935  32.292  0.00  0.00    -0.170 NA
ATOM     23  C   UNL     1      14.345  -6.566  32.289  0.00  0.00    +0.077 A 
ATOM     24  C   UNL     1      14.369  -7.223  32.788  0.00  0.00    +0.054 C 
BRANCH  21  25
ATOM     25  C   UNL     1      15.024  -4.694  31.517  0.00  0.00    +0.082 A 
ATOM     26  C   UNL     1      15.592  -4.675  30.919  0.00  0.00    +0.019 A 
ATOM     27  C   UNL     1      15.969  -3.966  30.731  0.00  0.00    +0.005 A 
ATOM     28  C   UNL     1      15.778  -3.276  31.142  0.00  0.00    +0.072 A 
ATOM     29  C   UNL     1      15.211  -3.295  31.740  0.00  0.00    +0.005 A 
ATOM     30  C   UNL     1      14.833  -4.005  31.928  0.00  0.00    +0.019 A 
BRANCH  28  31
ATOM     31  C   UNL     1      16.155  -2.567  30.954  0.00  0.00    +0.419 C 
ATOM     32  F   UNL     1      16.532  -1.857  30.766  0.00  0.00    -0.166 F 
ATOM     33  F   UNL     1      16.641  -2.650  31.615  0.00  0.00    -0.166 F 
ATOM     34  F   UNL     1      15.669  -2.484  30.293  0.00  0.00    -0.166 F 
ENDBRANCH  28  31
ENDBRANCH  21  25
ENDBRANCH  15  18
BRANCH  13  12
ATOM     10  C   UNL     1      10.842  -8.061  32.115  0.00  0.00    +0.265 C 
ATOM     11  O   UNL     1      11.380  -8.457  32.598  0.00  0.00    -0.268 OA
ATOM     12  N   UNL     1      11.114  -7.548  31.529  0.00  0.00    -0.199 NA
BRANCH  10   7
ATOM      4  C   UNL     1       8.411  -8.409  32.424  0.00  0.00    +0.048 A 
ATOM      5  C   UNL     1       8.825  -8.859  31.871  0.00  0.00    +0.015 A 
ATOM      6  C   UNL     1       9.636  -8.743  31.768  0.00  0.00    +0.006 A 
ATOM      7  C   UNL     1      10.031  -8.177  32.218  0.00  0.00    +0.055 A 
ATOM      8  C   UNL     1       9.618  -7.727  32.770  0.00  0.00    +0.006 A 
ATOM      9  C   UNL     1       8.806  -7.843  32.873  0.00  0.00    +0.015 A 
BRANCH   4   2
ATOM      1  C   UNL     1       7.289  -9.288  32.514  0.00  0.00    +0.112 C 
ATOM      2  N   UNL     1       7.601  -8.525  32.527  0.00  0.00    -0.304 N 
ATOM      3  C   UNL     1       7.103  -7.878  32.642  0.00  0.00    +0.112 C 
ENDBRANCH   4   2
ENDBRANCH  10   7
ENDBRANCH  13  12
TORSDOF 6
ENDMDL
