MODEL 1
REMARK VINA RESULT:     -12.6      0.000      0.000
REMARK  Name = 
REMARK  5 active torsions:
REMARK  status: ('A' for Active; 'I' for Inactive)
REMARK    1  A    between atoms: C_3  and  C_4
REMARK    2  A    between atoms: C_4  and  N_5
REMARK    3  A    between atoms: C_9  and  C_22
REMARK    4  A    between atoms: C_11  and  C_12
REMARK    5  A    between atoms: C_12  and  C_13
REMARK                            x       y       z     vdW  Elec       q    Type
REMARK                         _______ _______ _______ _____ _____    ______ ____
ROOT
ATOM      5  N   UNL     1      -2.830   3.084  25.283  0.00  0.00    -0.315 N 
ATOM      6  C   UNL     1      -2.162   2.608  25.374  0.00  0.00    +0.072 A 
ATOM      7  C   UNL     1      -2.361   1.842  25.140  0.00  0.00    -0.002 A 
ATOM      8  C   UNL     1      -1.830   1.211  25.154  0.00  0.00    +0.055 C 
ATOM      9  C   UNL     1      -1.960   0.425  24.935  0.00  0.00    +0.154 C 
ATOM     10  N   UNL     1      -2.652   0.078  24.650  0.00  0.00    -0.207 NA
ATOM     11  C   UNL     1      -3.385   0.430  24.512  0.00  0.00    +0.095 C 
ATOM     16  C   UNL     1      -3.607   1.217  24.625  0.00  0.00    -0.005 A 
ATOM     17  C   UNL     1      -4.429   1.418  24.426  0.00  0.00    -0.003 A 
ATOM     18  C   UNL     1      -4.719   2.185  24.515  0.00  0.00    +0.001 A 
ATOM     19  C   UNL     1      -4.225   2.782  24.799  0.00  0.00    +0.017 A 
ATOM     20  C   UNL     1      -3.442   2.612  24.993  0.00  0.00    +0.060 A 
ATOM     21  C   UNL     1      -3.152   1.845  24.904  0.00  0.00    +0.011 A 
ENDROOT
BRANCH   9  22
ATOM     22  C   UNL     1      -1.312  -0.079  25.013  0.00  0.00    +0.242 C 
ATOM     23  O   UNL     1      -1.244  -0.564  25.676  0.00  0.00    -0.273 OA
ATOM     24  N   UNL     1      -0.731  -0.097  24.428  0.00  0.00    -0.278 N 
ATOM     25  C   UNL     1      -0.082  -0.601  24.505  0.00  0.00    +0.096 C 
ATOM     26  C   UNL     1       0.499  -0.619  23.919  0.00  0.00    +0.054 C 
ATOM     27  C   UNL     1       0.431  -0.133  23.256  0.00  0.00    +0.155 C 
ATOM     28  O   UNL     1       1.012  -0.151  22.671  0.00  0.00    -0.223 OA
ATOM     29  C   UNL     1      -0.218   0.371  23.178  0.00  0.00    +0.054 C 
ATOM     30  C   UNL     1      -0.799   0.389  23.764  0.00  0.00    +0.096 C 
ENDBRANCH   9  22
BRANCH   5   4
ATOM      4  C   UNL     1      -2.878   3.890  25.453  0.00  0.00    +0.183 C 
BRANCH   4   3
ATOM      1  C   UNL     1      -0.957   5.373  24.966  0.00  0.00    +0.090 C 
ATOM      2  C   UNL     1      -1.597   4.878  25.128  0.00  0.00    -0.088 C 
ATOM      3  C   UNL     1      -2.237   4.384  25.291  0.00  0.00    -0.066 C 
ENDBRANCH   4   3
ENDBRANCH   5   4
BRANCH  11  12
ATOM     12  C   UNL     1      -3.974  -0.070  24.222  0.00  0.00    +0.022 C 
BRANCH  12  13
ATOM     13  C   UNL     1      -3.990  -0.863  24.449  0.00  0.00    +0.002 C 
ATOM     14  C   UNL     1      -3.878  -1.456  23.886  0.00  0.00    +0.000 C 
ATOM     15  C   UNL     1      -4.117  -1.063  25.238  0.00  0.00    +0.000 C 
ENDBRANCH  12  13
ENDBRANCH  11  12
TORSDOF 5
ENDMDL
MODEL 2
REMARK VINA RESULT:     -12.3      1.855      3.904
REMARK  Name = 
REMARK  5 active torsions:
REMARK  status: ('A' for Active; 'I' for Inactive)
REMARK    1  A    between atoms: C_3  and  C_4
REMARK    2  A    between atoms: C_4  and  N_5
REMARK    3  A    between atoms: C_9  and  C_22
REMARK    4  A    between atoms: C_11  and  C_12
REMARK    5  A    between atoms: C_12  and  C_13
REMARK                            x       y       z     vdW  Elec       q    Type
REMARK                         _______ _______ _______ _____ _____    ______ ____
ROOT
ATOM      5  N   UNL     1      -4.078  -0.298  24.322  0.00  0.00    -0.315 N 
ATOM      6  C   UNL     1      -3.318  -0.053  24.113  0.00  0.00    +0.072 A 
ATOM      7  C   UNL     1      -3.250   0.749  24.291  0.00  0.00    -0.002 A 
ATOM      8  C   UNL     1      -2.564   1.187  24.157  0.00  0.00    +0.055 C 
ATOM      9  C   UNL     1      -2.427   1.987  24.309  0.00  0.00    +0.154 C 
ATOM     10  N   UNL     1      -2.943   2.545  24.632  0.00  0.00    -0.207 NA
ATOM     11  C   UNL     1      -3.722   2.442  24.883  0.00  0.00    +0.095 C 
ATOM     16  C   UNL     1      -4.178   1.754  24.873  0.00  0.00    -0.005 A 
ATOM     17  C   UNL     1      -4.989   1.824  25.178  0.00  0.00    -0.003 A 
ATOM     18  C   UNL     1      -5.500   1.178  25.198  0.00  0.00    +0.001 A 
ATOM     19  C   UNL     1      -5.246   0.443  24.923  0.00  0.00    +0.017 A 
ATOM     20  C   UNL     1      -4.480   0.354  24.629  0.00  0.00    +0.060 A 
ATOM     21  C   UNL     1      -3.969   1.002  24.609  0.00  0.00    +0.011 A 
ENDROOT
BRANCH   9  22
ATOM     22  C   UNL     1      -1.677   2.265  24.111  0.00  0.00    +0.242 C 
ATOM     23  O   UNL     1      -1.515   2.507  23.340  0.00  0.00    -0.273 OA
ATOM     24  N   UNL     1      -1.086   2.300  24.687  0.00  0.00    -0.278 N 
ATOM     25  C   UNL     1      -0.334   2.578  24.490  0.00  0.00    +0.096 C 
ATOM     26  C   UNL     1       0.257   2.613  25.065  0.00  0.00    +0.054 C 
ATOM     27  C   UNL     1       0.095   2.371  25.837  0.00  0.00    +0.155 C 
ATOM     28  O   UNL     1       0.686   2.406  26.412  0.00  0.00    -0.223 OA
ATOM     29  C   UNL     1      -0.656   2.093  26.034  0.00  0.00    +0.054 C 
ATOM     30  C   UNL     1      -1.247   2.058  25.459  0.00  0.00    +0.096 C 
ENDBRANCH   9  22
BRANCH   5   4
ATOM      4  C   UNL     1      -4.383  -1.060  24.239  0.00  0.00    +0.183 C 
BRANCH   4   3
ATOM      1  C   UNL     1      -2.940  -3.023  24.674  0.00  0.00    +0.090 C 
ATOM      2  C   UNL     1      -3.421  -2.369  24.529  0.00  0.00    -0.088 C 
ATOM      3  C   UNL     1      -3.901  -1.714  24.384  0.00  0.00    -0.066 C 
ENDBRANCH   4   3
ENDBRANCH   5   4
BRANCH  11  12
ATOM     12  C   UNL     1      -4.093   3.114  25.184  0.00  0.00    +0.022 C 
BRANCH  12  13
ATOM     13  C   UNL     1      -3.933   3.855  24.858  0.00  0.00    +0.002 C 
ATOM     14  C   UNL     1      -3.512   4.415  25.295  0.00  0.00    +0.000 C 
ATOM     15  C   UNL     1      -4.192   4.036  24.097  0.00  0.00    +0.000 C 
ENDBRANCH  12  13
ENDBRANCH  11  12
TORSDOF 5
ENDMDL
MODEL 3
REMARK VINA RESULT:     -11.9      1.927      4.950
REMARK  Name = 
REMARK  5 active torsions:
REMARK  status: ('A' for Active; 'I' for Inactive)
REMARK    1  A    between atoms: C_3  and  C_4
REMARK    2  A    between atoms: C_4  and  N_5
REMARK    3  A    between atoms: C_9  and  C_22
REMARK    4  A    between atoms: C_11  and  C_12
REMARK    5  A    between atoms: C_12  and  C_13
REMARK                            x       y       z     vdW  Elec       q    Type
REMARK                         _______ _______ _______ _____ _____    ______ ____
ROOT
ATOM      5  N   UNL     1      -0.948   0.613  24.628  0.00  0.00    -0.315 N 
ATOM      6  C   UNL     1      -1.698   0.741  24.307  0.00  0.00    +0.072 A 
ATOM      7  C   UNL     1      -1.952   1.489  24.543  0.00  0.00    -0.002 A 
ATOM      8  C   UNL     1      -2.680   1.810  24.327  0.00  0.00    +0.055 C 
ATOM      9  C   UNL     1      -2.997   2.547  24.526  0.00  0.00    +0.154 C 
ATOM     10  N   UNL     1      -2.662   3.143  24.988  0.00  0.00    -0.207 NA
ATOM     11  C   UNL     1      -1.929   3.150  25.366  0.00  0.00    +0.095 C 
ATOM     16  C   UNL     1      -1.349   2.563  25.376  0.00  0.00    -0.005 A 
ATOM     17  C   UNL     1      -0.629   2.739  25.829  0.00  0.00    -0.003 A 
ATOM     18  C   UNL     1      -0.009   2.198  25.882  0.00  0.00    +0.001 A 
ATOM     19  C   UNL     1      -0.064   1.469  25.498  0.00  0.00    +0.017 A 
ATOM     20  C   UNL     1      -0.739   1.283  25.062  0.00  0.00    +0.060 A 
ATOM     21  C   UNL     1      -1.359   1.825  25.009  0.00  0.00    +0.011 A 
ENDROOT
BRANCH   9  22
ATOM     22  C   UNL     1      -3.746   2.707  24.221  0.00  0.00    +0.242 C 
ATOM     23  O   UNL     1      -3.824   3.123  23.513  0.00  0.00    -0.273 OA
ATOM     24  N   UNL     1      -4.418   2.452  24.625  0.00  0.00    -0.278 N 
ATOM     25  C   UNL     1      -5.169   2.612  24.321  0.00  0.00    +0.096 C 
ATOM     26  C   UNL     1      -5.841   2.356  24.725  0.00  0.00    +0.054 C 
ATOM     27  C   UNL     1      -5.763   1.941  25.433  0.00  0.00    +0.155 C 
ATOM     28  O   UNL     1      -6.436   1.685  25.837  0.00  0.00    -0.223 OA
ATOM     29  C   UNL     1      -5.013   1.780  25.738  0.00  0.00    +0.054 C 
ATOM     30  C   UNL     1      -4.341   2.036  25.334  0.00  0.00    +0.096 C 
ENDBRANCH   9  22
BRANCH   5   4
ATOM      4  C   UNL     1      -0.488  -0.066  24.531  0.00  0.00    +0.183 C 
BRANCH   4   3
ATOM      1  C   UNL     1      -1.550  -2.300  24.603  0.00  0.00    +0.090 C 
ATOM      2  C   UNL     1      -1.196  -1.555  24.579  0.00  0.00    -0.088 C 
ATOM      3  C   UNL     1      -0.843  -0.810  24.555  0.00  0.00    -0.066 C 
ENDBRANCH   4   3
ENDBRANCH   5   4
BRANCH  11  12
ATOM     12  C   UNL     1      -1.752   3.835  25.791  0.00  0.00    +0.022 C 
BRANCH  12  13
ATOM     13  C   UNL     1      -1.925   4.576  25.471  0.00  0.00    +0.002 C 
ATOM     14  C   UNL     1      -2.588   4.993  25.733  0.00  0.00    +0.000 C 
ATOM     15  C   UNL     1      -1.438   4.898  24.890  0.00  0.00    +0.000 C 
ENDBRANCH  12  13
ENDBRANCH  11  12
TORSDOF 5
ENDMDL
MODEL 4
REMARK VINA RESULT:     -11.8      1.869      4.986
REMARK  Name = 
REMARK  5 active torsions:
REMARK  status: ('A' for Active; 'I' for Inactive)
REMARK    1  A    between atoms: C_3  and  C_4
REMARK    2  A    between atoms: C_4  and  N_5
REMARK    3  A    between atoms: C_9  and  C_22
REMARK    4  A    between atoms: C_11  and  C_12
REMARK    5  A    between atoms: C_12  and  C_13
REMARK                            x       y       z     vdW  Elec       q    Type
REMARK                         _______ _______ _______ _____ _____    ______ ____
ROOT
ATOM      5  N   UNL     1      -2.870  -0.952  25.123  0.00  0.00    -0.315 N 
ATOM      6  C   UNL     1      -3.321  -0.368  24.754  0.00  0.00    +0.072 A 
ATOM      7  C   UNL     1      -2.901   0.341  24.792  0.00  0.00    -0.002 A 
ATOM      8  C   UNL     1      -3.181   1.052  24.479  0.00  0.00    +0.055 C 
ATOM      9  C   UNL     1      -2.817   1.793  24.481  0.00  0.00    +0.154 C 
ATOM     10  N   UNL     1      -2.085   2.006  24.797  0.00  0.00    -0.207 NA
ATOM     11  C   UNL     1      -1.536   1.530  25.189  0.00  0.00    +0.095 C 
ATOM     16  C   UNL     1      -1.583   0.725  25.362  0.00  0.00    -0.005 A 
ATOM     17  C   UNL     1      -0.907   0.380  25.785  0.00  0.00    -0.003 A 
ATOM     18  C   UNL     1      -0.887  -0.418  25.990  0.00  0.00    +0.001 A 
ATOM     19  C   UNL     1      -1.520  -0.910  25.792  0.00  0.00    +0.017 A 
ATOM     20  C   UNL     1      -2.171  -0.604  25.389  0.00  0.00    +0.060 A 
ATOM     21  C   UNL     1      -2.190   0.196  25.185  0.00  0.00    +0.011 A 
ENDROOT
BRANCH   9  22
ATOM     22  C   UNL     1      -3.241   2.400  24.120  0.00  0.00    +0.242 C 
ATOM     23  O   UNL     1      -3.091   2.598  23.333  0.00  0.00    -0.273 OA
ATOM     24  N   UNL     1      -3.817   2.810  24.545  0.00  0.00    -0.278 N 
ATOM     25  C   UNL     1      -4.243   3.418  24.184  0.00  0.00    +0.096 C 
ATOM     26  C   UNL     1      -4.819   3.828  24.610  0.00  0.00    +0.054 C 
ATOM     27  C   UNL     1      -4.969   3.630  25.396  0.00  0.00    +0.155 C 
ATOM     28  O   UNL     1      -5.545   4.040  25.821  0.00  0.00    -0.223 OA
ATOM     29  C   UNL     1      -4.544   3.022  25.758  0.00  0.00    +0.054 C 
ATOM     30  C   UNL     1      -3.968   2.612  25.332  0.00  0.00    +0.096 C 
ENDBRANCH   9  22
BRANCH   5   4
ATOM      4  C   UNL     1      -3.080  -1.745  25.210  0.00  0.00    +0.183 C 
BRANCH   4   3
ATOM      1  C   UNL     1      -4.474  -2.851  23.490  0.00  0.00    +0.090 C 
ATOM      2  C   UNL     1      -4.010  -2.482  24.063  0.00  0.00    -0.088 C 
ATOM      3  C   UNL     1      -3.545  -2.113  24.637  0.00  0.00    -0.066 C 
ENDBRANCH   4   3
ENDBRANCH   5   4
BRANCH  11  12
ATOM     12  C   UNL     1      -0.849   1.911  25.442  0.00  0.00    +0.022 C 
BRANCH  12  13
ATOM     13  C   UNL     1      -0.551   2.551  25.015  0.00  0.00    +0.002 C 
ATOM     14  C   UNL     1      -0.642   3.319  25.305  0.00  0.00    +0.000 C 
ATOM     15  C   UNL     1      -0.162   2.425  24.299  0.00  0.00    +0.000 C 
ENDBRANCH  12  13
ENDBRANCH  11  12
TORSDOF 5
ENDMDL
MODEL 5
REMARK VINA RESULT:     -11.8      1.985      2.993
REMARK  Name = 
REMARK  5 active torsions:
REMARK  status: ('A' for Active; 'I' for Inactive)
REMARK    1  A    between atoms: C_3  and  C_4
REMARK    2  A    between atoms: C_4  and  N_5
REMARK    3  A    between atoms: C_9  and  C_22
REMARK    4  A    between atoms: C_11  and  C_12
REMARK    5  A    between atoms: C_12  and  C_13
REMARK                            x       y       z     vdW  Elec       q    Type
REMARK                         _______ _______ _______ _____ _____    ______ ____
ROOT
ATOM      5  N   UNL     1      -1.819   2.978  25.138  0.00  0.00    -0.315 N 
ATOM      6  C   UNL     1      -1.874   2.226  24.803  0.00  0.00    +0.072 A 
ATOM      7  C   UNL     1      -2.673   2.039  24.722  0.00  0.00    -0.002 A 
ATOM      8  C   UNL     1      -2.944   1.327  24.406  0.00  0.00    +0.055 C 
ATOM      9  C   UNL     1      -3.723   1.076  24.296  0.00  0.00    +0.154 C 
ATOM     10  N   UNL     1      -4.422   1.476  24.477  0.00  0.00    -0.207 NA
ATOM     11  C   UNL     1      -4.515   2.224  24.811  0.00  0.00    +0.095 C 
ATOM     16  C   UNL     1      -3.933   2.759  25.047  0.00  0.00    -0.005 A 
ATOM     17  C   UNL     1      -4.211   3.510  25.383  0.00  0.00    -0.003 A 
ATOM     18  C   UNL     1      -3.684   4.090  25.640  0.00  0.00    +0.001 A 
ATOM     19  C   UNL     1      -2.871   3.963  25.581  0.00  0.00    +0.017 A 
ATOM     20  C   UNL     1      -2.585   3.256  25.265  0.00  0.00    +0.060 A 
ATOM     21  C   UNL     1      -3.113   2.676  25.008  0.00  0.00    +0.011 A 
ENDROOT
BRANCH   9  22
ATOM     22  C   UNL     1      -3.813   0.328  23.963  0.00  0.00    +0.242 C 
ATOM     23  O   UNL     1      -3.993   0.252  23.162  0.00  0.00    -0.273 OA
ATOM     24  N   UNL     1      -3.723  -0.345  24.431  0.00  0.00    -0.278 N 
ATOM     25  C   UNL     1      -3.814  -1.095  24.098  0.00  0.00    +0.096 C 
ATOM     26  C   UNL     1      -3.724  -1.769  24.566  0.00  0.00    +0.054 C 
ATOM     27  C   UNL     1      -3.544  -1.692  25.368  0.00  0.00    +0.155 C 
ATOM     28  O   UNL     1      -3.454  -2.366  25.836  0.00  0.00    -0.223 OA
ATOM     29  C   UNL     1      -3.453  -0.943  25.701  0.00  0.00    +0.054 C 
ATOM     30  C   UNL     1      -3.543  -0.270  25.233  0.00  0.00    +0.096 C 
ENDBRANCH   9  22
BRANCH   5   4
ATOM      4  C   UNL     1      -1.121   3.381  25.316  0.00  0.00    +0.183 C 
BRANCH   4   3
ATOM      1  C   UNL     1       0.545   2.360  26.834  0.00  0.00    +0.090 C 
ATOM      2  C   UNL     1      -0.011   2.700  26.328  0.00  0.00    -0.088 C 
ATOM      3  C   UNL     1      -0.566   3.040  25.822  0.00  0.00    -0.066 C 
ENDBRANCH   4   3
ENDBRANCH   5   4
BRANCH  11  12
ATOM     12  C   UNL     1      -5.295   2.471  24.924  0.00  0.00    +0.022 C 
BRANCH  12  13
ATOM     13  C   UNL     1      -5.859   1.941  25.209  0.00  0.00    +0.002 C 
ATOM     14  C   UNL     1      -6.406   1.602  24.691  0.00  0.00    +0.000 C 
ATOM     15  C   UNL     1      -5.876   1.748  26.010  0.00  0.00    +0.000 C 
ENDBRANCH  12  13
ENDBRANCH  11  12
TORSDOF 5
ENDMDL
MODEL 6
REMARK VINA RESULT:     -11.5      1.706      2.923
REMARK  Name = 
REMARK  5 active torsions:
REMARK  status: ('A' for Active; 'I' for Inactive)
REMARK    1  A    between atoms: C_3  and  C_4
REMARK    2  A    between atoms: C_4  and  N_5
REMARK    3  A    between atoms: C_9  and  C_22
REMARK    4  A    between atoms: C_11  and  C_12
REMARK    5  A    between atoms: C_12  and  C_13
REMARK                            x       y       z     vdW  Elec       q    Type
REMARK                         _______ _______ _______ _____ _____    ______ ____
ROOT
ATOM      5  N   UNL     1      -4.421   1.078  24.682  0.00  0.00    -0.315 N 
ATOM      6  C   UNL     1      -3.738   1.490  24.470  0.00  0.00    +0.072 A 
ATOM      7  C   UNL     1      -3.094   0.983  24.567  0.00  0.00    -0.002 A 
ATOM      8  C   UNL     1      -2.315   1.204  24.408  0.00  0.00    +0.055 C 
ATOM      9  C   UNL     1      -1.628   0.752  24.482  0.00  0.00    +0.154 C 
ATOM     10  N   UNL     1      -1.551  -0.031  24.733  0.00  0.00    -0.207 NA
ATOM     11  C   UNL     1      -2.142  -0.555  24.972  0.00  0.00    +0.095 C 
ATOM     16  C   UNL     1      -2.956  -0.426  25.019  0.00  0.00    -0.005 A 
ATOM     17  C   UNL     1      -3.437  -1.095  25.294  0.00  0.00    -0.003 A 
ATOM     18  C   UNL     1      -4.256  -1.036  25.365  0.00  0.00    +0.001 A 
ATOM     19  C   UNL     1      -4.637  -0.330  25.173  0.00  0.00    +0.017 A 
ATOM     20  C   UNL     1      -4.199   0.317  24.910  0.00  0.00    +0.060 A 
ATOM     21  C   UNL     1      -3.379   0.258  24.839  0.00  0.00    +0.011 A 
ENDROOT
BRANCH   9  22
ATOM     22  C   UNL     1      -0.926   1.133  24.278  0.00  0.00    +0.242 C 
ATOM     23  O   UNL     1      -0.626   1.064  23.513  0.00  0.00    -0.273 OA
ATOM     24  N   UNL     1      -0.524   1.585  24.840  0.00  0.00    -0.278 N 
ATOM     25  C   UNL     1       0.178   1.967  24.636  0.00  0.00    +0.096 C 
ATOM     26  C   UNL     1       0.580   2.419  25.198  0.00  0.00    +0.054 C 
ATOM     27  C   UNL     1       0.280   2.488  25.963  0.00  0.00    +0.155 C 
ATOM     28  O   UNL     1       0.682   2.939  26.524  0.00  0.00    -0.223 OA
ATOM     29  C   UNL     1      -0.423   2.106  26.167  0.00  0.00    +0.054 C 
ATOM     30  C   UNL     1      -0.825   1.654  25.605  0.00  0.00    +0.096 C 
ENDBRANCH   9  22
BRANCH   5   4
ATOM      4  C   UNL     1      -5.190   1.376  24.668  0.00  0.00    +0.183 C 
BRANCH   4   3
ATOM      1  C   UNL     1      -5.671   3.607  25.625  0.00  0.00    +0.090 C 
ATOM      2  C   UNL     1      -5.511   2.863  25.306  0.00  0.00    -0.088 C 
ATOM      3  C   UNL     1      -5.350   2.120  24.987  0.00  0.00    -0.066 C 
ENDBRANCH   4   3
ENDBRANCH   5   4
BRANCH  11  12
ATOM     12  C   UNL     1      -1.885  -1.307  25.193  0.00  0.00    +0.022 C 
BRANCH  12  13
ATOM     13  C   UNL     1      -1.230  -1.645  24.822  0.00  0.00    +0.002 C 
ATOM     14  C   UNL     1      -0.502  -1.670  25.211  0.00  0.00    +0.000 C 
ATOM     15  C   UNL     1      -1.303  -1.959  24.063  0.00  0.00    +0.000 C 
ENDBRANCH  12  13
ENDBRANCH  11  12
TORSDOF 5
ENDMDL
MODEL 7
REMARK VINA RESULT:     -11.3      1.662      4.052
REMARK  Name = 
REMARK  5 active torsions:
REMARK  status: ('A' for Active; 'I' for Inactive)
REMARK    1  A    between atoms: C_3  and  C_4
REMARK    2  A    between atoms: C_4  and  N_5
REMARK    3  A    between atoms: C_9  and  C_22
REMARK    4  A    between atoms: C_11  and  C_12
REMARK    5  A    between atoms: C_12  and  C_13
REMARK                            x       y       z     vdW  Elec       q    Type
REMARK                         _______ _______ _______ _____ _____    ______ ____
ROOT
ATOM      5  N   UNL     1      -1.861  -0.347  24.515  0.00  0.00    -0.315 N 
ATOM      6  C   UNL     1      -1.819   0.430  24.240  0.00  0.00    +0.072 A 
ATOM      7  C   UNL     1      -2.541   0.797  24.399  0.00  0.00    -0.002 A 
ATOM      8  C   UNL     1      -2.705   1.581  24.202  0.00  0.00    +0.055 C 
ATOM      9  C   UNL     1      -3.400   2.008  24.331  0.00  0.00    +0.154 C 
ATOM     10  N   UNL     1      -4.100   1.757  24.687  0.00  0.00    -0.207 NA
ATOM     11  C   UNL     1      -4.279   1.016  25.003  0.00  0.00    +0.095 C 
ATOM     16  C   UNL     1      -3.803   0.344  25.042  0.00  0.00    -0.005 A 
ATOM     17  C   UNL     1      -4.155  -0.359  25.412  0.00  0.00    -0.003 A 
ATOM     18  C   UNL     1      -3.735  -1.065  25.484  0.00  0.00    +0.001 A 
ATOM     19  C   UNL     1      -2.962  -1.116  25.200  0.00  0.00    +0.017 A 
ATOM     20  C   UNL     1      -2.609  -0.461  24.844  0.00  0.00    +0.060 A 
ATOM     21  C   UNL     1      -3.029   0.246  24.773  0.00  0.00    +0.011 A 
ENDROOT
BRANCH   9  22
ATOM     22  C   UNL     1      -3.391   2.789  24.068  0.00  0.00    +0.242 C 
ATOM     23  O   UNL     1      -3.786   2.995  23.373  0.00  0.00    -0.273 OA
ATOM     24  N   UNL     1      -2.989   3.366  24.499  0.00  0.00    -0.278 N 
ATOM     25  C   UNL     1      -2.980   4.148  24.237  0.00  0.00    +0.096 C 
ATOM     26  C   UNL     1      -2.577   4.724  24.669  0.00  0.00    +0.054 C 
ATOM     27  C   UNL     1      -2.183   4.518  25.363  0.00  0.00    +0.155 C 
ATOM     28  O   UNL     1      -1.780   5.094  25.795  0.00  0.00    -0.223 OA
ATOM     29  C   UNL     1      -2.191   3.736  25.626  0.00  0.00    +0.054 C 
ATOM     30  C   UNL     1      -2.594   3.160  25.195  0.00  0.00    +0.096 C 
ENDBRANCH   9  22
BRANCH   5   4
ATOM      4  C   UNL     1      -1.261  -0.911  24.469  0.00  0.00    +0.183 C 
BRANCH   4   3
ATOM      1  C   UNL     1       0.866  -0.364  23.327  0.00  0.00    +0.090 C 
ATOM      2  C   UNL     1       0.157  -0.546  23.708  0.00  0.00    -0.088 C 
ATOM      3  C   UNL     1      -0.552  -0.728  24.088  0.00  0.00    -0.066 C 
ENDBRANCH   4   3
ENDBRANCH   5   4
BRANCH  11  12
ATOM     12  C   UNL     1      -5.036   0.938  25.324  0.00  0.00    +0.022 C 
BRANCH  12  13
ATOM     13  C   UNL     1      -5.563   1.572  25.298  0.00  0.00    +0.002 C 
ATOM     14  C   UNL     1      -5.615   2.092  25.938  0.00  0.00    +0.000 C 
ATOM     15  C   UNL     1      -6.037   1.687  24.634  0.00  0.00    +0.000 C 
ENDBRANCH  12  13
ENDBRANCH  11  12
TORSDOF 5
ENDMDL
MODEL 8
REMARK VINA RESULT:     -10.9      1.486      3.355
REMARK  Name = 
REMARK  5 active torsions:
REMARK  status: ('A' for Active; 'I' for Inactive)
REMARK    1  A    between atoms: C_3  and  C_4
REMARK    2  A    between atoms: C_4  and  N_5
REMARK    3  A    between atoms: C_9  and  C_22
REMARK    4  A    between atoms: C_11  and  C_12
REMARK    5  A    between atoms: C_12  and  C_13
REMARK                            x       y       z     vdW  Elec       q    Type
REMARK                         _______ _______ _______ _____ _____    ______ ____
ROOT
ATOM      5  N   UNL     1      -4.109   2.809  24.702  0.00  0.00    -0.315 N 
ATOM      6  C   UNL     1      -3.720   2.191  24.319  0.00  0.00    +0.072 A 
ATOM      7  C   UNL     1      -2.936   2.185  24.575  0.00  0.00    -0.002 A 
ATOM      8  C   UNL     1      -2.376   1.640  24.309  0.00  0.00    +0.055 C 
ATOM      9  C   UNL     1      -1.580   1.577  24.521  0.00  0.00    +0.154 C 
ATOM     10  N   UNL     1      -1.150   2.041  25.050  0.00  0.00    -0.207 NA
ATOM     11  C   UNL     1      -1.408   2.684  25.498  0.00  0.00    +0.095 C 
ATOM     16  C   UNL     1      -2.161   3.022  25.527  0.00  0.00    -0.005 A 
ATOM     17  C   UNL     1      -2.258   3.702  26.059  0.00  0.00    -0.003 A 
ATOM     18  C   UNL     1      -2.983   4.088  26.138  0.00  0.00    +0.001 A 
ATOM     19  C   UNL     1      -3.637   3.829  25.706  0.00  0.00    +0.017 A 
ATOM     20  C   UNL     1      -3.566   3.186  25.195  0.00  0.00    +0.060 A 
ATOM     21  C   UNL     1      -2.840   2.800  25.117  0.00  0.00    +0.011 A 
ENDROOT
BRANCH   9  22
ATOM     22  C   UNL     1      -1.161   0.968  24.156  0.00  0.00    +0.242 C 
ATOM     23  O   UNL     1      -0.786   1.101  23.434  0.00  0.00    -0.273 OA
ATOM     24  N   UNL     1      -1.118   0.225  24.513  0.00  0.00    -0.278 N 
ATOM     25  C   UNL     1      -0.699  -0.385  24.148  0.00  0.00    +0.096 C 
ATOM     26  C   UNL     1      -0.655  -1.127  24.505  0.00  0.00    +0.054 C 
ATOM     27  C   UNL     1      -1.031  -1.260  25.227  0.00  0.00    +0.155 C 
ATOM     28  O   UNL     1      -0.987  -2.003  25.584  0.00  0.00    -0.223 OA
ATOM     29  C   UNL     1      -1.450  -0.651  25.593  0.00  0.00    +0.054 C 
ATOM     30  C   UNL     1      -1.494   0.092  25.236  0.00  0.00    +0.096 C 
ENDBRANCH   9  22
BRANCH   5   4
ATOM      4  C   UNL     1      -4.903   3.015  24.609  0.00  0.00    +0.183 C 
BRANCH   4   3
ATOM      1  C   UNL     1      -6.675   1.361  25.105  0.00  0.00    +0.090 C 
ATOM      2  C   UNL     1      -6.085   1.912  24.940  0.00  0.00    -0.088 C 
ATOM      3  C   UNL     1      -5.494   2.463  24.774  0.00  0.00    -0.066 C 
ENDBRANCH   4   3
ENDBRANCH   5   4
BRANCH  11  12
ATOM     12  C   UNL     1      -0.839   3.037  25.980  0.00  0.00    +0.022 C 
BRANCH  12  13
ATOM     13  C   UNL     1      -0.050   3.058  25.739  0.00  0.00    +0.002 C 
ATOM     14  C   UNL     1       0.513   2.595  26.128  0.00  0.00    +0.000 C 
ATOM     15  C   UNL     1       0.177   3.540  25.110  0.00  0.00    +0.000 C 
ENDBRANCH  12  13
ENDBRANCH  11  12
TORSDOF 5
ENDMDL
MODEL 9
REMARK VINA RESULT:     -10.7      1.598      3.274
REMARK  Name = 
REMARK  5 active torsions:
REMARK  status: ('A' for Active; 'I' for Inactive)
REMARK    1  A    between atoms: C_3  and  C_4
REMARK    2  A    between atoms: C_4  and  N_5
REMARK    3  A    between atoms: C_9  and  C_22
REMARK    4  A    between atoms: C_11  and  C_12
REMARK    5  A    between atoms: C_12  and  C_13
REMARK                            x       y       z     vdW  Elec       q    Type
REMARK                         _______ _______ _______ _____ _____    ______ ____
ROOT
ATOM      5  N   UNL     1      -4.299   2.106  24.629  0.00  0.00    -0.315 N 
ATOM      6  C   UNL     1      -4.245   1.374  25.006  0.00  0.00    +0.072 A 
ATOM      7  C   UNL     1      -3.524   1.031  24.798  0.00  0.00    -0.002 A 
ATOM      8  C   UNL     1      -3.277   0.293  25.070  0.00  0.00    +0.055 C 
ATOM      9  C   UNL     1      -2.574  -0.108  24.903  0.00  0.00    +0.154 C 
ATOM     10  N   UNL     1      -1.947   0.132  24.423  0.00  0.00    -0.207 NA
ATOM     11  C   UNL     1      -1.868   0.830  23.991  0.00  0.00    +0.095 C 
ATOM     16  C   UNL     1      -2.395   1.462  23.932  0.00  0.00    -0.005 A 
ATOM     17  C   UNL     1      -2.149   2.125  23.428  0.00  0.00    -0.003 A 
ATOM     18  C   UNL     1      -2.627   2.788  23.324  0.00  0.00    +0.001 A 
ATOM     19  C   UNL     1      -3.358   2.834  23.704  0.00  0.00    +0.017 A 
ATOM     20  C   UNL     1      -3.611   2.215  24.187  0.00  0.00    +0.060 A 
ATOM     21  C   UNL     1      -3.132   1.551  24.291  0.00  0.00    +0.011 A 
ENDROOT
BRANCH   9  22
ATOM     22  C   UNL     1      -2.489  -0.844  25.265  0.00  0.00    +0.242 C 
ATOM     23  O   UNL     1      -2.018  -0.921  25.937  0.00  0.00    -0.273 OA
ATOM     24  N   UNL     1      -2.874  -1.503  24.953  0.00  0.00    -0.278 N 
ATOM     25  C   UNL     1      -2.789  -2.240  25.314  0.00  0.00    +0.096 C 
ATOM     26  C   UNL     1      -3.175  -2.900  25.003  0.00  0.00    +0.054 C 
ATOM     27  C   UNL     1      -3.645  -2.822  24.330  0.00  0.00    +0.155 C 
ATOM     28  O   UNL     1      -4.031  -3.482  24.019  0.00  0.00    -0.223 OA
ATOM     29  C   UNL     1      -3.731  -2.086  23.968  0.00  0.00    +0.054 C 
ATOM     30  C   UNL     1      -3.346  -1.426  24.280  0.00  0.00    +0.096 C 
ENDBRANCH   9  22
BRANCH   5   4
ATOM      4  C   UNL     1      -4.929   2.635  24.685  0.00  0.00    +0.183 C 
BRANCH   4   3
ATOM      1  C   UNL     1      -6.603   2.377  26.489  0.00  0.00    +0.090 C 
ATOM      2  C   UNL     1      -6.046   2.463  25.887  0.00  0.00    -0.088 C 
ATOM      3  C   UNL     1      -5.488   2.549  25.286  0.00  0.00    -0.066 C 
ENDBRANCH   4   3
ENDBRANCH   5   4
BRANCH  11  12
ATOM     12  C   UNL     1      -1.168   0.907  23.561  0.00  0.00    +0.022 C 
BRANCH  12  13
ATOM     13  C   UNL     1      -0.450   0.677  23.896  0.00  0.00    +0.002 C 
ATOM     14  C   UNL     1      -0.066  -0.002  23.626  0.00  0.00    +0.000 C 
ATOM     15  C   UNL     1      -0.115   1.126  24.501  0.00  0.00    +0.000 C 
ENDBRANCH  12  13
ENDBRANCH  11  12
TORSDOF 5
ENDMDL
