MODEL 1
REMARK VINA RESULT:     -10.0      0.000      0.000
REMARK  Name = 
REMARK  6 active torsions:
REMARK  status: ('A' for Active; 'I' for Inactive)
REMARK    1  A    between atoms: N_2  and  C_4
REMARK    2  A    between atoms: C_7  and  C_10
REMARK    3  A    between atoms: C_15  and  C_17
REMARK    4  A    between atoms: C_24  and  C_25
REMARK    5  A    between atoms: C_25  and  N_26
REMARK    6  A    between atoms: C_27  and  C_29
REMARK                            x       y       z     vdW  Elec       q    Type
REMARK                         _______ _______ _______ _____ _____    ______ ____
ROOT
ATOM     10  C   UNL     1      -2.471   3.484  24.921  0.00  0.00    +0.084 A 
ATOM     11  N   UNL     1      -2.228   4.260  25.060  0.00  0.00    -0.231 NA
ATOM     12  C   UNL     1      -1.437   4.470  24.953  0.00  0.00    +0.139 A 
ATOM     13  C   UNL     1      -1.193   5.246  25.092  0.00  0.00    +0.074 C 
ATOM     14  N   UNL     1      -0.890   3.903  24.707  0.00  0.00    -0.235 NA
ATOM     15  C   UNL     1      -1.134   3.127  24.568  0.00  0.00    +0.063 A 
ATOM     16  C   UNL     1      -1.924   2.918  24.675  0.00  0.00    +0.034 A 
ENDROOT
BRANCH  15  17
ATOM     17  C   UNL     1      -0.586   2.560  24.322  0.00  0.00    +0.056 C 
ATOM     18  C   UNL     1      -0.585   2.371  23.567  0.00  0.00    +0.078 C 
ATOM     19  N   UNL     1      -0.090   2.058  24.149  0.00  0.00    -0.272 NA
ATOM     20  C   UNL     1      -0.346   2.520  25.054  0.00  0.00    +0.072 C 
ATOM     21  C   UNL     1      -0.258   2.599  25.697  0.00  0.00    +0.018 C 
ATOM     22  C   UNL     1      -0.097   2.249  24.887  0.00  0.00    +0.010 C 
ATOM     23  C   UNL     1       0.542   1.649  24.846  0.00  0.00    +0.018 C 
ATOM     24  C   UNL     1       0.576   1.435  24.114  0.00  0.00    +0.079 C 
BRANCH  24  25
ATOM     25  C   UNL     1       0.978   0.935  23.596  0.00  0.00    +0.131 C 
BRANCH  25  26
ATOM     26  N   UNL     1       1.795   1.005  23.504  0.00  0.00    -0.204 NA
ATOM     27  C   UNL     1       2.196   0.503  22.988  0.00  0.00    +0.241 C 
ATOM     28  O   UNL     1       1.781  -0.070  22.563  0.00  0.00    -0.273 OA
BRANCH  27  29
ATOM     29  C   UNL     1       3.013   0.573  22.897  0.00  0.00    +0.078 C 
ATOM     30  C   UNL     1       3.649   0.048  22.909  0.00  0.00    +0.009 C 
ATOM     31  C   UNL     1       4.168   0.674  22.767  0.00  0.00    +0.001 C 
ATOM     32  C   UNL     1       3.533   1.199  22.755  0.00  0.00    +0.009 C 
ENDBRANCH  27  29
ENDBRANCH  25  26
ENDBRANCH  24  25
ENDBRANCH  15  17
BRANCH  10   7
ATOM      4  C   UNL     1      -4.844   2.858  25.242  0.00  0.00    +0.048 A 
ATOM      5  C   UNL     1      -4.401   3.135  25.880  0.00  0.00    +0.015 A 
ATOM      6  C   UNL     1      -3.609   3.344  25.773  0.00  0.00    +0.003 A 
ATOM      7  C   UNL     1      -3.262   3.276  25.029  0.00  0.00    +0.018 A 
ATOM      8  C   UNL     1      -3.706   2.999  24.390  0.00  0.00    +0.003 A 
ATOM      9  C   UNL     1      -4.497   2.790  24.497  0.00  0.00    +0.015 A 
BRANCH   4   2
ATOM      1  C   UNL     1      -6.138   3.141  25.781  0.00  0.00    +0.112 C 
ATOM      2  N   UNL     1      -5.635   2.649  25.349  0.00  0.00    -0.304 N 
ATOM      3  C   UNL     1      -5.924   1.949  25.023  0.00  0.00    +0.112 C 
ENDBRANCH   4   2
ENDBRANCH  10   7
TORSDOF 6
ENDMDL
MODEL 2
REMARK VINA RESULT:      -9.5      1.561      2.732
REMARK  Name = 
REMARK  6 active torsions:
REMARK  status: ('A' for Active; 'I' for Inactive)
REMARK    1  A    between atoms: N_2  and  C_4
REMARK    2  A    between atoms: C_7  and  C_10
REMARK    3  A    between atoms: C_15  and  C_17
REMARK    4  A    between atoms: C_24  and  C_25
REMARK    5  A    between atoms: C_25  and  N_26
REMARK    6  A    between atoms: C_27  and  C_29
REMARK                            x       y       z     vdW  Elec       q    Type
REMARK                         _______ _______ _______ _____ _____    ______ ____
ROOT
ATOM     10  C   UNL     1      -1.652   0.989  24.730  0.00  0.00    +0.084 A 
ATOM     11  N   UNL     1      -1.760   0.399  25.297  0.00  0.00    -0.231 NA
ATOM     12  C   UNL     1      -1.178  -0.175  25.411  0.00  0.00    +0.139 A 
ATOM     13  C   UNL     1      -1.285  -0.765  25.977  0.00  0.00    +0.074 C 
ATOM     14  N   UNL     1      -0.489  -0.158  24.957  0.00  0.00    -0.235 NA
ATOM     15  C   UNL     1      -0.382   0.432  24.391  0.00  0.00    +0.063 A 
ATOM     16  C   UNL     1      -0.963   1.005  24.277  0.00  0.00    +0.034 A 
ENDROOT
BRANCH  15  17
ATOM     17  C   UNL     1       0.308   0.448  23.937  0.00  0.00    +0.056 C 
ATOM     18  C   UNL     1       0.805   1.033  24.065  0.00  0.00    +0.078 C 
ATOM     19  N   UNL     1       0.901   0.423  23.517  0.00  0.00    -0.272 NA
ATOM     20  C   UNL     1       0.060  -0.198  23.594  0.00  0.00    +0.072 C 
ATOM     21  C   UNL     1      -0.277  -0.725  23.404  0.00  0.00    +0.018 C 
ATOM     22  C   UNL     1       0.409  -0.147  23.397  0.00  0.00    +0.010 C 
ATOM     23  C   UNL     1       1.053  -0.320  22.825  0.00  0.00    +0.018 C 
ATOM     24  C   UNL     1       1.566   0.238  22.920  0.00  0.00    +0.079 C 
BRANCH  24  25
ATOM     25  C   UNL     1       2.293   0.511  22.645  0.00  0.00    +0.131 C 
BRANCH  25  26
ATOM     26  N   UNL     1       2.988   0.304  23.038  0.00  0.00    -0.204 NA
ATOM     27  C   UNL     1       3.720   0.506  22.715  0.00  0.00    +0.241 C 
ATOM     28  O   UNL     1       3.758   0.914  22.000  0.00  0.00    -0.273 OA
BRANCH  27  29
ATOM     29  C   UNL     1       4.415   0.298  23.108  0.00  0.00    +0.078 C 
ATOM     30  C   UNL     1       5.045   0.715  23.440  0.00  0.00    +0.009 C 
ATOM     31  C   UNL     1       5.398   0.005  23.665  0.00  0.00    +0.001 C 
ATOM     32  C   UNL     1       4.769  -0.413  23.334  0.00  0.00    +0.009 C 
ENDBRANCH  27  29
ENDBRANCH  25  26
ENDBRANCH  24  25
ENDBRANCH  15  17
BRANCH  10   7
ATOM      4  C   UNL     1      -3.399   2.710  24.392  0.00  0.00    +0.048 A 
ATOM      5  C   UNL     1      -3.458   1.982  24.009  0.00  0.00    +0.015 A 
ATOM      6  C   UNL     1      -2.875   1.408  24.122  0.00  0.00    +0.003 A 
ATOM      7  C   UNL     1      -2.234   1.562  24.617  0.00  0.00    +0.018 A 
ATOM      8  C   UNL     1      -2.175   2.291  25.000  0.00  0.00    +0.003 A 
ATOM      9  C   UNL     1      -2.758   2.865  24.888  0.00  0.00    +0.015 A 
BRANCH   4   2
ATOM      1  C   UNL     1      -4.024   3.694  23.565  0.00  0.00    +0.112 C 
ATOM      2  N   UNL     1      -3.981   3.284  24.279  0.00  0.00    -0.304 N 
ATOM      3  C   UNL     1      -4.520   3.447  24.881  0.00  0.00    +0.112 C 
ENDBRANCH   4   2
ENDBRANCH  10   7
TORSDOF 6
ENDMDL
MODEL 3
REMARK VINA RESULT:      -9.2      3.250      4.729
REMARK  Name = 
REMARK  6 active torsions:
REMARK  status: ('A' for Active; 'I' for Inactive)
REMARK    1  A    between atoms: N_2  and  C_4
REMARK    2  A    between atoms: C_7  and  C_10
REMARK    3  A    between atoms: C_15  and  C_17
REMARK    4  A    between atoms: C_24  and  C_25
REMARK    5  A    between atoms: C_25  and  N_26
REMARK    6  A    between atoms: C_27  and  C_29
REMARK                            x       y       z     vdW  Elec       q    Type
REMARK                         _______ _______ _______ _____ _____    ______ ____
ROOT
ATOM     10  C   UNL     1      -3.854   3.104  25.364  0.00  0.00    +0.084 A 
ATOM     11  N   UNL     1      -4.589   3.393  25.601  0.00  0.00    -0.231 NA
ATOM     12  C   UNL     1      -5.228   2.877  25.687  0.00  0.00    +0.139 A 
ATOM     13  C   UNL     1      -5.964   3.167  25.923  0.00  0.00    +0.074 C 
ATOM     14  N   UNL     1      -5.130   2.072  25.537  0.00  0.00    -0.235 NA
ATOM     15  C   UNL     1      -4.394   1.783  25.301  0.00  0.00    +0.063 A 
ATOM     16  C   UNL     1      -3.756   2.298  25.215  0.00  0.00    +0.034 A 
ENDROOT
BRANCH  15  17
ATOM     17  C   UNL     1      -4.296   0.977  25.151  0.00  0.00    +0.056 C 
ATOM     18  C   UNL     1      -3.881   0.567  25.666  0.00  0.00    +0.078 C 
ATOM     19  N   UNL     1      -4.235   0.273  24.981  0.00  0.00    -0.272 NA
ATOM     20  C   UNL     1      -4.716   1.077  24.511  0.00  0.00    +0.072 C 
ATOM     21  C   UNL     1      -5.076   1.316  24.021  0.00  0.00    +0.018 C 
ATOM     22  C   UNL     1      -4.641   0.681  24.481  0.00  0.00    +0.010 C 
ATOM     23  C   UNL     1      -4.662  -0.127  24.138  0.00  0.00    +0.018 C 
ATOM     24  C   UNL     1      -4.262  -0.564  24.618  0.00  0.00    +0.079 C 
BRANCH  24  25
ATOM     25  C   UNL     1      -4.005  -1.338  24.738  0.00  0.00    +0.131 C 
BRANCH  25  26
ATOM     26  N   UNL     1      -3.213  -1.535  24.613  0.00  0.00    -0.204 NA
ATOM     27  C   UNL     1      -2.954  -2.306  24.750  0.00  0.00    +0.241 C 
ATOM     28  O   UNL     1      -3.485  -2.880  25.011  0.00  0.00    -0.273 OA
BRANCH  27  29
ATOM     29  C   UNL     1      -2.162  -2.502  24.625  0.00  0.00    +0.078 C 
ATOM     30  C   UNL     1      -1.758  -2.991  24.097  0.00  0.00    +0.009 C 
ATOM     31  C   UNL     1      -1.042  -2.780  24.448  0.00  0.00    +0.001 C 
ATOM     32  C   UNL     1      -1.446  -2.291  24.976  0.00  0.00    +0.009 C 
ENDBRANCH  27  29
ENDBRANCH  25  26
ENDBRANCH  24  25
ENDBRANCH  15  17
BRANCH  10   7
ATOM      4  C   UNL     1      -1.941   4.654  25.107  0.00  0.00    +0.048 A 
ATOM      5  C   UNL     1      -2.412   4.468  24.456  0.00  0.00    +0.015 A 
ATOM      6  C   UNL     1      -3.050   3.951  24.541  0.00  0.00    +0.003 A 
ATOM      7  C   UNL     1      -3.217   3.620  25.278  0.00  0.00    +0.018 A 
ATOM      8  C   UNL     1      -2.746   3.806  25.930  0.00  0.00    +0.003 A 
ATOM      9  C   UNL     1      -2.108   4.323  25.845  0.00  0.00    +0.015 A 
BRANCH   4   2
ATOM      1  C   UNL     1      -1.429   5.986  25.028  0.00  0.00    +0.112 C 
ATOM      2  N   UNL     1      -1.304   5.170  25.022  0.00  0.00    -0.304 N 
ATOM      3  C   UNL     1      -0.540   4.871  24.930  0.00  0.00    +0.112 C 
ENDBRANCH   4   2
ENDBRANCH  10   7
TORSDOF 6
ENDMDL
MODEL 4
REMARK VINA RESULT:      -9.0      3.077      5.108
REMARK  Name = 
REMARK  6 active torsions:
REMARK  status: ('A' for Active; 'I' for Inactive)
REMARK    1  A    between atoms: N_2  and  C_4
REMARK    2  A    between atoms: C_7  and  C_10
REMARK    3  A    between atoms: C_15  and  C_17
REMARK    4  A    between atoms: C_24  and  C_25
REMARK    5  A    between atoms: C_25  and  N_26
REMARK    6  A    between atoms: C_27  and  C_29
REMARK                            x       y       z     vdW  Elec       q    Type
REMARK                         _______ _______ _______ _____ _____    ______ ____
ROOT
ATOM     10  C   UNL     1      -4.742   0.599  24.789  0.00  0.00    +0.084 A 
ATOM     11  N   UNL     1      -5.562   0.641  24.715  0.00  0.00    -0.231 NA
ATOM     12  C   UNL     1      -5.944   1.371  24.759  0.00  0.00    +0.139 A 
ATOM     13  C   UNL     1      -6.765   1.413  24.686  0.00  0.00    +0.074 C 
ATOM     14  N   UNL     1      -5.505   2.059  24.876  0.00  0.00    -0.235 NA
ATOM     15  C   UNL     1      -4.684   2.017  24.950  0.00  0.00    +0.063 A 
ATOM     16  C   UNL     1      -4.303   1.288  24.906  0.00  0.00    +0.034 A 
ENDROOT
BRANCH  15  17
ATOM     17  C   UNL     1      -4.244   2.706  25.067  0.00  0.00    +0.056 C 
ATOM     18  C   UNL     1      -3.702   2.878  24.536  0.00  0.00    +0.078 C 
ATOM     19  N   UNL     1      -3.882   3.320  25.210  0.00  0.00    -0.272 NA
ATOM     20  C   UNL     1      -4.654   2.820  25.712  0.00  0.00    +0.072 C 
ATOM     21  C   UNL     1      -5.072   2.777  26.212  0.00  0.00    +0.018 C 
ATOM     22  C   UNL     1      -4.414   3.145  25.726  0.00  0.00    +0.010 C 
ATOM     23  C   UNL     1      -4.078   3.894  26.037  0.00  0.00    +0.018 C 
ATOM     24  C   UNL     1      -3.537   4.098  25.539  0.00  0.00    +0.079 C 
BRANCH  24  25
ATOM     25  C   UNL     1      -2.973   4.680  25.387  0.00  0.00    +0.131 C 
BRANCH  25  26
ATOM     26  N   UNL     1      -2.218   4.467  25.131  0.00  0.00    -0.204 NA
ATOM     27  C   UNL     1      -1.618   5.032  25.101  0.00  0.00    +0.241 C 
ATOM     28  O   UNL     1      -1.772   5.811  25.327  0.00  0.00    -0.273 OA
BRANCH  27  29
ATOM     29  C   UNL     1      -0.864   4.819  24.844  0.00  0.00    +0.078 C 
ATOM     30  C   UNL     1      -0.342   5.100  24.271  0.00  0.00    +0.009 C 
ATOM     31  C   UNL     1       0.204   4.518  24.481  0.00  0.00    +0.001 C 
ATOM     32  C   UNL     1      -0.318   4.237  25.054  0.00  0.00    +0.009 C 
ENDBRANCH  27  29
ENDBRANCH  25  26
ENDBRANCH  24  25
ENDBRANCH  15  17
BRANCH  10   7
ATOM      4  C   UNL     1      -3.599  -1.593  24.658  0.00  0.00    +0.048 A 
ATOM      5  C   UNL     1      -3.917  -1.252  23.978  0.00  0.00    +0.015 A 
ATOM      6  C   UNL     1      -4.298  -0.521  24.021  0.00  0.00    +0.003 A 
ATOM      7  C   UNL     1      -4.361  -0.131  24.745  0.00  0.00    +0.018 A 
ATOM      8  C   UNL     1      -4.043  -0.472  25.426  0.00  0.00    +0.003 A 
ATOM      9  C   UNL     1      -3.662  -1.203  25.383  0.00  0.00    +0.015 A 
BRANCH   4   2
ATOM      1  C   UNL     1      -3.660  -3.017  24.549  0.00  0.00    +0.112 C 
ATOM      2  N   UNL     1      -3.218  -2.323  24.615  0.00  0.00    -0.304 N 
ATOM      3  C   UNL     1      -2.394  -2.361  24.638  0.00  0.00    +0.112 C 
ENDBRANCH   4   2
ENDBRANCH  10   7
TORSDOF 6
ENDMDL
MODEL 5
REMARK VINA RESULT:      -8.9      2.666      3.408
REMARK  Name = 
REMARK  6 active torsions:
REMARK  status: ('A' for Active; 'I' for Inactive)
REMARK    1  A    between atoms: N_2  and  C_4
REMARK    2  A    between atoms: C_7  and  C_10
REMARK    3  A    between atoms: C_15  and  C_17
REMARK    4  A    between atoms: C_24  and  C_25
REMARK    5  A    between atoms: C_25  and  N_26
REMARK    6  A    between atoms: C_27  and  C_29
REMARK                            x       y       z     vdW  Elec       q    Type
REMARK                         _______ _______ _______ _____ _____    ______ ____
ROOT
ATOM     10  C   UNL     1      -2.558   3.107  24.914  0.00  0.00    +0.084 A 
ATOM     11  N   UNL     1      -1.950   3.640  24.752  0.00  0.00    -0.231 NA
ATOM     12  C   UNL     1      -1.189   3.363  24.595  0.00  0.00    +0.139 A 
ATOM     13  C   UNL     1      -0.580   3.896  24.433  0.00  0.00    +0.074 C 
ATOM     14  N   UNL     1      -1.036   2.552  24.600  0.00  0.00    -0.235 NA
ATOM     15  C   UNL     1      -1.645   2.019  24.761  0.00  0.00    +0.063 A 
ATOM     16  C   UNL     1      -2.405   2.296  24.918  0.00  0.00    +0.034 A 
ENDROOT
BRANCH  15  17
ATOM     17  C   UNL     1      -1.492   1.207  24.766  0.00  0.00    +0.056 C 
ATOM     18  C   UNL     1      -1.836   0.777  24.216  0.00  0.00    +0.078 C 
ATOM     19  N   UNL     1      -1.331   0.500  24.807  0.00  0.00    -0.272 NA
ATOM     20  C   UNL     1      -1.042   1.328  25.381  0.00  0.00    +0.072 C 
ATOM     21  C   UNL     1      -0.706   1.584  25.880  0.00  0.00    +0.018 C 
ATOM     22  C   UNL     1      -0.998   0.928  25.343  0.00  0.00    +0.010 C 
ATOM     23  C   UNL     1      -0.708   0.120  25.528  0.00  0.00    +0.018 C 
ATOM     24  C   UNL     1      -1.025  -0.337  25.005  0.00  0.00    +0.079 C 
BRANCH  24  25
ATOM     25  C   UNL     1      -1.067  -1.123  24.763  0.00  0.00    +0.131 C 
BRANCH  25  26
ATOM     26  N   UNL     1      -1.800  -1.489  24.669  0.00  0.00    -0.204 NA
ATOM     27  C   UNL     1      -1.847  -2.310  24.613  0.00  0.00    +0.241 C 
ATOM     28  O   UNL     1      -1.161  -2.767  24.652  0.00  0.00    -0.273 OA
BRANCH  27  29
ATOM     29  C   UNL     1      -2.581  -2.676  24.519  0.00  0.00    +0.078 C 
ATOM     30  C   UNL     1      -2.925  -3.153  23.942  0.00  0.00    +0.009 C 
ATOM     31  C   UNL     1      -3.619  -3.192  24.387  0.00  0.00    +0.001 C 
ATOM     32  C   UNL     1      -3.275  -2.714  24.964  0.00  0.00    +0.009 C 
ENDBRANCH  27  29
ENDBRANCH  25  26
ENDBRANCH  24  25
ENDBRANCH  15  17
BRANCH  10   7
ATOM      4  C   UNL     1      -4.840   3.942  25.384  0.00  0.00    +0.048 A 
ATOM      5  C   UNL     1      -4.273   3.932  25.982  0.00  0.00    +0.015 A 
ATOM      6  C   UNL     1      -3.512   3.653  25.826  0.00  0.00    +0.003 A 
ATOM      7  C   UNL     1      -3.319   3.385  25.071  0.00  0.00    +0.018 A 
ATOM      8  C   UNL     1      -3.886   3.395  24.471  0.00  0.00    +0.003 A 
ATOM      9  C   UNL     1      -4.647   3.673  24.627  0.00  0.00    +0.015 A 
BRANCH   4   2
ATOM      1  C   UNL     1      -5.764   5.027  25.490  0.00  0.00    +0.112 C 
ATOM      2  N   UNL     1      -5.601   4.220  25.540  0.00  0.00    -0.304 N 
ATOM      3  C   UNL     1      -6.200   3.691  25.745  0.00  0.00    +0.112 C 
ENDBRANCH   4   2
ENDBRANCH  10   7
TORSDOF 6
ENDMDL
MODEL 6
REMARK VINA RESULT:      -8.5      1.968      5.972
REMARK  Name = 
REMARK  6 active torsions:
REMARK  status: ('A' for Active; 'I' for Inactive)
REMARK    1  A    between atoms: N_2  and  C_4
REMARK    2  A    between atoms: C_7  and  C_10
REMARK    3  A    between atoms: C_15  and  C_17
REMARK    4  A    between atoms: C_24  and  C_25
REMARK    5  A    between atoms: C_25  and  N_26
REMARK    6  A    between atoms: C_27  and  C_29
REMARK                            x       y       z     vdW  Elec       q    Type
REMARK                         _______ _______ _______ _____ _____    ______ ____
ROOT
ATOM     10  C   UNL     1      -0.055   1.898  25.093  0.00  0.00    +0.084 A 
ATOM     11  N   UNL     1       0.417   2.066  25.749  0.00  0.00    -0.231 NA
ATOM     12  C   UNL     1       0.129   2.550  26.351  0.00  0.00    +0.139 A 
ATOM     13  C   UNL     1       0.600   2.719  27.007  0.00  0.00    +0.074 C 
ATOM     14  N   UNL     1      -0.631   2.866  26.298  0.00  0.00    -0.235 NA
ATOM     15  C   UNL     1      -1.103   2.697  25.642  0.00  0.00    +0.063 A 
ATOM     16  C   UNL     1      -0.815   2.214  25.040  0.00  0.00    +0.034 A 
ENDROOT
BRANCH  15  17
ATOM     17  C   UNL     1      -1.864   3.014  25.588  0.00  0.00    +0.056 C 
ATOM     18  C   UNL     1      -2.457   2.550  25.788  0.00  0.00    +0.078 C 
ATOM     19  N   UNL     1      -2.515   3.332  25.527  0.00  0.00    -0.272 NA
ATOM     20  C   UNL     1      -1.540   3.670  25.343  0.00  0.00    +0.072 C 
ATOM     21  C   UNL     1      -1.128   4.141  25.154  0.00  0.00    +0.018 C 
ATOM     22  C   UNL     1      -1.929   3.779  25.333  0.00  0.00    +0.010 C 
ATOM     23  C   UNL     1      -2.624   4.300  25.206  0.00  0.00    +0.018 C 
ATOM     24  C   UNL     1      -3.233   3.878  25.392  0.00  0.00    +0.079 C 
BRANCH  24  25
ATOM     25  C   UNL     1      -4.056   3.903  25.442  0.00  0.00    +0.131 C 
BRANCH  25  26
ATOM     26  N   UNL     1      -4.496   3.212  25.347  0.00  0.00    -0.204 NA
ATOM     27  C   UNL     1      -5.311   3.223  25.472  0.00  0.00    +0.241 C 
ATOM     28  O   UNL     1      -5.686   3.925  25.692  0.00  0.00    -0.273 OA
BRANCH  27  29
ATOM     29  C   UNL     1      -5.752   2.532  25.378  0.00  0.00    +0.078 C 
ATOM     30  C   UNL     1      -6.182   2.041  25.881  0.00  0.00    +0.009 C 
ATOM     31  C   UNL     1      -6.376   1.555  25.243  0.00  0.00    +0.001 C 
ATOM     32  C   UNL     1      -5.946   2.047  24.739  0.00  0.00    +0.009 C 
ENDBRANCH  27  29
ENDBRANCH  25  26
ENDBRANCH  24  25
ENDBRANCH  15  17
BRANCH  10   7
ATOM      4  C   UNL     1       0.813   0.444  23.287  0.00  0.00    +0.048 A 
ATOM      5  C   UNL     1       1.160   1.179  23.428  0.00  0.00    +0.015 A 
ATOM      6  C   UNL     1       0.871   1.664  24.030  0.00  0.00    +0.003 A 
ATOM      7  C   UNL     1       0.235   1.414  24.491  0.00  0.00    +0.018 A 
ATOM      8  C   UNL     1      -0.113   0.678  24.351  0.00  0.00    +0.003 A 
ATOM      9  C   UNL     1       0.176   0.193  23.749  0.00  0.00    +0.015 A 
BRANCH   4   2
ATOM      1  C   UNL     1       0.581  -0.502  22.241  0.00  0.00    +0.112 C 
ATOM      2  N   UNL     1       1.102  -0.041  22.685  0.00  0.00    -0.304 N 
ATOM      3  C   UNL     1       1.911  -0.064  22.528  0.00  0.00    +0.112 C 
ENDBRANCH   4   2
ENDBRANCH  10   7
TORSDOF 6
ENDMDL
MODEL 7
REMARK VINA RESULT:      -8.4      3.042      6.713
REMARK  Name = 
REMARK  6 active torsions:
REMARK  status: ('A' for Active; 'I' for Inactive)
REMARK    1  A    between atoms: N_2  and  C_4
REMARK    2  A    between atoms: C_7  and  C_10
REMARK    3  A    between atoms: C_15  and  C_17
REMARK    4  A    between atoms: C_24  and  C_25
REMARK    5  A    between atoms: C_25  and  N_26
REMARK    6  A    between atoms: C_27  and  C_29
REMARK                            x       y       z     vdW  Elec       q    Type
REMARK                         _______ _______ _______ _____ _____    ______ ____
ROOT
ATOM     10  C   UNL     1      -1.248  -0.911  24.321  0.00  0.00    +0.084 A 
ATOM     11  N   UNL     1      -1.271  -1.721  24.473  0.00  0.00    -0.231 NA
ATOM     12  C   UNL     1      -1.960  -2.065  24.768  0.00  0.00    +0.139 A 
ATOM     13  C   UNL     1      -1.985  -2.876  24.921  0.00  0.00    +0.074 C 
ATOM     14  N   UNL     1      -2.626  -1.599  24.911  0.00  0.00    -0.235 NA
ATOM     15  C   UNL     1      -2.601  -0.788  24.758  0.00  0.00    +0.063 A 
ATOM     16  C   UNL     1      -1.913  -0.444  24.463  0.00  0.00    +0.034 A 
ENDROOT
BRANCH  15  17
ATOM     17  C   UNL     1      -3.268  -0.322  24.901  0.00  0.00    +0.056 C 
ATOM     18  C   UNL     1      -3.256   0.131  25.534  0.00  0.00    +0.078 C 
ATOM     19  N   UNL     1      -3.873   0.071  24.989  0.00  0.00    -0.272 NA
ATOM     20  C   UNL     1      -3.576  -0.620  24.259  0.00  0.00    +0.072 C 
ATOM     21  C   UNL     1      -3.695  -0.954  23.710  0.00  0.00    +0.018 C 
ATOM     22  C   UNL     1      -3.877  -0.375  24.371  0.00  0.00    +0.010 C 
ATOM     23  C   UNL     1      -4.659   0.022  24.331  0.00  0.00    +0.018 C 
ATOM     24  C   UNL     1      -4.687   0.481  24.941  0.00  0.00    +0.079 C 
BRANCH  24  25
ATOM     25  C   UNL     1      -5.170   1.025  25.328  0.00  0.00    +0.131 C 
BRANCH  25  26
ATOM     26  N   UNL     1      -5.036   1.834  25.238  0.00  0.00    -0.204 NA
ATOM     27  C   UNL     1      -5.506   2.377  25.644  0.00  0.00    +0.241 C 
ATOM     28  O   UNL     1      -6.110   2.112  26.139  0.00  0.00    -0.273 OA
BRANCH  27  29
ATOM     29  C   UNL     1      -5.371   3.186  25.554  0.00  0.00    +0.078 C 
ATOM     30  C   UNL     1      -5.833   3.866  25.627  0.00  0.00    +0.009 C 
ATOM     31  C   UNL     1      -5.181   4.330  25.426  0.00  0.00    +0.001 C 
ATOM     32  C   UNL     1      -4.720   3.651  25.353  0.00  0.00    +0.009 C 
ENDBRANCH  27  29
ENDBRANCH  25  26
ENDBRANCH  24  25
ENDBRANCH  15  17
BRANCH  10   7
ATOM      4  C   UNL     1       0.821   0.121  23.436  0.00  0.00    +0.048 A 
ATOM      5  C   UNL     1       0.486  -0.527  23.051  0.00  0.00    +0.015 A 
ATOM      6  C   UNL     1      -0.204  -0.871  23.346  0.00  0.00    +0.003 A 
ATOM      7  C   UNL     1      -0.558  -0.567  24.025  0.00  0.00    +0.018 A 
ATOM      8  C   UNL     1      -0.223   0.081  24.411  0.00  0.00    +0.003 A 
ATOM      9  C   UNL     1       0.467   0.425  24.116  0.00  0.00    +0.015 A 
BRANCH   4   2
ATOM      1  C   UNL     1       1.982   0.052  22.604  0.00  0.00    +0.112 C 
ATOM      2  N   UNL     1       1.511   0.465  23.141  0.00  0.00    -0.304 N 
ATOM      3  C   UNL     1       1.730   1.222  23.384  0.00  0.00    +0.112 C 
ENDBRANCH   4   2
ENDBRANCH  10   7
TORSDOF 6
ENDMDL
