MODEL 1
REMARK VINA RESULT:     -11.0      0.000      0.000
REMARK  Name = 
REMARK  8 active torsions:
REMARK  status: ('A' for Active; 'I' for Inactive)
REMARK    1  A    between atoms: C_2  and  C_23
REMARK    2  A    between atoms: C_9  and  N_10
REMARK    3  A    between atoms: C_11  and  C_13
REMARK    4  A    between atoms: C_13  and  C_14
REMARK    5  A    between atoms: C_14  and  O_15
REMARK    6  A    between atoms: C_23  and  C_25
REMARK    7  A    between atoms: N_27  and  C_28
REMARK    8  A    between atoms: C_28  and  C_29
REMARK                            x       y       z     vdW  Elec       q    Type
REMARK                         _______ _______ _______ _____ _____    ______ ____
ROOT
ATOM      1  C   UNL     1      -4.015   2.866  24.544  0.00  0.00    +0.052 C 
ATOM      2  C   UNL     1      -4.642   2.930  25.077  0.00  0.00    -0.001 C 
ATOM      3  C   UNL     1      -5.055   2.255  25.310  0.00  0.00    -0.000 C 
ATOM      4  C   UNL     1      -4.843   1.517  25.011  0.00  0.00    -0.001 C 
ATOM      5  C   UNL     1      -5.469   1.581  25.545  0.00  0.00    -0.000 C 
ATOM      6  C   UNL     1      -5.256   0.843  25.245  0.00  0.00    +0.002 C 
ATOM      7  C   UNL     1      -5.044   0.103  24.946  0.00  0.00    +0.022 C 
ATOM      8  C   UNL     1      -4.417   0.039  24.413  0.00  0.00    +0.095 C 
ATOM     16  C   UNL     1      -4.003   0.714  24.179  0.00  0.00    +0.019 C 
ATOM     17  C   UNL     1      -3.377   0.650  23.646  0.00  0.00    +0.002 C 
ATOM     18  C   UNL     1      -4.216   1.452  24.478  0.00  0.00    +0.045 C 
ATOM     19  C   UNL     1      -3.802   2.126  24.244  0.00  0.00    +0.145 C 
ATOM     20  O   UNL     1      -3.177   2.062  23.712  0.00  0.00    -0.224 OA
ENDROOT
BRANCH   8   9
ATOM      9  N   UNL     1      -4.204  -0.700  24.113  0.00  0.00    -0.207 NA
ATOM     10  C   UNL     1      -4.009  -1.313  24.630  0.00  0.00    +0.244 C 
ATOM     11  O   UNL     1      -4.026  -1.187  25.445  0.00  0.00    -0.273 OA
BRANCH  10  12
ATOM     12  C   UNL     1      -3.796  -2.051  24.330  0.00  0.00    +0.119 C 
BRANCH  12  13
ATOM     13  C   UNL     1      -3.161  -2.463  24.661  0.00  0.00    +0.152 C 
BRANCH  13  14
ATOM     14  O   UNL     1      -2.684  -2.937  24.183  0.00  0.00    -0.351 OA
ATOM     15  C   UNL     1      -1.869  -2.964  24.313  0.00  0.00    +0.174 C 
ENDBRANCH  13  14
ENDBRANCH  12  13
ENDBRANCH  10  12
ENDBRANCH   8   9
BRANCH   1  21
ATOM     21  C   UNL     1      -3.601   3.540  24.310  0.00  0.00    +0.077 C 
ATOM     22  C   UNL     1      -3.752   3.881  23.573  0.00  0.00    +0.009 C 
BRANCH  21  23
ATOM     23  C   UNL     1      -3.037   3.872  24.810  0.00  0.00    +0.241 C 
ATOM     24  O   UNL     1      -3.237   4.513  25.289  0.00  0.00    -0.273 OA
ATOM     25  N   UNL     1      -2.272   3.564  24.833  0.00  0.00    -0.201 NA
BRANCH  25  26
ATOM     26  C   UNL     1      -1.707   3.897  25.334  0.00  0.00    +0.143 C 
BRANCH  26  27
ATOM     27  C   UNL     1      -1.024   3.476  25.522  0.00  0.00    +0.019 A 
ATOM     28  C   UNL     1      -1.000   3.011  26.205  0.00  0.00    +0.001 A 
ATOM     29  C   UNL     1      -0.316   2.590  26.392  0.00  0.00    +0.020 A 
ATOM     30  C   UNL     1       0.344   2.633  25.900  0.00  0.00    +0.099 A 
ATOM     31  N   UNL     1       0.320   3.097  25.217  0.00  0.00    -0.243 NA
ATOM     32  C   UNL     1      -0.363   3.518  25.029  0.00  0.00    +0.096 A 
ENDBRANCH  26  27
ENDBRANCH  25  26
ENDBRANCH  21  23
ENDBRANCH   1  21
TORSDOF 8
ENDMDL
MODEL 2
REMARK VINA RESULT:     -10.7      1.430      4.623
REMARK  Name = 
REMARK  8 active torsions:
REMARK  status: ('A' for Active; 'I' for Inactive)
REMARK    1  A    between atoms: C_2  and  C_23
REMARK    2  A    between atoms: C_9  and  N_10
REMARK    3  A    between atoms: C_11  and  C_13
REMARK    4  A    between atoms: C_13  and  C_14
REMARK    5  A    between atoms: C_14  and  O_15
REMARK    6  A    between atoms: C_23  and  C_25
REMARK    7  A    between atoms: N_27  and  C_28
REMARK    8  A    between atoms: C_28  and  C_29
REMARK                            x       y       z     vdW  Elec       q    Type
REMARK                         _______ _______ _______ _____ _____    ______ ____
ROOT
ATOM      1  C   UNL     1      -4.375   0.397  24.572  0.00  0.00    +0.052 C 
ATOM      2  C   UNL     1      -5.048   0.500  25.039  0.00  0.00    -0.001 C 
ATOM      3  C   UNL     1      -5.242   1.251  25.322  0.00  0.00    -0.000 C 
ATOM      4  C   UNL     1      -4.765   1.898  25.139  0.00  0.00    -0.001 C 
ATOM      5  C   UNL     1      -5.437   2.000  25.606  0.00  0.00    -0.000 C 
ATOM      6  C   UNL     1      -4.959   2.647  25.422  0.00  0.00    +0.002 C 
ATOM      7  C   UNL     1      -4.482   3.295  25.238  0.00  0.00    +0.022 C 
ATOM      8  C   UNL     1      -3.810   3.192  24.771  0.00  0.00    +0.095 C 
ATOM     16  C   UNL     1      -3.615   2.441  24.487  0.00  0.00    +0.019 C 
ATOM     17  C   UNL     1      -2.943   2.339  24.020  0.00  0.00    +0.002 C 
ATOM     18  C   UNL     1      -4.093   1.795  24.671  0.00  0.00    +0.045 C 
ATOM     19  C   UNL     1      -3.897   1.045  24.388  0.00  0.00    +0.145 C 
ATOM     20  O   UNL     1      -3.226   0.942  23.921  0.00  0.00    -0.224 OA
ENDROOT
BRANCH   8   9
ATOM      9  N   UNL     1      -3.332   3.839  24.587  0.00  0.00    -0.207 NA
ATOM     10  C   UNL     1      -2.964   4.264  25.190  0.00  0.00    +0.244 C 
ATOM     11  O   UNL     1      -3.073   4.043  25.977  0.00  0.00    -0.273 OA
BRANCH  10  12
ATOM     12  C   UNL     1      -2.486   4.911  25.006  0.00  0.00    +0.119 C 
BRANCH  12  13
ATOM     13  C   UNL     1      -1.726   4.966  25.323  0.00  0.00    +0.152 C 
BRANCH  13  14
ATOM     14  O   UNL     1      -1.196   5.526  25.029  0.00  0.00    -0.351 OA
ATOM     15  C   UNL     1      -0.471   5.284  24.717  0.00  0.00    +0.174 C 
ENDBRANCH  13  14
ENDBRANCH  12  13
ENDBRANCH  10  12
ENDBRANCH   8   9
BRANCH   1  21
ATOM     21  C   UNL     1      -4.180  -0.352  24.288  0.00  0.00    +0.077 C 
ATOM     22  C   UNL     1      -4.346  -0.552  23.505  0.00  0.00    +0.009 C 
BRANCH  21  23
ATOM     23  C   UNL     1      -3.821  -0.901  24.787  0.00  0.00    +0.241 C 
ATOM     24  O   UNL     1      -4.255  -1.257  25.391  0.00  0.00    -0.273 OA
ATOM     25  N   UNL     1      -3.025  -1.096  24.681  0.00  0.00    -0.201 NA
BRANCH  25  26
ATOM     26  C   UNL     1      -2.665  -1.645  25.180  0.00  0.00    +0.143 C 
BRANCH  26  27
ATOM     27  C   UNL     1      -1.848  -1.754  25.152  0.00  0.00    +0.019 A 
ATOM     28  C   UNL     1      -1.350  -1.249  25.576  0.00  0.00    +0.001 A 
ATOM     29  C   UNL     1      -0.533  -1.359  25.547  0.00  0.00    +0.020 A 
ATOM     30  C   UNL     1      -0.213  -1.971  25.097  0.00  0.00    +0.099 A 
ATOM     31  N   UNL     1      -0.711  -2.475  24.673  0.00  0.00    -0.243 NA
ATOM     32  C   UNL     1      -1.528  -2.366  24.701  0.00  0.00    +0.096 A 
ENDBRANCH  26  27
ENDBRANCH  25  26
ENDBRANCH  21  23
ENDBRANCH   1  21
TORSDOF 8
ENDMDL
MODEL 3
REMARK VINA RESULT:     -10.6      2.646      4.529
REMARK  Name = 
REMARK  8 active torsions:
REMARK  status: ('A' for Active; 'I' for Inactive)
REMARK    1  A    between atoms: C_2  and  C_23
REMARK    2  A    between atoms: C_9  and  N_10
REMARK    3  A    between atoms: C_11  and  C_13
REMARK    4  A    between atoms: C_13  and  C_14
REMARK    5  A    between atoms: C_14  and  O_15
REMARK    6  A    between atoms: C_23  and  C_25
REMARK    7  A    between atoms: N_27  and  C_28
REMARK    8  A    between atoms: C_28  and  C_29
REMARK                            x       y       z     vdW  Elec       q    Type
REMARK                         _______ _______ _______ _____ _____    ______ ____
ROOT
ATOM      1  C   UNL     1      -3.174  -0.196  24.702  0.00  0.00    +0.052 C 
ATOM      2  C   UNL     1      -2.980  -0.735  25.295  0.00  0.00    -0.001 C 
ATOM      3  C   UNL     1      -2.188  -0.911  25.449  0.00  0.00    -0.000 C 
ATOM      4  C   UNL     1      -1.592  -0.548  25.011  0.00  0.00    -0.001 C 
ATOM      5  C   UNL     1      -1.398  -1.088  25.604  0.00  0.00    -0.000 C 
ATOM      6  C   UNL     1      -0.801  -0.724  25.165  0.00  0.00    +0.002 C 
ATOM      7  C   UNL     1      -0.204  -0.361  24.727  0.00  0.00    +0.022 C 
ATOM      8  C   UNL     1      -0.398   0.179  24.134  0.00  0.00    +0.095 C 
ATOM     16  C   UNL     1      -1.190   0.355  23.979  0.00  0.00    +0.019 C 
ATOM     17  C   UNL     1      -1.384   0.894  23.387  0.00  0.00    +0.002 C 
ATOM     18  C   UNL     1      -1.786  -0.008  24.418  0.00  0.00    +0.045 C 
ATOM     19  C   UNL     1      -2.577   0.168  24.263  0.00  0.00    +0.145 C 
ATOM     20  O   UNL     1      -2.771   0.707  23.671  0.00  0.00    -0.224 OA
ENDROOT
BRANCH   8   9
ATOM      9  N   UNL     1       0.199   0.543  23.695  0.00  0.00    -0.207 NA
ATOM     10  C   UNL     1       0.782   0.085  23.333  0.00  0.00    +0.244 C 
ATOM     11  O   UNL     1       0.768  -0.737  23.410  0.00  0.00    -0.273 OA
BRANCH  10  12
ATOM     12  C   UNL     1       1.378   0.449  22.894  0.00  0.00    +0.119 C 
BRANCH  12  13
ATOM     13  C   UNL     1       2.129   0.107  22.856  0.00  0.00    +0.152 C 
BRANCH  13  14
ATOM     14  O   UNL     1       2.710   0.443  22.378  0.00  0.00    -0.351 OA
ATOM     15  C   UNL     1       3.495   0.462  22.635  0.00  0.00    +0.174 C 
ENDBRANCH  13  14
ENDBRANCH  12  13
ENDBRANCH  10  12
ENDBRANCH   8   9
BRANCH   1  21
ATOM     21  C   UNL     1      -3.965  -0.019  24.547  0.00  0.00    +0.077 C 
ATOM     22  C   UNL     1      -4.302  -0.237  23.826  0.00  0.00    +0.009 C 
BRANCH  21  23
ATOM     23  C   UNL     1      -4.418   0.375  25.112  0.00  0.00    +0.241 C 
ATOM     24  O   UNL     1      -4.719  -0.037  25.760  0.00  0.00    -0.273 OA
ATOM     25  N   UNL     1      -4.570   1.182  25.029  0.00  0.00    -0.201 NA
BRANCH  25  26
ATOM     26  C   UNL     1      -5.024   1.576  25.595  0.00  0.00    +0.143 C 
BRANCH  26  27
ATOM     27  C   UNL     1      -5.100   2.396  25.563  0.00  0.00    +0.019 A 
ATOM     28  C   UNL     1      -4.428   2.871  25.485  0.00  0.00    +0.001 A 
ATOM     29  C   UNL     1      -4.505   3.692  25.453  0.00  0.00    +0.020 A 
ATOM     30  C   UNL     1      -5.251   4.039  25.499  0.00  0.00    +0.099 A 
ATOM     31  N   UNL     1      -5.923   3.564  25.577  0.00  0.00    -0.243 NA
ATOM     32  C   UNL     1      -5.847   2.744  25.609  0.00  0.00    +0.096 A 
ENDBRANCH  26  27
ENDBRANCH  25  26
ENDBRANCH  21  23
ENDBRANCH   1  21
TORSDOF 8
ENDMDL
MODEL 4
REMARK VINA RESULT:     -10.4      1.954      3.703
REMARK  Name = 
REMARK  8 active torsions:
REMARK  status: ('A' for Active; 'I' for Inactive)
REMARK    1  A    between atoms: C_2  and  C_23
REMARK    2  A    between atoms: C_9  and  N_10
REMARK    3  A    between atoms: C_11  and  C_13
REMARK    4  A    between atoms: C_13  and  C_14
REMARK    5  A    between atoms: C_14  and  O_15
REMARK    6  A    between atoms: C_23  and  C_25
REMARK    7  A    between atoms: N_27  and  C_28
REMARK    8  A    between atoms: C_28  and  C_29
REMARK                            x       y       z     vdW  Elec       q    Type
REMARK                         _______ _______ _______ _____ _____    ______ ____
ROOT
ATOM      1  C   UNL     1      -0.227   2.086  25.218  0.00  0.00    +0.052 C 
ATOM      2  C   UNL     1       0.207   2.147  24.519  0.00  0.00    -0.001 C 
ATOM      3  C   UNL     1       0.304   1.485  24.035  0.00  0.00    -0.000 C 
ATOM      4  C   UNL     1      -0.031   0.763  24.251  0.00  0.00    -0.001 C 
ATOM      5  C   UNL     1       0.403   0.824  23.551  0.00  0.00    -0.000 C 
ATOM      6  C   UNL     1       0.067   0.103  23.768  0.00  0.00    +0.002 C 
ATOM      7  C   UNL     1      -0.269  -0.620  23.983  0.00  0.00    +0.022 C 
ATOM      8  C   UNL     1      -0.702  -0.681  24.682  0.00  0.00    +0.095 C 
ATOM     16  C   UNL     1      -0.800  -0.019  25.166  0.00  0.00    +0.019 C 
ATOM     17  C   UNL     1      -1.234  -0.080  25.864  0.00  0.00    +0.002 C 
ATOM     18  C   UNL     1      -0.465   0.702  24.950  0.00  0.00    +0.045 C 
ATOM     19  C   UNL     1      -0.563   1.363  25.434  0.00  0.00    +0.145 C 
ATOM     20  O   UNL     1      -0.996   1.302  26.132  0.00  0.00    -0.224 OA
ENDROOT
BRANCH   8   9
ATOM      9  N   UNL     1      -1.038  -1.404  24.898  0.00  0.00    -0.207 NA
ATOM     10  C   UNL     1      -1.584  -1.769  24.399  0.00  0.00    +0.244 C 
ATOM     11  O   UNL     1      -1.794  -1.413  23.685  0.00  0.00    -0.273 OA
BRANCH  10  12
ATOM     12  C   UNL     1      -1.920  -2.491  24.615  0.00  0.00    +0.119 C 
BRANCH  12  13
ATOM     13  C   UNL     1      -2.631  -2.733  24.274  0.00  0.00    +0.152 C 
BRANCH  13  14
ATOM     14  O   UNL     1      -3.213  -3.086  24.740  0.00  0.00    -0.351 OA
ATOM     15  C   UNL     1      -3.976  -3.186  24.443  0.00  0.00    +0.174 C 
ENDBRANCH  13  14
ENDBRANCH  12  13
ENDBRANCH  10  12
ENDBRANCH   8   9
BRANCH   1  21
ATOM     21  C   UNL     1      -0.325   2.746  25.702  0.00  0.00    +0.077 C 
ATOM     22  C   UNL     1       0.052   2.779  26.436  0.00  0.00    +0.009 C 
BRANCH  21  23
ATOM     23  C   UNL     1      -0.799   3.373  25.453  0.00  0.00    +0.241 C 
ATOM     24  O   UNL     1      -0.464   4.008  25.047  0.00  0.00    -0.273 OA
ATOM     25  N   UNL     1      -1.610   3.366  25.611  0.00  0.00    -0.201 NA
BRANCH  25  26
ATOM     26  C   UNL     1      -2.084   3.993  25.362  0.00  0.00    +0.143 C 
BRANCH  26  27
ATOM     27  C   UNL     1      -2.904   3.908  25.343  0.00  0.00    +0.019 A 
ATOM     28  C   UNL     1      -3.287   3.768  24.625  0.00  0.00    +0.001 A 
ATOM     29  C   UNL     1      -4.108   3.682  24.606  0.00  0.00    +0.020 A 
ATOM     30  C   UNL     1      -4.545   3.736  25.302  0.00  0.00    +0.099 A 
ATOM     31  N   UNL     1      -4.161   3.876  26.021  0.00  0.00    -0.243 NA
ATOM     32  C   UNL     1      -3.342   3.961  26.040  0.00  0.00    +0.096 A 
ENDBRANCH  26  27
ENDBRANCH  25  26
ENDBRANCH  21  23
ENDBRANCH   1  21
TORSDOF 8
ENDMDL
MODEL 5
REMARK VINA RESULT:     -10.3      1.919      5.237
REMARK  Name = 
REMARK  8 active torsions:
REMARK  status: ('A' for Active; 'I' for Inactive)
REMARK    1  A    between atoms: C_2  and  C_23
REMARK    2  A    between atoms: C_9  and  N_10
REMARK    3  A    between atoms: C_11  and  C_13
REMARK    4  A    between atoms: C_13  and  C_14
REMARK    5  A    between atoms: C_14  and  O_15
REMARK    6  A    between atoms: C_23  and  C_25
REMARK    7  A    between atoms: N_27  and  C_28
REMARK    8  A    between atoms: C_28  and  C_29
REMARK                            x       y       z     vdW  Elec       q    Type
REMARK                         _______ _______ _______ _____ _____    ______ ____
ROOT
ATOM      1  C   UNL     1      -0.511   0.940  24.449  0.00  0.00    +0.052 C 
ATOM      2  C   UNL     1       0.020   1.179  25.034  0.00  0.00    -0.001 C 
ATOM      3  C   UNL     1      -0.128   1.865  25.469  0.00  0.00    -0.000 C 
ATOM      4  C   UNL     1      -0.805   2.310  25.320  0.00  0.00    -0.001 C 
ATOM      5  C   UNL     1      -0.274   2.550  25.904  0.00  0.00    -0.000 C 
ATOM      6  C   UNL     1      -0.952   2.995  25.755  0.00  0.00    +0.002 C 
ATOM      7  C   UNL     1      -1.629   3.442  25.606  0.00  0.00    +0.022 C 
ATOM      8  C   UNL     1      -2.161   3.203  25.022  0.00  0.00    +0.095 C 
ATOM     16  C   UNL     1      -2.014   2.517  24.586  0.00  0.00    +0.019 C 
ATOM     17  C   UNL     1      -2.544   2.278  24.003  0.00  0.00    +0.002 C 
ATOM     18  C   UNL     1      -1.336   2.071  24.736  0.00  0.00    +0.045 C 
ATOM     19  C   UNL     1      -1.190   1.386  24.300  0.00  0.00    +0.145 C 
ATOM     20  O   UNL     1      -1.720   1.147  23.717  0.00  0.00    -0.224 OA
ENDROOT
BRANCH   8   9
ATOM      9  N   UNL     1      -2.839   3.649  24.873  0.00  0.00    -0.207 NA
ATOM     10  C   UNL     1      -3.362   3.821  25.487  0.00  0.00    +0.244 C 
ATOM     11  O   UNL     1      -3.208   3.547  26.250  0.00  0.00    -0.273 OA
BRANCH  10  12
ATOM     12  C   UNL     1      -4.040   4.267  25.337  0.00  0.00    +0.119 C 
BRANCH  12  13
ATOM     13  C   UNL     1      -4.761   4.045  25.672  0.00  0.00    +0.152 C 
BRANCH  13  14
ATOM     14  O   UNL     1      -5.468   4.237  25.292  0.00  0.00    -0.351 OA
ATOM     15  C   UNL     1      -6.189   4.018  25.629  0.00  0.00    +0.174 C 
ENDBRANCH  13  14
ENDBRANCH  12  13
ENDBRANCH  10  12
ENDBRANCH   8   9
BRANCH   1  21
ATOM     21  C   UNL     1      -0.365   0.255  24.014  0.00  0.00    +0.077 C 
ATOM     22  C   UNL     1      -0.129   0.311  23.225  0.00  0.00    +0.009 C 
BRANCH  21  23
ATOM     23  C   UNL     1      -0.456  -0.485  24.366  0.00  0.00    +0.241 C 
ATOM     24  O   UNL     1       0.193  -0.860  24.712  0.00  0.00    -0.273 OA
ATOM     25  N   UNL     1      -1.195  -0.852  24.372  0.00  0.00    -0.201 NA
BRANCH  25  26
ATOM     26  C   UNL     1      -1.286  -1.592  24.725  0.00  0.00    +0.143 C 
BRANCH  26  27
ATOM     27  C   UNL     1      -2.031  -1.942  24.763  0.00  0.00    +0.019 A 
ATOM     28  C   UNL     1      -2.588  -1.669  25.309  0.00  0.00    +0.001 A 
ATOM     29  C   UNL     1      -3.334  -2.019  25.347  0.00  0.00    +0.020 A 
ATOM     30  C   UNL     1      -3.524  -2.642  24.841  0.00  0.00    +0.099 A 
ATOM     31  N   UNL     1      -2.967  -2.915  24.296  0.00  0.00    -0.243 NA
ATOM     32  C   UNL     1      -2.222  -2.566  24.257  0.00  0.00    +0.096 A 
ENDBRANCH  26  27
ENDBRANCH  25  26
ENDBRANCH  21  23
ENDBRANCH   1  21
TORSDOF 8
ENDMDL
MODEL 6
REMARK VINA RESULT:     -10.2      2.506      4.411
REMARK  Name = 
REMARK  8 active torsions:
REMARK  status: ('A' for Active; 'I' for Inactive)
REMARK    1  A    between atoms: C_2  and  C_23
REMARK    2  A    between atoms: C_9  and  N_10
REMARK    3  A    between atoms: C_11  and  C_13
REMARK    4  A    between atoms: C_13  and  C_14
REMARK    5  A    between atoms: C_14  and  O_15
REMARK    6  A    between atoms: C_23  and  C_25
REMARK    7  A    between atoms: N_27  and  C_28
REMARK    8  A    between atoms: C_28  and  C_29
REMARK                            x       y       z     vdW  Elec       q    Type
REMARK                         _______ _______ _______ _____ _____    ______ ____
ROOT
ATOM      1  C   UNL     1      -2.128   3.469  25.189  0.00  0.00    +0.052 C 
ATOM      2  C   UNL     1      -1.719   3.570  25.898  0.00  0.00    -0.001 C 
ATOM      3  C   UNL     1      -1.048   3.115  26.054  0.00  0.00    -0.000 C 
ATOM      4  C   UNL     1      -0.787   2.560  25.502  0.00  0.00    -0.001 C 
ATOM      5  C   UNL     1      -0.378   2.661  26.211  0.00  0.00    -0.000 C 
ATOM      6  C   UNL     1      -0.117   2.106  25.659  0.00  0.00    +0.002 C 
ATOM      7  C   UNL     1       0.144   1.551  25.107  0.00  0.00    +0.022 C 
ATOM      8  C   UNL     1      -0.266   1.451  24.398  0.00  0.00    +0.095 C 
ATOM     16  C   UNL     1      -0.937   1.905  24.241  0.00  0.00    +0.019 C 
ATOM     17  C   UNL     1      -1.346   1.805  23.533  0.00  0.00    +0.002 C 
ATOM     18  C   UNL     1      -1.197   2.460  24.793  0.00  0.00    +0.045 C 
ATOM     19  C   UNL     1      -1.868   2.914  24.636  0.00  0.00    +0.145 C 
ATOM     20  O   UNL     1      -2.277   2.814  23.928  0.00  0.00    -0.224 OA
ENDROOT
BRANCH   8   9
ATOM      9  N   UNL     1      -0.005   0.896  23.845  0.00  0.00    -0.207 NA
ATOM     10  C   UNL     1       0.795   0.856  23.648  0.00  0.00    +0.244 C 
ATOM     11  O   UNL     1       1.334   1.370  24.002  0.00  0.00    -0.273 OA
BRANCH  10  12
ATOM     12  C   UNL     1       1.055   0.301  23.095  0.00  0.00    +0.119 C 
BRANCH  12  13
ATOM     13  C   UNL     1       1.847   0.291  22.863  0.00  0.00    +0.152 C 
BRANCH  13  14
ATOM     14  O   UNL     1       2.062  -0.062  22.149  0.00  0.00    -0.351 OA
ATOM     15  C   UNL     1       2.854  -0.071  21.916  0.00  0.00    +0.174 C 
ENDBRANCH  13  14
ENDBRANCH  12  13
ENDBRANCH  10  12
ENDBRANCH   8   9
BRANCH   1  21
ATOM     21  C   UNL     1      -2.799   3.923  25.031  0.00  0.00    +0.077 C 
ATOM     22  C   UNL     1      -2.800   4.450  24.396  0.00  0.00    +0.009 C 
BRANCH  21  23
ATOM     23  C   UNL     1      -3.467   3.851  25.508  0.00  0.00    +0.241 C 
ATOM     24  O   UNL     1      -3.499   4.237  26.236  0.00  0.00    -0.273 OA
ATOM     25  N   UNL     1      -4.106   3.391  25.257  0.00  0.00    -0.201 NA
BRANCH  25  26
ATOM     26  C   UNL     1      -4.775   3.319  25.734  0.00  0.00    +0.143 C 
BRANCH  26  27
ATOM     27  C   UNL     1      -5.322   2.720  25.588  0.00  0.00    +0.019 A 
ATOM     28  C   UNL     1      -5.587   2.242  26.207  0.00  0.00    +0.001 A 
ATOM     29  C   UNL     1      -6.135   1.643  26.060  0.00  0.00    +0.020 A 
ATOM     30  C   UNL     1      -6.418   1.521  25.296  0.00  0.00    +0.099 A 
ATOM     31  N   UNL     1      -6.154   1.999  24.676  0.00  0.00    -0.243 NA
ATOM     32  C   UNL     1      -5.606   2.598  24.822  0.00  0.00    +0.096 A 
ENDBRANCH  26  27
ENDBRANCH  25  26
ENDBRANCH  21  23
ENDBRANCH   1  21
TORSDOF 8
ENDMDL
MODEL 7
REMARK VINA RESULT:     -10.0      1.813      5.057
REMARK  Name = 
REMARK  8 active torsions:
REMARK  status: ('A' for Active; 'I' for Inactive)
REMARK    1  A    between atoms: C_2  and  C_23
REMARK    2  A    between atoms: C_9  and  N_10
REMARK    3  A    between atoms: C_11  and  C_13
REMARK    4  A    between atoms: C_13  and  C_14
REMARK    5  A    between atoms: C_14  and  O_15
REMARK    6  A    between atoms: C_23  and  C_25
REMARK    7  A    between atoms: N_27  and  C_28
REMARK    8  A    between atoms: C_28  and  C_29
REMARK                            x       y       z     vdW  Elec       q    Type
REMARK                         _______ _______ _______ _____ _____    ______ ____
ROOT
ATOM      1  C   UNL     1      -2.891   1.915  24.254  0.00  0.00    +0.052 C 
ATOM      2  C   UNL     1      -3.334   2.563  24.508  0.00  0.00    -0.001 C 
ATOM      3  C   UNL     1      -3.000   3.111  25.026  0.00  0.00    -0.000 C 
ATOM      4  C   UNL     1      -2.225   3.013  25.290  0.00  0.00    -0.001 C 
ATOM      5  C   UNL     1      -2.668   3.661  25.544  0.00  0.00    -0.000 C 
ATOM      6  C   UNL     1      -1.892   3.561  25.807  0.00  0.00    +0.002 C 
ATOM      7  C   UNL     1      -1.117   3.463  26.071  0.00  0.00    +0.022 C 
ATOM      8  C   UNL     1      -0.674   2.815  25.816  0.00  0.00    +0.095 C 
ATOM     16  C   UNL     1      -1.007   2.265  25.298  0.00  0.00    +0.019 C 
ATOM     17  C   UNL     1      -0.565   1.618  25.043  0.00  0.00    +0.002 C 
ATOM     18  C   UNL     1      -1.783   2.365  25.035  0.00  0.00    +0.045 C 
ATOM     19  C   UNL     1      -2.115   1.815  24.517  0.00  0.00    +0.145 C 
ATOM     20  O   UNL     1      -1.673   1.168  24.263  0.00  0.00    -0.224 OA
ENDROOT
BRANCH   8   9
ATOM      9  N   UNL     1       0.102   2.715  26.080  0.00  0.00    -0.207 NA
ATOM     10  C   UNL     1       0.259   2.661  26.888  0.00  0.00    +0.244 C 
ATOM     11  O   UNL     1      -0.359   2.706  27.432  0.00  0.00    -0.273 OA
BRANCH  10  12
ATOM     12  C   UNL     1       1.034   2.562  27.150  0.00  0.00    +0.119 C 
BRANCH  12  13
ATOM     13  C   UNL     1       1.214   2.659  27.950  0.00  0.00    +0.152 C 
BRANCH  13  14
ATOM     14  O   UNL     1       2.001   2.708  28.192  0.00  0.00    -0.351 OA
ATOM     15  C   UNL     1       2.185   2.723  28.997  0.00  0.00    +0.174 C 
ENDBRANCH  13  14
ENDBRANCH  12  13
ENDBRANCH  10  12
ENDBRANCH   8   9
BRANCH   1  21
ATOM     21  C   UNL     1      -3.224   1.366  23.736  0.00  0.00    +0.077 C 
ATOM     22  C   UNL     1      -2.986   1.349  22.945  0.00  0.00    +0.009 C 
BRANCH  21  23
ATOM     23  C   UNL     1      -3.792   0.834  24.007  0.00  0.00    +0.241 C 
ATOM     24  O   UNL     1      -4.532   1.108  24.246  0.00  0.00    -0.273 OA
ATOM     25  N   UNL     1      -3.621   0.027  24.039  0.00  0.00    -0.201 NA
BRANCH  25  26
ATOM     26  C   UNL     1      -4.190  -0.505  24.310  0.00  0.00    +0.143 C 
BRANCH  26  27
ATOM     27  C   UNL     1      -4.007  -1.306  24.375  0.00  0.00    +0.019 A 
ATOM     28  C   UNL     1      -3.589  -1.582  25.032  0.00  0.00    +0.001 A 
ATOM     29  C   UNL     1      -3.406  -2.384  25.097  0.00  0.00    +0.020 A 
ATOM     30  C   UNL     1      -3.640  -2.910  24.507  0.00  0.00    +0.099 A 
ATOM     31  N   UNL     1      -4.059  -2.634  23.850  0.00  0.00    -0.243 NA
ATOM     32  C   UNL     1      -4.242  -1.833  23.785  0.00  0.00    +0.096 A 
ENDBRANCH  26  27
ENDBRANCH  25  26
ENDBRANCH  21  23
ENDBRANCH   1  21
TORSDOF 8
ENDMDL
MODEL 8
REMARK VINA RESULT:      -9.9      1.965      4.454
REMARK  Name = 
REMARK  8 active torsions:
REMARK  status: ('A' for Active; 'I' for Inactive)
REMARK    1  A    between atoms: C_2  and  C_23
REMARK    2  A    between atoms: C_9  and  N_10
REMARK    3  A    between atoms: C_11  and  C_13
REMARK    4  A    between atoms: C_13  and  C_14
REMARK    5  A    between atoms: C_14  and  O_15
REMARK    6  A    between atoms: C_23  and  C_25
REMARK    7  A    between atoms: N_27  and  C_28
REMARK    8  A    between atoms: C_28  and  C_29
REMARK                            x       y       z     vdW  Elec       q    Type
REMARK                         _______ _______ _______ _____ _____    ______ ____
ROOT
ATOM      1  C   UNL     1      -3.383   2.548  24.762  0.00  0.00    +0.052 C 
ATOM      2  C   UNL     1      -3.286   2.991  25.450  0.00  0.00    -0.001 C 
ATOM      3  C   UNL     1      -2.534   3.243  25.676  0.00  0.00    -0.000 C 
ATOM      4  C   UNL     1      -1.878   3.051  25.214  0.00  0.00    -0.001 C 
ATOM      5  C   UNL     1      -1.782   3.495  25.903  0.00  0.00    -0.000 C 
ATOM      6  C   UNL     1      -1.127   3.302  25.440  0.00  0.00    +0.002 C 
ATOM      7  C   UNL     1      -0.470   3.111  24.977  0.00  0.00    +0.022 C 
ATOM      8  C   UNL     1      -0.567   2.667  24.288  0.00  0.00    +0.095 C 
ATOM     16  C   UNL     1      -1.320   2.416  24.062  0.00  0.00    +0.019 C 
ATOM     17  C   UNL     1      -1.417   1.973  23.374  0.00  0.00    +0.002 C 
ATOM     18  C   UNL     1      -1.975   2.608  24.525  0.00  0.00    +0.045 C 
ATOM     19  C   UNL     1      -2.727   2.356  24.298  0.00  0.00    +0.145 C 
ATOM     20  O   UNL     1      -2.824   1.913  23.610  0.00  0.00    -0.224 OA
ENDROOT
BRANCH   8   9
ATOM      9  N   UNL     1       0.089   2.475  23.825  0.00  0.00    -0.207 NA
ATOM     10  C   UNL     1       0.693   2.010  24.140  0.00  0.00    +0.244 C 
ATOM     11  O   UNL     1       0.641   1.736  24.916  0.00  0.00    -0.273 OA
BRANCH  10  12
ATOM     12  C   UNL     1       1.348   1.818  23.677  0.00  0.00    +0.119 C 
BRANCH  12  13
ATOM     13  C   UNL     1       1.548   1.027  23.553  0.00  0.00    +0.152 C 
BRANCH  13  14
ATOM     14  O   UNL     1       2.180   0.834  23.059  0.00  0.00    -0.351 OA
ATOM     15  C   UNL     1       2.236   0.075  22.739  0.00  0.00    +0.174 C 
ENDBRANCH  13  14
ENDBRANCH  12  13
ENDBRANCH  10  12
ENDBRANCH   8   9
BRANCH   1  21
ATOM     21  C   UNL     1      -4.135   2.296  24.535  0.00  0.00    +0.077 C 
ATOM     22  C   UNL     1      -4.544   2.700  23.941  0.00  0.00    +0.009 C 
BRANCH  21  23
ATOM     23  C   UNL     1      -4.479   1.642  24.900  0.00  0.00    +0.241 C 
ATOM     24  O   UNL     1      -5.030   1.749  25.505  0.00  0.00    -0.273 OA
ATOM     25  N   UNL     1      -4.272   0.879  24.661  0.00  0.00    -0.201 NA
BRANCH  25  26
ATOM     26  C   UNL     1      -4.616   0.225  25.027  0.00  0.00    +0.143 C 
BRANCH  26  27
ATOM     27  C   UNL     1      -4.302  -0.527  24.906  0.00  0.00    +0.019 A 
ATOM     28  C   UNL     1      -4.441  -0.924  24.195  0.00  0.00    +0.001 A 
ATOM     29  C   UNL     1      -4.125  -1.677  24.074  0.00  0.00    +0.020 A 
ATOM     30  C   UNL     1      -3.671  -2.033  24.663  0.00  0.00    +0.099 A 
ATOM     31  N   UNL     1      -3.532  -1.637  25.374  0.00  0.00    -0.243 NA
ATOM     32  C   UNL     1      -3.847  -0.885  25.495  0.00  0.00    +0.096 A 
ENDBRANCH  26  27
ENDBRANCH  25  26
ENDBRANCH  21  23
ENDBRANCH   1  21
TORSDOF 8
ENDMDL
MODEL 9
REMARK VINA RESULT:      -9.8      3.082      5.236
REMARK  Name = 
REMARK  8 active torsions:
REMARK  status: ('A' for Active; 'I' for Inactive)
REMARK    1  A    between atoms: C_2  and  C_23
REMARK    2  A    between atoms: C_9  and  N_10
REMARK    3  A    between atoms: C_11  and  C_13
REMARK    4  A    between atoms: C_13  and  C_14
REMARK    5  A    between atoms: C_14  and  O_15
REMARK    6  A    between atoms: C_23  and  C_25
REMARK    7  A    between atoms: N_27  and  C_28
REMARK    8  A    between atoms: C_28  and  C_29
REMARK                            x       y       z     vdW  Elec       q    Type
REMARK                         _______ _______ _______ _____ _____    ______ ____
ROOT
ATOM      1  C   UNL     1      -1.752   0.668  24.748  0.00  0.00    +0.052 C 
ATOM      2  C   UNL     1      -1.669   1.451  24.993  0.00  0.00    -0.001 C 
ATOM      3  C   UNL     1      -0.969   1.859  24.838  0.00  0.00    -0.000 C 
ATOM      4  C   UNL     1      -0.353   1.485  24.438  0.00  0.00    -0.001 C 
ATOM      5  C   UNL     1      -0.269   2.268  24.684  0.00  0.00    -0.000 C 
ATOM      6  C   UNL     1       0.347   1.893  24.283  0.00  0.00    +0.002 C 
ATOM      7  C   UNL     1       0.964   1.519  23.883  0.00  0.00    +0.022 C 
ATOM      8  C   UNL     1       0.880   0.736  23.638  0.00  0.00    +0.095 C 
ATOM     16  C   UNL     1       0.180   0.327  23.793  0.00  0.00    +0.019 C 
ATOM     17  C   UNL     1       0.097  -0.455  23.548  0.00  0.00    +0.002 C 
ATOM     18  C   UNL     1      -0.436   0.702  24.193  0.00  0.00    +0.045 C 
ATOM     19  C   UNL     1      -1.135   0.293  24.347  0.00  0.00    +0.145 C 
ATOM     20  O   UNL     1      -1.219  -0.489  24.102  0.00  0.00    -0.224 OA
ENDROOT
BRANCH   8   9
ATOM      9  N   UNL     1       1.497   0.361  23.237  0.00  0.00    -0.207 NA
ATOM     10  C   UNL     1       2.224   0.740  23.153  0.00  0.00    +0.244 C 
ATOM     11  O   UNL     1       2.336   1.495  23.468  0.00  0.00    -0.273 OA
BRANCH  10  12
ATOM     12  C   UNL     1       2.840   0.365  22.752  0.00  0.00    +0.119 C 
BRANCH  12  13
ATOM     13  C   UNL     1       3.619   0.615  22.867  0.00  0.00    +0.152 C 
BRANCH  13  14
ATOM     14  O   UNL     1       4.239   0.076  22.795  0.00  0.00    -0.351 OA
ATOM     15  C   UNL     1       4.989   0.270  23.083  0.00  0.00    +0.174 C 
ENDBRANCH  13  14
ENDBRANCH  12  13
ENDBRANCH  10  12
ENDBRANCH   8   9
BRANCH   1  21
ATOM     21  C   UNL     1      -2.452   0.259  24.903  0.00  0.00    +0.077 C 
ATOM     22  C   UNL     1      -2.445  -0.390  25.412  0.00  0.00    +0.009 C 
BRANCH  21  23
ATOM     23  C   UNL     1      -3.156   0.499  24.549  0.00  0.00    +0.241 C 
ATOM     24  O   UNL     1      -3.337   0.255  23.782  0.00  0.00    -0.273 OA
ATOM     25  N   UNL     1      -3.682   0.983  24.962  0.00  0.00    -0.201 NA
BRANCH  25  26
ATOM     26  C   UNL     1      -4.388   1.222  24.608  0.00  0.00    +0.143 C 
BRANCH  26  27
ATOM     27  C   UNL     1      -4.878   1.764  24.990  0.00  0.00    +0.019 A 
ATOM     28  C   UNL     1      -4.758   2.574  24.885  0.00  0.00    +0.001 A 
ATOM     29  C   UNL     1      -5.248   3.116  25.268  0.00  0.00    +0.020 A 
ATOM     30  C   UNL     1      -5.858   2.850  25.755  0.00  0.00    +0.099 A 
ATOM     31  N   UNL     1      -5.978   2.039  25.860  0.00  0.00    -0.243 NA
ATOM     32  C   UNL     1      -5.488   1.497  25.478  0.00  0.00    +0.096 A 
ENDBRANCH  26  27
ENDBRANCH  25  26
ENDBRANCH  21  23
ENDBRANCH   1  21
TORSDOF 8
ENDMDL
MODEL 10
REMARK VINA RESULT:      -9.5      3.114      5.062
REMARK  Name = 
REMARK  8 active torsions:
REMARK  status: ('A' for Active; 'I' for Inactive)
REMARK    1  A    between atoms: C_2  and  C_23
REMARK    2  A    between atoms: C_9  and  N_10
REMARK    3  A    between atoms: C_11  and  C_13
REMARK    4  A    between atoms: C_13  and  C_14
REMARK    5  A    between atoms: C_14  and  O_15
REMARK    6  A    between atoms: C_23  and  C_25
REMARK    7  A    between atoms: N_27  and  C_28
REMARK    8  A    between atoms: C_28  and  C_29
REMARK                            x       y       z     vdW  Elec       q    Type
REMARK                         _______ _______ _______ _____ _____    ______ ____
ROOT
ATOM      1  C   UNL     1      -0.039   0.839  23.950  0.00  0.00    +0.052 C 
ATOM      2  C   UNL     1       0.436   1.452  24.230  0.00  0.00    -0.001 C 
ATOM      3  C   UNL     1       0.094   2.166  24.462  0.00  0.00    -0.000 C 
ATOM      4  C   UNL     1      -0.723   2.267  24.413  0.00  0.00    -0.001 C 
ATOM      5  C   UNL     1      -0.247   2.880  24.694  0.00  0.00    -0.000 C 
ATOM      6  C   UNL     1      -1.064   2.981  24.645  0.00  0.00    +0.002 C 
ATOM      7  C   UNL     1      -1.882   3.083  24.596  0.00  0.00    +0.022 C 
ATOM      8  C   UNL     1      -2.357   2.470  24.315  0.00  0.00    +0.095 C 
ATOM     16  C   UNL     1      -2.015   1.756  24.083  0.00  0.00    +0.019 C 
ATOM     17  C   UNL     1      -2.491   1.143  23.802  0.00  0.00    +0.002 C 
ATOM     18  C   UNL     1      -1.198   1.655  24.132  0.00  0.00    +0.045 C 
ATOM     19  C   UNL     1      -0.857   0.940  23.900  0.00  0.00    +0.145 C 
ATOM     20  O   UNL     1      -1.332   0.328  23.620  0.00  0.00    -0.224 OA
ENDROOT
BRANCH   8   9
ATOM      9  N   UNL     1      -3.175   2.572  24.266  0.00  0.00    -0.207 NA
ATOM     10  C   UNL     1      -3.578   2.967  24.867  0.00  0.00    +0.244 C 
ATOM     11  O   UNL     1      -3.164   3.260  25.518  0.00  0.00    -0.273 OA
BRANCH  10  12
ATOM     12  C   UNL     1      -4.395   3.068  24.818  0.00  0.00    +0.119 C 
BRANCH  12  13
ATOM     13  C   UNL     1      -4.868   2.932  25.481  0.00  0.00    +0.152 C 
BRANCH  13  14
ATOM     14  O   UNL     1      -5.689   2.900  25.402  0.00  0.00    -0.351 OA
ATOM     15  C   UNL     1      -6.132   2.409  25.896  0.00  0.00    +0.174 C 
ENDBRANCH  13  14
ENDBRANCH  12  13
ENDBRANCH  10  12
ENDBRANCH   8   9
BRANCH   1  21
ATOM     21  C   UNL     1       0.302   0.124  23.718  0.00  0.00    +0.077 C 
ATOM     22  C   UNL     1       0.104  -0.574  24.112  0.00  0.00    +0.009 C 
BRANCH  21  23
ATOM     23  C   UNL     1       0.838   0.107  23.093  0.00  0.00    +0.241 C 
ATOM     24  O   UNL     1       0.566   0.080  22.315  0.00  0.00    -0.273 OA
ATOM     25  N   UNL     1       1.650   0.117  23.245  0.00  0.00    -0.201 NA
BRANCH  25  26
ATOM     26  C   UNL     1       2.187   0.099  22.620  0.00  0.00    +0.143 C 
BRANCH  26  27
ATOM     27  C   UNL     1       2.994   0.181  22.767  0.00  0.00    +0.019 A 
ATOM     28  C   UNL     1       3.376   0.893  22.594  0.00  0.00    +0.001 A 
ATOM     29  C   UNL     1       4.183   0.974  22.742  0.00  0.00    +0.020 A 
ATOM     30  C   UNL     1       4.610   0.346  23.063  0.00  0.00    +0.099 A 
ATOM     31  N   UNL     1       4.229  -0.366  23.235  0.00  0.00    -0.243 NA
ATOM     32  C   UNL     1       3.422  -0.448  23.088  0.00  0.00    +0.096 A 
ENDBRANCH  26  27
ENDBRANCH  25  26
ENDBRANCH  21  23
ENDBRANCH   1  21
TORSDOF 8
ENDMDL
