MODEL 1
REMARK VINA RESULT:     -11.5      0.000      0.000
REMARK  Name = 
REMARK  5 active torsions:
REMARK  status: ('A' for Active; 'I' for Inactive)
REMARK    1  A    between atoms: O_2  and  C_3
REMARK    2  A    between atoms: C_6  and  C_9
REMARK    3  A    between atoms: C_15  and  N_16
REMARK    4  A    between atoms: C_17  and  C_19
REMARK    5  A    between atoms: C_24  and  O_25
REMARK                            x       y       z     vdW  Elec       q    Type
REMARK                         _______ _______ _______ _____ _____    ______ ____
ROOT
ATOM      9  C   UNL     1      -3.584   2.021  24.565  0.00  0.00    +0.048 C 
ATOM     10  C   UNL     1      -3.976   2.713  24.781  0.00  0.00    +0.042 C 
ATOM     11  C   UNL     1      -4.772   2.530  24.893  0.00  0.00    +0.184 C 
ATOM     12  O   UNL     1      -5.366   3.059  25.114  0.00  0.00    -0.220 OA
ATOM     13  C   UNL     1      -4.872   1.724  24.747  0.00  0.00    +0.202 C 
ATOM     14  O   UNL     1      -5.582   1.306  24.795  0.00  0.00    -0.219 OA
ATOM     15  C   UNL     1      -4.138   1.409  24.544  0.00  0.00    +0.132 C 
ENDROOT
BRANCH   9   6
ATOM      3  C   UNL     1      -1.168   1.812  24.067  0.00  0.00    +0.139 A 
ATOM      4  C   UNL     1      -1.718   1.796  23.453  0.00  0.00    +0.037 A 
ATOM      5  C   UNL     1      -2.524   1.866  23.619  0.00  0.00    -0.001 A 
ATOM      6  C   UNL     1      -2.778   1.951  24.399  0.00  0.00    -0.020 A 
ATOM      7  C   UNL     1      -2.228   1.967  25.013  0.00  0.00    -0.001 A 
ATOM      8  C   UNL     1      -1.422   1.898  24.846  0.00  0.00    +0.037 A 
BRANCH   3   2
ATOM      1  C   UNL     1       0.005   1.006  23.939  0.00  0.00    +0.252 C 
ATOM      2  O   UNL     1      -0.363   1.743  23.901  0.00  0.00    -0.471 OA
ENDBRANCH   3   2
ENDBRANCH   9   6
BRANCH  15  16
ATOM     16  N   UNL     1      -3.983   0.622  24.353  0.00  0.00    -0.200 NA
ATOM     17  C   UNL     1      -4.228   0.019  24.860  0.00  0.00    +0.268 C 
ATOM     18  O   UNL     1      -4.627   0.204  25.558  0.00  0.00    -0.268 OA
BRANCH  17  19
ATOM     19  C   UNL     1      -4.074  -0.769  24.670  0.00  0.00    +0.089 A 
ATOM     20  C   UNL     1      -4.337  -1.079  23.952  0.00  0.00    +0.008 A 
ATOM     21  C   UNL     1      -4.183  -1.867  23.762  0.00  0.00    +0.000 A 
ATOM     22  C   UNL     1      -3.766  -2.344  24.289  0.00  0.00    +0.003 A 
ATOM     23  C   UNL     1      -3.503  -2.034  25.007  0.00  0.00    +0.037 A 
ATOM     24  C   UNL     1      -3.657  -1.246  25.198  0.00  0.00    +0.143 A 
BRANCH  24  25
ATOM     25  O   UNL     1      -3.394  -0.936  25.915  0.00  0.00    -0.471 OA
ATOM     26  C   UNL     1      -2.911  -1.389  26.407  0.00  0.00    +0.252 C 
ENDBRANCH  24  25
ENDBRANCH  17  19
ENDBRANCH  15  16
TORSDOF 5
ENDMDL
MODEL 2
REMARK VINA RESULT:     -10.9      1.078      3.546
REMARK  Name = 
REMARK  5 active torsions:
REMARK  status: ('A' for Active; 'I' for Inactive)
REMARK    1  A    between atoms: O_2  and  C_3
REMARK    2  A    between atoms: C_6  and  C_9
REMARK    3  A    between atoms: C_15  and  N_16
REMARK    4  A    between atoms: C_17  and  C_19
REMARK    5  A    between atoms: C_24  and  O_25
REMARK                            x       y       z     vdW  Elec       q    Type
REMARK                         _______ _______ _______ _____ _____    ______ ____
ROOT
ATOM      9  C   UNL     1      -4.644   0.798  24.964  0.00  0.00    +0.048 C 
ATOM     10  C   UNL     1      -5.459   0.918  24.931  0.00  0.00    +0.042 C 
ATOM     11  C   UNL     1      -5.600   1.727  25.004  0.00  0.00    +0.184 C 
ATOM     12  O   UNL     1      -6.341   2.093  25.000  0.00  0.00    -0.220 OA
ATOM     13  C   UNL     1      -4.872   2.108  25.081  0.00  0.00    +0.202 C 
ATOM     14  O   UNL     1      -4.757   2.921  25.167  0.00  0.00    -0.219 OA
ATOM     15  C   UNL     1      -4.281   1.534  25.056  0.00  0.00    +0.132 C 
ENDROOT
BRANCH   9   6
ATOM      3  C   UNL     1      -3.486  -1.384  24.811  0.00  0.00    +0.139 A 
ATOM      4  C   UNL     1      -3.810  -1.041  24.135  0.00  0.00    +0.037 A 
ATOM      5  C   UNL     1      -4.196  -0.313  24.186  0.00  0.00    -0.001 A 
ATOM      6  C   UNL     1      -4.258   0.071  24.913  0.00  0.00    -0.020 A 
ATOM      7  C   UNL     1      -3.934  -0.272  25.589  0.00  0.00    -0.001 A 
ATOM      8  C   UNL     1      -3.548  -1.001  25.538  0.00  0.00    +0.037 A 
BRANCH   3   2
ATOM      1  C   UNL     1      -2.292  -2.140  24.600  0.00  0.00    +0.252 C 
ATOM      2  O   UNL     1      -3.101  -2.112  24.760  0.00  0.00    -0.471 OA
ENDBRANCH   3   2
ENDBRANCH   9   6
BRANCH  15  16
ATOM     16  N   UNL     1      -3.470   1.671  25.113  0.00  0.00    -0.200 NA
ATOM     17  C   UNL     1      -3.117   2.257  24.652  0.00  0.00    +0.268 C 
ATOM     18  O   UNL     1      -3.575   2.706  24.134  0.00  0.00    -0.268 OA
BRANCH  17  19
ATOM     19  C   UNL     1      -2.305   2.394  24.710  0.00  0.00    +0.089 A 
ATOM     20  C   UNL     1      -1.977   2.633  25.428  0.00  0.00    +0.008 A 
ATOM     21  C   UNL     1      -1.165   2.770  25.485  0.00  0.00    +0.000 A 
ATOM     22  C   UNL     1      -0.682   2.668  24.824  0.00  0.00    +0.003 A 
ATOM     23  C   UNL     1      -1.011   2.429  24.106  0.00  0.00    +0.037 A 
ATOM     24  C   UNL     1      -1.823   2.292  24.049  0.00  0.00    +0.143 A 
BRANCH  24  25
ATOM     25  O   UNL     1      -2.151   2.053  23.331  0.00  0.00    -0.471 OA
ATOM     26  C   UNL     1      -1.661   1.879  22.691  0.00  0.00    +0.252 C 
ENDBRANCH  24  25
ENDBRANCH  17  19
ENDBRANCH  15  16
TORSDOF 5
ENDMDL
MODEL 3
REMARK VINA RESULT:     -10.2      1.592      2.163
REMARK  Name = 
REMARK  5 active torsions:
REMARK  status: ('A' for Active; 'I' for Inactive)
REMARK    1  A    between atoms: O_2  and  C_3
REMARK    2  A    between atoms: C_6  and  C_9
REMARK    3  A    between atoms: C_15  and  N_16
REMARK    4  A    between atoms: C_17  and  C_19
REMARK    5  A    between atoms: C_24  and  O_25
REMARK                            x       y       z     vdW  Elec       q    Type
REMARK                         _______ _______ _______ _____ _____    ______ ____
ROOT
ATOM      9  C   UNL     1      -4.030   3.518  25.516  0.00  0.00    +0.048 C 
ATOM     10  C   UNL     1      -4.569   4.139  25.581  0.00  0.00    +0.042 C 
ATOM     11  C   UNL     1      -5.329   3.819  25.576  0.00  0.00    +0.184 C 
ATOM     12  O   UNL     1      -6.034   4.245  25.630  0.00  0.00    -0.220 OA
ATOM     13  C   UNL     1      -5.260   3.000  25.508  0.00  0.00    +0.202 C 
ATOM     14  O   UNL     1      -5.886   2.462  25.482  0.00  0.00    -0.219 OA
ATOM     15  C   UNL     1      -4.458   2.813  25.471  0.00  0.00    +0.132 C 
ENDROOT
BRANCH   9   6
ATOM      3  C   UNL     1      -1.565   3.727  25.465  0.00  0.00    +0.139 A 
ATOM      4  C   UNL     1      -2.011   3.957  24.812  0.00  0.00    +0.037 A 
ATOM      5  C   UNL     1      -2.834   3.887  24.829  0.00  0.00    -0.001 A 
ATOM      6  C   UNL     1      -3.209   3.587  25.499  0.00  0.00    -0.020 A 
ATOM      7  C   UNL     1      -2.762   3.357  26.153  0.00  0.00    -0.001 A 
ATOM      8  C   UNL     1      -1.939   3.427  26.135  0.00  0.00    +0.037 A 
BRANCH   3   2
ATOM      1  C   UNL     1      -0.272   3.121  25.398  0.00  0.00    +0.252 C 
ATOM      2  O   UNL     1      -0.743   3.797  25.448  0.00  0.00    -0.471 OA
ENDBRANCH   3   2
ENDBRANCH   9   6
BRANCH  15  16
ATOM     16  N   UNL     1      -4.139   2.056  25.402  0.00  0.00    -0.200 NA
ATOM     17  C   UNL     1      -4.421   1.542  24.821  0.00  0.00    +0.268 C 
ATOM     18  O   UNL     1      -5.021   1.785  24.309  0.00  0.00    -0.268 OA
BRANCH  17  19
ATOM     19  C   UNL     1      -4.102   0.784  24.751  0.00  0.00    +0.089 A 
ATOM     20  C   UNL     1      -4.215   0.232  25.353  0.00  0.00    +0.008 A 
ATOM     21  C   UNL     1      -3.896  -0.526  25.283  0.00  0.00    +0.000 A 
ATOM     22  C   UNL     1      -3.464  -0.731  24.611  0.00  0.00    +0.003 A 
ATOM     23  C   UNL     1      -3.350  -0.179  24.008  0.00  0.00    +0.037 A 
ATOM     24  C   UNL     1      -3.669   0.579  24.078  0.00  0.00    +0.143 A 
BRANCH  24  25
ATOM     25  O   UNL     1      -3.556   1.132  23.476  0.00  0.00    -0.471 OA
ATOM     26  C   UNL     1      -3.013   0.980  22.875  0.00  0.00    +0.252 C 
ENDBRANCH  24  25
ENDBRANCH  17  19
ENDBRANCH  15  16
TORSDOF 5
ENDMDL
MODEL 4
REMARK VINA RESULT:     -10.1      1.485      4.514
REMARK  Name = 
REMARK  5 active torsions:
REMARK  status: ('A' for Active; 'I' for Inactive)
REMARK    1  A    between atoms: O_2  and  C_3
REMARK    2  A    between atoms: C_6  and  C_9
REMARK    3  A    between atoms: C_15  and  N_16
REMARK    4  A    between atoms: C_17  and  C_19
REMARK    5  A    between atoms: C_24  and  O_25
REMARK                            x       y       z     vdW  Elec       q    Type
REMARK                         _______ _______ _______ _____ _____    ______ ____
ROOT
ATOM      9  C   UNL     1      -2.652  -0.943  24.818  0.00  0.00    +0.048 C 
ATOM     10  C   UNL     1      -2.624  -1.741  24.611  0.00  0.00    +0.042 C 
ATOM     11  C   UNL     1      -1.843  -1.995  24.680  0.00  0.00    +0.184 C 
ATOM     12  O   UNL     1      -1.565  -2.757  24.526  0.00  0.00    -0.220 OA
ATOM     13  C   UNL     1      -1.387  -1.354  24.931  0.00  0.00    +0.202 C 
ATOM     14  O   UNL     1      -0.574  -1.363  25.071  0.00  0.00    -0.219 OA
ATOM     15  C   UNL     1      -1.887  -0.704  25.016  0.00  0.00    +0.132 C 
ENDROOT
BRANCH   9   6
ATOM      3  C   UNL     1      -4.673   0.485  24.844  0.00  0.00    +0.139 A 
ATOM      4  C   UNL     1      -4.358   0.204  25.552  0.00  0.00    +0.037 A 
ATOM      5  C   UNL     1      -3.683  -0.273  25.544  0.00  0.00    -0.001 A 
ATOM      6  C   UNL     1      -3.326  -0.467  24.827  0.00  0.00    -0.020 A 
ATOM      7  C   UNL     1      -3.641  -0.186  24.119  0.00  0.00    -0.001 A 
ATOM      8  C   UNL     1      -4.315   0.290  24.128  0.00  0.00    +0.037 A 
BRANCH   3   2
ATOM      1  C   UNL     1      -5.273   1.782  24.855  0.00  0.00    +0.252 C 
ATOM      2  O   UNL     1      -5.347   0.960  24.853  0.00  0.00    -0.471 OA
ENDBRANCH   3   2
ENDBRANCH   9   6
BRANCH  15  16
ATOM     16  N   UNL     1      -1.662   0.052  25.257  0.00  0.00    -0.200 NA
ATOM     17  C   UNL     1      -1.043   0.439  24.873  0.00  0.00    +0.268 C 
ATOM     18  O   UNL     1      -0.649   0.071  24.249  0.00  0.00    -0.268 OA
BRANCH  17  19
ATOM     19  C   UNL     1      -0.818   1.196  25.113  0.00  0.00    +0.089 A 
ATOM     20  C   UNL     1      -0.577   1.327  25.891  0.00  0.00    +0.008 A 
ATOM     21  C   UNL     1      -0.352   2.084  26.132  0.00  0.00    +0.000 A 
ATOM     22  C   UNL     1      -0.368   2.709  25.594  0.00  0.00    +0.003 A 
ATOM     23  C   UNL     1      -0.609   2.578  24.816  0.00  0.00    +0.037 A 
ATOM     24  C   UNL     1      -0.834   1.821  24.575  0.00  0.00    +0.143 A 
BRANCH  24  25
ATOM     25  O   UNL     1      -1.075   1.691  23.797  0.00  0.00    -0.471 OA
ATOM     26  C   UNL     1      -1.262   2.330  23.311  0.00  0.00    +0.252 C 
ENDBRANCH  24  25
ENDBRANCH  17  19
ENDBRANCH  15  16
TORSDOF 5
ENDMDL
MODEL 5
REMARK VINA RESULT:     -10.1      1.114      2.891
REMARK  Name = 
REMARK  5 active torsions:
REMARK  status: ('A' for Active; 'I' for Inactive)
REMARK    1  A    between atoms: O_2  and  C_3
REMARK    2  A    between atoms: C_6  and  C_9
REMARK    3  A    between atoms: C_15  and  N_16
REMARK    4  A    between atoms: C_17  and  C_19
REMARK    5  A    between atoms: C_24  and  O_25
REMARK                            x       y       z     vdW  Elec       q    Type
REMARK                         _______ _______ _______ _____ _____    ______ ____
ROOT
ATOM      9  C   UNL     1      -2.048   2.295  24.412  0.00  0.00    +0.048 C 
ATOM     10  C   UNL     1      -1.308   2.659  24.415  0.00  0.00    +0.042 C 
ATOM     11  C   UNL     1      -0.748   2.099  24.186  0.00  0.00    +0.184 C 
ATOM     12  O   UNL     1       0.064   2.227  24.113  0.00  0.00    -0.220 OA
ATOM     13  C   UNL     1      -1.142   1.388  24.041  0.00  0.00    +0.202 C 
ATOM     14  O   UNL     1      -0.792   0.681  23.799  0.00  0.00    -0.219 OA
ATOM     15  C   UNL     1      -1.945   1.509  24.181  0.00  0.00    +0.132 C 
ENDROOT
BRANCH   9   6
ATOM      3  C   UNL     1      -4.201   3.369  24.995  0.00  0.00    +0.139 A 
ATOM      4  C   UNL     1      -4.014   3.222  24.205  0.00  0.00    +0.037 A 
ATOM      5  C   UNL     1      -3.296   2.863  24.011  0.00  0.00    -0.001 A 
ATOM      6  C   UNL     1      -2.766   2.653  24.606  0.00  0.00    -0.020 A 
ATOM      7  C   UNL     1      -2.952   2.800  25.396  0.00  0.00    -0.001 A 
ATOM      8  C   UNL     1      -3.671   3.159  25.590  0.00  0.00    +0.037 A 
BRANCH   3   2
ATOM      1  C   UNL     1      -5.504   3.295  25.575  0.00  0.00    +0.252 C 
ATOM      2  O   UNL     1      -4.918   3.727  25.189  0.00  0.00    -0.471 OA
ENDBRANCH   3   2
ENDBRANCH   9   6
BRANCH  15  16
ATOM     16  N   UNL     1      -2.541   0.945  24.104  0.00  0.00    -0.200 NA
ATOM     17  C   UNL     1      -2.454   0.203  24.453  0.00  0.00    +0.268 C 
ATOM     18  O   UNL     1      -1.771   0.025  24.880  0.00  0.00    -0.268 OA
BRANCH  17  19
ATOM     19  C   UNL     1      -3.050  -0.363  24.376  0.00  0.00    +0.089 A 
ATOM     20  C   UNL     1      -3.422  -0.473  23.648  0.00  0.00    +0.008 A 
ATOM     21  C   UNL     1      -4.019  -1.038  23.571  0.00  0.00    +0.000 A 
ATOM     22  C   UNL     1      -4.243  -1.493  24.222  0.00  0.00    +0.003 A 
ATOM     23  C   UNL     1      -3.870  -1.382  24.950  0.00  0.00    +0.037 A 
ATOM     24  C   UNL     1      -3.274  -0.817  25.027  0.00  0.00    +0.143 A 
BRANCH  24  25
ATOM     25  O   UNL     1      -2.902  -0.707  25.755  0.00  0.00    -0.471 OA
ATOM     26  C   UNL     1      -3.102  -1.184  26.397  0.00  0.00    +0.252 C 
ENDBRANCH  24  25
ENDBRANCH  17  19
ENDBRANCH  15  16
TORSDOF 5
ENDMDL
MODEL 6
REMARK VINA RESULT:     -10.0      1.461      3.364
REMARK  Name = 
REMARK  5 active torsions:
REMARK  status: ('A' for Active; 'I' for Inactive)
REMARK    1  A    between atoms: O_2  and  C_3
REMARK    2  A    between atoms: C_6  and  C_9
REMARK    3  A    between atoms: C_15  and  N_16
REMARK    4  A    between atoms: C_17  and  C_19
REMARK    5  A    between atoms: C_24  and  O_25
REMARK                            x       y       z     vdW  Elec       q    Type
REMARK                         _______ _______ _______ _____ _____    ______ ____
ROOT
ATOM      9  C   UNL     1      -1.810  -0.532  24.811  0.00  0.00    +0.048 C 
ATOM     10  C   UNL     1      -1.570  -1.298  24.622  0.00  0.00    +0.042 C 
ATOM     11  C   UNL     1      -2.246  -1.755  24.505  0.00  0.00    +0.184 C 
ATOM     12  O   UNL     1      -2.262  -2.556  24.307  0.00  0.00    -0.220 OA
ATOM     13  C   UNL     1      -2.905  -1.272  24.622  0.00  0.00    +0.202 C 
ATOM     14  O   UNL     1      -3.694  -1.505  24.560  0.00  0.00    -0.219 OA
ATOM     15  C   UNL     1      -2.636  -0.516  24.811  0.00  0.00    +0.132 C 
ENDROOT
BRANCH   9   6
ATOM      3  C   UNL     1      -0.319   1.383  25.294  0.00  0.00    +0.139 A 
ATOM      4  C   UNL     1      -0.767   1.047  25.899  0.00  0.00    +0.037 A 
ATOM      5  C   UNL     1      -1.264   0.408  25.738  0.00  0.00    -0.001 A 
ATOM      6  C   UNL     1      -1.313   0.106  24.972  0.00  0.00    -0.020 A 
ATOM      7  C   UNL     1      -0.866   0.443  24.367  0.00  0.00    -0.001 A 
ATOM      8  C   UNL     1      -0.368   1.082  24.528  0.00  0.00    +0.037 A 
BRANCH   3   2
ATOM      1  C   UNL     1      -0.131   2.715  25.777  0.00  0.00    +0.252 C 
ATOM      2  O   UNL     1       0.178   2.022  25.455  0.00  0.00    -0.471 OA
ENDBRANCH   3   2
ENDBRANCH   9   6
BRANCH  15  16
ATOM     16  N   UNL     1      -3.108   0.141  24.971  0.00  0.00    -0.200 NA
ATOM     17  C   UNL     1      -3.685   0.375  24.431  0.00  0.00    +0.268 C 
ATOM     18  O   UNL     1      -3.791  -0.047  23.730  0.00  0.00    -0.268 OA
BRANCH  17  19
ATOM     19  C   UNL     1      -4.158   1.032  24.591  0.00  0.00    +0.089 A 
ATOM     20  C   UNL     1      -4.688   1.015  25.223  0.00  0.00    +0.008 A 
ATOM     21  C   UNL     1      -5.160   1.673  25.383  0.00  0.00    +0.000 A 
ATOM     22  C   UNL     1      -5.103   2.346  24.911  0.00  0.00    +0.003 A 
ATOM     23  C   UNL     1      -4.573   2.363  24.279  0.00  0.00    +0.037 A 
ATOM     24  C   UNL     1      -4.101   1.706  24.118  0.00  0.00    +0.143 A 
BRANCH  24  25
ATOM     25  O   UNL     1      -3.571   1.723  23.486  0.00  0.00    -0.471 OA
ATOM     26  C   UNL     1      -3.464   2.419  23.057  0.00  0.00    +0.252 C 
ENDBRANCH  24  25
ENDBRANCH  17  19
ENDBRANCH  15  16
TORSDOF 5
ENDMDL
MODEL 7
REMARK VINA RESULT:     -10.0      2.042      3.865
REMARK  Name = 
REMARK  5 active torsions:
REMARK  status: ('A' for Active; 'I' for Inactive)
REMARK    1  A    between atoms: O_2  and  C_3
REMARK    2  A    between atoms: C_6  and  C_9
REMARK    3  A    between atoms: C_15  and  N_16
REMARK    4  A    between atoms: C_17  and  C_19
REMARK    5  A    between atoms: C_24  and  O_25
REMARK                            x       y       z     vdW  Elec       q    Type
REMARK                         _______ _______ _______ _____ _____    ______ ____
ROOT
ATOM      9  C   UNL     1      -2.232   3.988  25.227  0.00  0.00    +0.048 C 
ATOM     10  C   UNL     1      -1.891   4.727  25.094  0.00  0.00    +0.042 C 
ATOM     11  C   UNL     1      -1.076   4.622  25.024  0.00  0.00    +0.184 C 
ATOM     12  O   UNL     1      -0.520   5.217  24.888  0.00  0.00    -0.220 OA
ATOM     13  C   UNL     1      -0.914   3.818  25.113  0.00  0.00    +0.202 C 
ATOM     14  O   UNL     1      -0.167   3.468  25.082  0.00  0.00    -0.219 OA
ATOM     15  C   UNL     1      -1.628   3.426  25.239  0.00  0.00    +0.132 C 
ENDROOT
BRANCH   9   6
ATOM      3  C   UNL     1      -4.646   3.535  25.537  0.00  0.00    +0.139 A 
ATOM      4  C   UNL     1      -4.349   3.691  24.784  0.00  0.00    +0.037 A 
ATOM      5  C   UNL     1      -3.544   3.843  24.680  0.00  0.00    -0.001 A 
ATOM      6  C   UNL     1      -3.037   3.837  25.330  0.00  0.00    -0.020 A 
ATOM      7  C   UNL     1      -3.333   3.680  26.083  0.00  0.00    -0.001 A 
ATOM      8  C   UNL     1      -4.139   3.529  26.187  0.00  0.00    +0.037 A 
BRANCH   3   2
ATOM      1  C   UNL     1      -5.735   2.611  25.590  0.00  0.00    +0.252 C 
ATOM      2  O   UNL     1      -5.450   3.383  25.640  0.00  0.00    -0.471 OA
ENDBRANCH   3   2
ENDBRANCH   9   6
BRANCH  15  16
ATOM     16  N   UNL     1      -1.722   2.615  25.355  0.00  0.00    -0.200 NA
ATOM     17  C   UNL     1      -1.393   2.081  24.820  0.00  0.00    +0.268 C 
ATOM     18  O   UNL     1      -0.970   2.357  24.168  0.00  0.00    -0.268 OA
BRANCH  17  19
ATOM     19  C   UNL     1      -1.487   1.269  24.937  0.00  0.00    +0.089 A 
ATOM     20  C   UNL     1      -1.165   0.908  25.605  0.00  0.00    +0.008 A 
ATOM     21  C   UNL     1      -1.259   0.097  25.721  0.00  0.00    +0.000 A 
ATOM     22  C   UNL     1      -1.676  -0.353  25.170  0.00  0.00    +0.003 A 
ATOM     23  C   UNL     1      -1.998   0.008  24.502  0.00  0.00    +0.037 A 
ATOM     24  C   UNL     1      -1.904   0.819  24.385  0.00  0.00    +0.143 A 
BRANCH  24  25
ATOM     25  O   UNL     1      -2.227   1.180  23.717  0.00  0.00    -0.471 OA
ATOM     26  C   UNL     1      -2.747   0.762  23.234  0.00  0.00    +0.252 C 
ENDBRANCH  24  25
ENDBRANCH  17  19
ENDBRANCH  15  16
TORSDOF 5
ENDMDL
MODEL 8
REMARK VINA RESULT:     -10.0      1.560      4.543
REMARK  Name = 
REMARK  5 active torsions:
REMARK  status: ('A' for Active; 'I' for Inactive)
REMARK    1  A    between atoms: O_2  and  C_3
REMARK    2  A    between atoms: C_6  and  C_9
REMARK    3  A    between atoms: C_15  and  N_16
REMARK    4  A    between atoms: C_17  and  C_19
REMARK    5  A    between atoms: C_24  and  O_25
REMARK                            x       y       z     vdW  Elec       q    Type
REMARK                         _______ _______ _______ _____ _____    ______ ____
ROOT
ATOM      9  C   UNL     1      -0.950   0.477  24.515  0.00  0.00    +0.048 C 
ATOM     10  C   UNL     1      -0.314   0.189  24.075  0.00  0.00    +0.042 C 
ATOM     11  C   UNL     1       0.184   0.822  23.903  0.00  0.00    +0.184 C 
ATOM     12  O   UNL     1       0.887   0.783  23.472  0.00  0.00    -0.220 OA
ATOM     13  C   UNL     1      -0.143   1.502  24.235  0.00  0.00    +0.202 C 
ATOM     14  O   UNL     1       0.175   2.263  24.196  0.00  0.00    -0.219 OA
ATOM     15  C   UNL     1      -0.844   1.290  24.613  0.00  0.00    +0.132 C 
ENDROOT
BRANCH   9   6
ATOM      3  C   UNL     1      -2.843  -0.859  25.385  0.00  0.00    +0.139 A 
ATOM      4  C   UNL     1      -2.833  -0.626  24.594  0.00  0.00    +0.037 A 
ATOM      5  C   UNL     1      -2.201  -0.180  24.304  0.00  0.00    -0.001 A 
ATOM      6  C   UNL     1      -1.581   0.031  24.805  0.00  0.00    -0.020 A 
ATOM      7  C   UNL     1      -1.592  -0.202  25.595  0.00  0.00    -0.001 A 
ATOM      8  C   UNL     1      -2.223  -0.648  25.885  0.00  0.00    +0.037 A 
BRANCH   3   2
ATOM      1  C   UNL     1      -3.564  -2.092  25.446  0.00  0.00    +0.252 C 
ATOM      2  O   UNL     1      -3.474  -1.305  25.675  0.00  0.00    -0.471 OA
ENDBRANCH   3   2
ENDBRANCH   9   6
BRANCH  15  16
ATOM     16  N   UNL     1      -1.350   1.798  25.019  0.00  0.00    -0.200 NA
ATOM     17  C   UNL     1      -1.601   2.500  24.664  0.00  0.00    +0.268 C 
ATOM     18  O   UNL     1      -1.346   2.692  23.904  0.00  0.00    -0.268 OA
BRANCH  17  19
ATOM     19  C   UNL     1      -2.108   3.009  25.070  0.00  0.00    +0.089 A 
ATOM     20  C   UNL     1      -1.876   3.333  25.792  0.00  0.00    +0.008 A 
ATOM     21  C   UNL     1      -2.383   3.843  26.198  0.00  0.00    +0.000 A 
ATOM     22  C   UNL     1      -3.121   4.028  25.881  0.00  0.00    +0.003 A 
ATOM     23  C   UNL     1      -3.353   3.704  25.158  0.00  0.00    +0.037 A 
ATOM     24  C   UNL     1      -2.847   3.194  24.753  0.00  0.00    +0.143 A 
BRANCH  24  25
ATOM     25  O   UNL     1      -3.079   2.871  24.030  0.00  0.00    -0.471 OA
ATOM     26  C   UNL     1      -3.837   3.014  23.739  0.00  0.00    +0.252 C 
ENDBRANCH  24  25
ENDBRANCH  17  19
ENDBRANCH  15  16
TORSDOF 5
ENDMDL
