MODEL 1
REMARK VINA RESULT:     -10.7      0.000      0.000
REMARK  Name = 
REMARK  6 active torsions:
REMARK  status: ('A' for Active; 'I' for Inactive)
REMARK    1  A    between atoms: O_2  and  C_3
REMARK    2  A    between atoms: C_3  and  C_4
REMARK    3  A    between atoms: C_6  and  C_7
REMARK    4  A    between atoms: C_7  and  C_8
REMARK    5  A    between atoms: C_13  and  C_14
REMARK    6  A    between atoms: C_14  and  C_15
REMARK                            x       y       z     vdW  Elec       q    Type
REMARK                         _______ _______ _______ _____ _____    ______ ____
ROOT
ATOM      8  C   UNL     1      -4.032   3.354  24.900  0.00  0.00    +0.024 C 
ATOM      9  C   UNL     1      -4.319   4.036  25.263  0.00  0.00    +0.089 C 
ATOM     10  N   UNL     1      -5.025   4.012  25.689  0.00  0.00    -0.218 NA
ATOM     11  C   UNL     1      -5.445   3.304  25.751  0.00  0.00    +0.089 C 
ATOM     12  C   UNL     1      -5.158   2.621  25.387  0.00  0.00    +0.019 C 
ATOM     13  C   UNL     1      -4.452   2.646  24.962  0.00  0.00    +0.012 C 
ENDROOT
BRANCH   8   7
ATOM      7  C   UNL     1      -3.325   3.378  24.474  0.00  0.00    +0.051 C 
BRANCH   7   6
ATOM      4  C   UNL     1      -1.430   3.765  25.375  0.00  0.00    +0.184 A 
ATOM      5  C   UNL     1      -1.977   3.244  25.044  0.00  0.00    +0.056 A 
ATOM      6  C   UNL     1      -2.643   3.679  24.826  0.00  0.00    +0.100 A 
ATOM     29  N   UNL     1      -2.508   4.468  25.024  0.00  0.00    -0.082 NA
ATOM     30  O   UNL     1      -1.758   4.522  25.363  0.00  0.00    -0.356 OA
BRANCH   4   3
ATOM      3  C   UNL     1      -0.685   3.565  25.668  0.00  0.00    +0.209 C 
BRANCH   3   2
ATOM      1  C   UNL     1       0.180   2.610  26.288  0.00  0.00    +0.175 C 
ATOM      2  O   UNL     1      -0.579   2.857  26.078  0.00  0.00    -0.343 OA
ENDBRANCH   3   2
ENDBRANCH   4   3
ENDBRANCH   7   6
ENDBRANCH   8   7
BRANCH  13  14
ATOM     14  C   UNL     1      -4.165   1.963  24.598  0.00  0.00    +0.085 C 
BRANCH  14  15
ATOM     15  C   UNL     1      -4.631   1.283  24.573  0.00  0.00    +0.226 C 
ATOM     16  O   UNL     1      -5.454   1.345  24.563  0.00  0.00    -0.275 OA
ATOM     17  N   UNL     1      -4.274   0.539  24.559  0.00  0.00    -0.276 N 
ATOM     18  C   UNL     1      -4.740  -0.142  24.534  0.00  0.00    +0.115 C 
ATOM     19  C   UNL     1      -4.383  -0.885  24.519  0.00  0.00    +0.114 C 
ATOM     20  N   UNL     1      -3.561  -0.948  24.529  0.00  0.00    -0.290 N 
ATOM     21  C   UNL     1      -3.095  -0.267  24.554  0.00  0.00    +0.114 C 
ATOM     22  C   UNL     1      -3.451   0.476  24.569  0.00  0.00    +0.115 C 
ATOM     23  C   UNL     1      -3.203  -1.692  24.515  0.00  0.00    +0.132 A 
ATOM     24  N   UNL     1      -3.669  -2.372  24.490  0.00  0.00    -0.229 NA
ATOM     25  C   UNL     1      -3.311  -3.116  24.476  0.00  0.00    +0.100 A 
ATOM     26  C   UNL     1      -2.489  -3.179  24.486  0.00  0.00    +0.021 A 
ATOM     27  C   UNL     1      -2.024  -2.499  24.510  0.00  0.00    +0.004 A 
ATOM     28  C   UNL     1      -2.381  -1.755  24.525  0.00  0.00    +0.034 A 
ENDBRANCH  14  15
ENDBRANCH  13  14
TORSDOF 6
ENDMDL
MODEL 2
REMARK VINA RESULT:     -10.5      1.469      3.209
REMARK  Name = 
REMARK  6 active torsions:
REMARK  status: ('A' for Active; 'I' for Inactive)
REMARK    1  A    between atoms: O_2  and  C_3
REMARK    2  A    between atoms: C_3  and  C_4
REMARK    3  A    between atoms: C_6  and  C_7
REMARK    4  A    between atoms: C_7  and  C_8
REMARK    5  A    between atoms: C_13  and  C_14
REMARK    6  A    between atoms: C_14  and  C_15
REMARK                            x       y       z     vdW  Elec       q    Type
REMARK                         _______ _______ _______ _____ _____    ______ ____
ROOT
ATOM      8  C   UNL     1      -1.313   3.382  25.421  0.00  0.00    +0.024 C 
ATOM      9  C   UNL     1      -1.140   4.137  25.138  0.00  0.00    +0.089 C 
ATOM     10  N   UNL     1      -0.581   4.236  24.540  0.00  0.00    -0.218 NA
ATOM     11  C   UNL     1      -0.195   3.578  24.224  0.00  0.00    +0.089 C 
ATOM     12  C   UNL     1      -0.368   2.822  24.507  0.00  0.00    +0.019 C 
ATOM     13  C   UNL     1      -0.927   2.724  25.106  0.00  0.00    +0.012 C 
ENDROOT
BRANCH   8   7
ATOM      7  C   UNL     1      -1.872   3.283  26.021  0.00  0.00    +0.051 C 
BRANCH   7   6
ATOM      4  C   UNL     1      -3.909   3.847  25.724  0.00  0.00    +0.184 A 
ATOM      5  C   UNL     1      -3.307   3.283  25.700  0.00  0.00    +0.056 A 
ATOM      6  C   UNL     1      -2.611   3.644  25.957  0.00  0.00    +0.100 A 
ATOM     29  N   UNL     1      -2.783   4.430  26.139  0.00  0.00    -0.082 NA
ATOM     30  O   UNL     1      -3.585   4.555  25.995  0.00  0.00    -0.356 OA
BRANCH   4   3
ATOM      3  C   UNL     1      -4.698   3.723  25.513  0.00  0.00    +0.209 C 
BRANCH   3   2
ATOM      1  C   UNL     1      -5.842   2.867  25.520  0.00  0.00    +0.175 C 
ATOM      2  O   UNL     1      -5.122   3.100  25.848  0.00  0.00    -0.343 OA
ENDBRANCH   3   2
ENDBRANCH   4   3
ENDBRANCH   7   6
ENDBRANCH   8   7
BRANCH  13  14
ATOM     14  C   UNL     1      -1.100   1.968  25.389  0.00  0.00    +0.085 C 
BRANCH  14  15
ATOM     15  C   UNL     1      -0.690   1.315  25.096  0.00  0.00    +0.226 C 
ATOM     16  O   UNL     1       0.106   1.385  24.891  0.00  0.00    -0.275 OA
ATOM     17  N   UNL     1      -1.076   0.591  25.009  0.00  0.00    -0.276 N 
ATOM     18  C   UNL     1      -0.666  -0.062  24.717  0.00  0.00    +0.115 C 
ATOM     19  C   UNL     1      -1.053  -0.786  24.630  0.00  0.00    +0.114 C 
ATOM     20  N   UNL     1      -1.849  -0.856  24.835  0.00  0.00    -0.290 N 
ATOM     21  C   UNL     1      -2.258  -0.202  25.128  0.00  0.00    +0.114 C 
ATOM     22  C   UNL     1      -1.873   0.521  25.215  0.00  0.00    +0.115 C 
ATOM     23  C   UNL     1      -2.235  -1.580  24.748  0.00  0.00    +0.132 A 
ATOM     24  N   UNL     1      -1.826  -2.234  24.456  0.00  0.00    -0.229 NA
ATOM     25  C   UNL     1      -2.212  -2.958  24.369  0.00  0.00    +0.100 A 
ATOM     26  C   UNL     1      -3.008  -3.027  24.574  0.00  0.00    +0.021 A 
ATOM     27  C   UNL     1      -3.418  -2.374  24.867  0.00  0.00    +0.004 A 
ATOM     28  C   UNL     1      -3.031  -1.650  24.954  0.00  0.00    +0.034 A 
ENDBRANCH  14  15
ENDBRANCH  13  14
TORSDOF 6
ENDMDL
MODEL 3
REMARK VINA RESULT:     -10.4      2.148      4.988
REMARK  Name = 
REMARK  6 active torsions:
REMARK  status: ('A' for Active; 'I' for Inactive)
REMARK    1  A    between atoms: O_2  and  C_3
REMARK    2  A    between atoms: C_3  and  C_4
REMARK    3  A    between atoms: C_6  and  C_7
REMARK    4  A    between atoms: C_7  and  C_8
REMARK    5  A    between atoms: C_13  and  C_14
REMARK    6  A    between atoms: C_14  and  C_15
REMARK                            x       y       z     vdW  Elec       q    Type
REMARK                         _______ _______ _______ _____ _____    ______ ____
ROOT
ATOM      8  C   UNL     1      -1.963  -1.408  24.656  0.00  0.00    +0.024 C 
ATOM      9  C   UNL     1      -1.686  -2.181  24.583  0.00  0.00    +0.089 C 
ATOM     10  N   UNL     1      -2.210  -2.793  24.404  0.00  0.00    -0.218 NA
ATOM     11  C   UNL     1      -3.012  -2.630  24.299  0.00  0.00    +0.089 C 
ATOM     12  C   UNL     1      -3.289  -1.856  24.372  0.00  0.00    +0.019 C 
ATOM     13  C   UNL     1      -2.765  -1.245  24.551  0.00  0.00    +0.012 C 
ENDROOT
BRANCH   8   7
ATOM      7  C   UNL     1      -1.438  -0.796  24.835  0.00  0.00    +0.051 C 
BRANCH   7   6
ATOM      4  C   UNL     1       0.329  -0.435  23.695  0.00  0.00    +0.184 A 
ATOM      5  C   UNL     1      -0.455  -0.262  23.882  0.00  0.00    +0.056 A 
ATOM      6  C   UNL     1      -0.694  -0.776  24.481  0.00  0.00    +0.100 A 
ATOM     29  N   UNL     1      -0.057  -1.267  24.664  0.00  0.00    -0.082 NA
ATOM     30  O   UNL     1       0.575  -1.057  24.178  0.00  0.00    -0.356 OA
BRANCH   4   3
ATOM      3  C   UNL     1       0.788  -0.054  23.124  0.00  0.00    +0.209 C 
BRANCH   3   2
ATOM      1  C   UNL     1       2.012   0.065  22.396  0.00  0.00    +0.175 C 
ATOM      2  O   UNL     1       1.557  -0.310  22.974  0.00  0.00    -0.343 OA
ENDBRANCH   3   2
ENDBRANCH   4   3
ENDBRANCH   7   6
ENDBRANCH   8   7
BRANCH  13  14
ATOM     14  C   UNL     1      -3.043  -0.471  24.624  0.00  0.00    +0.085 C 
BRANCH  14  15
ATOM     15  C   UNL     1      -3.827  -0.334  24.839  0.00  0.00    +0.226 C 
ATOM     16  O   UNL     1      -4.344  -0.968  24.943  0.00  0.00    -0.275 OA
ATOM     17  N   UNL     1      -4.095   0.439  24.948  0.00  0.00    -0.276 N 
ATOM     18  C   UNL     1      -4.880   0.576  25.163  0.00  0.00    +0.115 C 
ATOM     19  C   UNL     1      -5.148   1.349  25.272  0.00  0.00    +0.114 C 
ATOM     20  N   UNL     1      -4.631   1.983  25.168  0.00  0.00    -0.290 N 
ATOM     21  C   UNL     1      -3.846   1.845  24.953  0.00  0.00    +0.114 C 
ATOM     22  C   UNL     1      -3.578   1.073  24.844  0.00  0.00    +0.115 C 
ATOM     23  C   UNL     1      -4.899   2.757  25.277  0.00  0.00    +0.132 A 
ATOM     24  N   UNL     1      -5.683   2.894  25.491  0.00  0.00    -0.229 NA
ATOM     25  C   UNL     1      -5.951   3.667  25.601  0.00  0.00    +0.100 A 
ATOM     26  C   UNL     1      -5.434   4.301  25.496  0.00  0.00    +0.021 A 
ATOM     27  C   UNL     1      -4.650   4.164  25.282  0.00  0.00    +0.004 A 
ATOM     28  C   UNL     1      -4.382   3.391  25.173  0.00  0.00    +0.034 A 
ENDBRANCH  14  15
ENDBRANCH  13  14
TORSDOF 6
ENDMDL
MODEL 4
REMARK VINA RESULT:     -10.1      1.803      5.045
REMARK  Name = 
REMARK  6 active torsions:
REMARK  status: ('A' for Active; 'I' for Inactive)
REMARK    1  A    between atoms: O_2  and  C_3
REMARK    2  A    between atoms: C_3  and  C_4
REMARK    3  A    between atoms: C_6  and  C_7
REMARK    4  A    between atoms: C_7  and  C_8
REMARK    5  A    between atoms: C_13  and  C_14
REMARK    6  A    between atoms: C_14  and  C_15
REMARK                            x       y       z     vdW  Elec       q    Type
REMARK                         _______ _______ _______ _____ _____    ______ ____
ROOT
ATOM      8  C   UNL     1      -3.284  -1.120  24.829  0.00  0.00    +0.024 C 
ATOM      9  C   UNL     1      -3.597  -1.803  24.489  0.00  0.00    +0.089 C 
ATOM     10  N   UNL     1      -4.282  -1.761  24.032  0.00  0.00    -0.218 NA
ATOM     11  C   UNL     1      -4.656  -1.034  23.916  0.00  0.00    +0.089 C 
ATOM     12  C   UNL     1      -4.343  -0.350  24.256  0.00  0.00    +0.019 C 
ATOM     13  C   UNL     1      -3.658  -0.393  24.713  0.00  0.00    +0.012 C 
ENDROOT
BRANCH   8   7
ATOM      7  C   UNL     1      -2.598  -1.162  25.287  0.00  0.00    +0.051 C 
BRANCH   7   6
ATOM      4  C   UNL     1      -0.663  -1.447  24.432  0.00  0.00    +0.184 A 
ATOM      5  C   UNL     1      -1.242  -0.957  24.758  0.00  0.00    +0.056 A 
ATOM      6  C   UNL     1      -1.894  -1.425  24.948  0.00  0.00    +0.100 A 
ATOM     29  N   UNL     1      -1.718  -2.204  24.739  0.00  0.00    -0.082 NA
ATOM     30  O   UNL     1      -0.958  -2.217  24.421  0.00  0.00    -0.356 OA
BRANCH   4   3
ATOM      3  C   UNL     1       0.080  -1.208  24.164  0.00  0.00    +0.209 C 
BRANCH   3   2
ATOM      1  C   UNL     1       0.887  -0.344  23.361  0.00  0.00    +0.175 C 
ATOM      2  O   UNL     1       0.143  -0.601  23.610  0.00  0.00    -0.343 OA
ENDBRANCH   3   2
ENDBRANCH   4   3
ENDBRANCH   7   6
ENDBRANCH   8   7
BRANCH  13  14
ATOM     14  C   UNL     1      -3.345   0.291  25.053  0.00  0.00    +0.085 C 
BRANCH  14  15
ATOM     15  C   UNL     1      -3.777   0.993  25.037  0.00  0.00    +0.226 C 
ATOM     16  O   UNL     1      -4.602   0.971  25.011  0.00  0.00    -0.275 OA
ATOM     17  N   UNL     1      -3.385   1.719  25.046  0.00  0.00    -0.276 N 
ATOM     18  C   UNL     1      -3.817   2.422  25.030  0.00  0.00    +0.115 C 
ATOM     19  C   UNL     1      -3.424   3.147  25.039  0.00  0.00    +0.114 C 
ATOM     20  N   UNL     1      -2.600   3.170  25.064  0.00  0.00    -0.290 N 
ATOM     21  C   UNL     1      -2.168   2.466  25.081  0.00  0.00    +0.114 C 
ATOM     22  C   UNL     1      -2.560   1.742  25.072  0.00  0.00    +0.115 C 
ATOM     23  C   UNL     1      -2.207   3.896  25.074  0.00  0.00    +0.132 A 
ATOM     24  N   UNL     1      -2.639   4.598  25.057  0.00  0.00    -0.229 NA
ATOM     25  C   UNL     1      -2.246   5.324  25.067  0.00  0.00    +0.100 A 
ATOM     26  C   UNL     1      -1.422   5.346  25.092  0.00  0.00    +0.021 A 
ATOM     27  C   UNL     1      -0.990   4.644  25.109  0.00  0.00    +0.004 A 
ATOM     28  C   UNL     1      -1.383   3.918  25.099  0.00  0.00    +0.034 A 
ENDBRANCH  14  15
ENDBRANCH  13  14
TORSDOF 6
ENDMDL
MODEL 5
REMARK VINA RESULT:      -9.9      2.211      5.598
REMARK  Name = 
REMARK  6 active torsions:
REMARK  status: ('A' for Active; 'I' for Inactive)
REMARK    1  A    between atoms: O_2  and  C_3
REMARK    2  A    between atoms: C_3  and  C_4
REMARK    3  A    between atoms: C_6  and  C_7
REMARK    4  A    between atoms: C_7  and  C_8
REMARK    5  A    between atoms: C_13  and  C_14
REMARK    6  A    between atoms: C_14  and  C_15
REMARK                            x       y       z     vdW  Elec       q    Type
REMARK                         _______ _______ _______ _____ _____    ______ ____
ROOT
ATOM      8  C   UNL     1      -0.538  -0.406  24.539  0.00  0.00    +0.024 C 
ATOM      9  C   UNL     1       0.012  -0.803  24.071  0.00  0.00    +0.089 C 
ATOM     10  N   UNL     1       0.442  -0.392  23.499  0.00  0.00    -0.218 NA
ATOM     11  C   UNL     1       0.321   0.418  23.396  0.00  0.00    +0.089 C 
ATOM     12  C   UNL     1      -0.229   0.816  23.865  0.00  0.00    +0.019 C 
ATOM     13  C   UNL     1      -0.659   0.404  24.436  0.00  0.00    +0.012 C 
ENDROOT
BRANCH   8   7
ATOM      7  C   UNL     1      -0.969  -0.817  25.111  0.00  0.00    +0.051 C 
BRANCH   7   6
ATOM      4  C   UNL     1      -2.314  -2.379  24.559  0.00  0.00    +0.184 A 
ATOM      5  C   UNL     1      -2.161  -1.586  24.728  0.00  0.00    +0.056 A 
ATOM      6  C   UNL     1      -1.360  -1.514  24.909  0.00  0.00    +0.100 A 
ATOM     29  N   UNL     1      -1.017  -2.262  24.851  0.00  0.00    -0.082 NA
ATOM     30  O   UNL     1      -1.607  -2.797  24.635  0.00  0.00    -0.356 OA
BRANCH   4   3
ATOM      3  C   UNL     1      -3.046  -2.698  24.350  0.00  0.00    +0.209 C 
BRANCH   3   2
ATOM      1  C   UNL     1      -4.361  -2.504  23.825  0.00  0.00    +0.175 C 
ATOM      2  O   UNL     1      -3.679  -2.200  24.176  0.00  0.00    -0.343 OA
ENDBRANCH   3   2
ENDBRANCH   4   3
ENDBRANCH   7   6
ENDBRANCH   8   7
BRANCH  13  14
ATOM     14  C   UNL     1      -1.210   0.803  24.904  0.00  0.00    +0.085 C 
BRANCH  14  15
ATOM     15  C   UNL     1      -1.264   1.625  24.867  0.00  0.00    +0.226 C 
ATOM     16  O   UNL     1      -0.589   2.078  24.725  0.00  0.00    -0.275 OA
ATOM     17  N   UNL     1      -1.994   1.995  24.972  0.00  0.00    -0.276 N 
ATOM     18  C   UNL     1      -2.049   2.817  24.934  0.00  0.00    +0.115 C 
ATOM     19  C   UNL     1      -2.780   3.186  25.039  0.00  0.00    +0.114 C 
ATOM     20  N   UNL     1      -3.454   2.734  25.181  0.00  0.00    -0.290 N 
ATOM     21  C   UNL     1      -3.399   1.911  25.218  0.00  0.00    +0.114 C 
ATOM     22  C   UNL     1      -2.670   1.542  25.113  0.00  0.00    +0.115 C 
ATOM     23  C   UNL     1      -4.185   3.104  25.285  0.00  0.00    +0.132 A 
ATOM     24  N   UNL     1      -4.240   3.926  25.248  0.00  0.00    -0.229 NA
ATOM     25  C   UNL     1      -4.970   4.295  25.352  0.00  0.00    +0.100 A 
ATOM     26  C   UNL     1      -5.645   3.843  25.494  0.00  0.00    +0.021 A 
ATOM     27  C   UNL     1      -5.590   3.021  25.532  0.00  0.00    +0.004 A 
ATOM     28  C   UNL     1      -4.859   2.651  25.427  0.00  0.00    +0.034 A 
ENDBRANCH  14  15
ENDBRANCH  13  14
TORSDOF 6
ENDMDL
MODEL 6
REMARK VINA RESULT:      -9.2      1.568      2.252
REMARK  Name = 
REMARK  6 active torsions:
REMARK  status: ('A' for Active; 'I' for Inactive)
REMARK    1  A    between atoms: O_2  and  C_3
REMARK    2  A    between atoms: C_3  and  C_4
REMARK    3  A    between atoms: C_6  and  C_7
REMARK    4  A    between atoms: C_7  and  C_8
REMARK    5  A    between atoms: C_13  and  C_14
REMARK    6  A    between atoms: C_14  and  C_15
REMARK                            x       y       z     vdW  Elec       q    Type
REMARK                         _______ _______ _______ _____ _____    ______ ____
ROOT
ATOM      8  C   UNL     1      -1.672   3.083  25.517  0.00  0.00    +0.024 C 
ATOM      9  C   UNL     1      -1.382   3.850  25.431  0.00  0.00    +0.089 C 
ATOM     10  N   UNL     1      -1.876   4.453  25.162  0.00  0.00    -0.218 NA
ATOM     11  C   UNL     1      -2.664   4.287  24.977  0.00  0.00    +0.089 C 
ATOM     12  C   UNL     1      -2.955   3.519  25.062  0.00  0.00    +0.019 C 
ATOM     13  C   UNL     1      -2.460   2.918  25.332  0.00  0.00    +0.012 C 
ENDROOT
BRANCH   8   7
ATOM      7  C   UNL     1      -1.177   2.481  25.787  0.00  0.00    +0.051 C 
BRANCH   7   6
ATOM      4  C   UNL     1       0.501   1.928  24.588  0.00  0.00    +0.184 A 
ATOM      5  C   UNL     1      -0.307   1.896  24.756  0.00  0.00    +0.056 A 
ATOM      6  C   UNL     1      -0.446   2.357  25.425  0.00  0.00    +0.100 A 
ATOM     29  N   UNL     1       0.275   2.673  25.672  0.00  0.00    -0.082 NA
ATOM     30  O   UNL     1       0.860   2.408  25.154  0.00  0.00    -0.356 OA
BRANCH   4   3
ATOM      3  C   UNL     1       0.881   1.546  23.964  0.00  0.00    +0.209 C 
BRANCH   3   2
ATOM      1  C   UNL     1       1.038   0.360  23.182  0.00  0.00    +0.175 C 
ATOM      2  O   UNL     1       0.570   0.848  23.655  0.00  0.00    -0.343 OA
ENDBRANCH   3   2
ENDBRANCH   4   3
ENDBRANCH   7   6
ENDBRANCH   8   7
BRANCH  13  14
ATOM     14  C   UNL     1      -2.751   2.150  25.417  0.00  0.00    +0.085 C 
BRANCH  14  15
ATOM     15  C   UNL     1      -3.369   1.889  24.937  0.00  0.00    +0.226 C 
ATOM     16  O   UNL     1      -3.881   2.434  24.588  0.00  0.00    -0.275 OA
ATOM     17  N   UNL     1      -3.476   1.081  24.806  0.00  0.00    -0.276 N 
ATOM     18  C   UNL     1      -4.094   0.820  24.326  0.00  0.00    +0.115 C 
ATOM     19  C   UNL     1      -4.200   0.012  24.195  0.00  0.00    +0.114 C 
ATOM     20  N   UNL     1      -3.689  -0.533  24.544  0.00  0.00    -0.290 N 
ATOM     21  C   UNL     1      -3.071  -0.271  25.024  0.00  0.00    +0.114 C 
ATOM     22  C   UNL     1      -2.964   0.536  25.155  0.00  0.00    +0.115 C 
ATOM     23  C   UNL     1      -3.795  -1.341  24.413  0.00  0.00    +0.132 A 
ATOM     24  N   UNL     1      -4.413  -1.603  23.933  0.00  0.00    -0.229 NA
ATOM     25  C   UNL     1      -4.520  -2.411  23.802  0.00  0.00    +0.100 A 
ATOM     26  C   UNL     1      -4.009  -2.956  24.150  0.00  0.00    +0.021 A 
ATOM     27  C   UNL     1      -3.391  -2.695  24.630  0.00  0.00    +0.004 A 
ATOM     28  C   UNL     1      -3.284  -1.887  24.761  0.00  0.00    +0.034 A 
ENDBRANCH  14  15
ENDBRANCH  13  14
TORSDOF 6
ENDMDL
MODEL 7
REMARK VINA RESULT:      -9.0      1.835      5.635
REMARK  Name = 
REMARK  6 active torsions:
REMARK  status: ('A' for Active; 'I' for Inactive)
REMARK    1  A    between atoms: O_2  and  C_3
REMARK    2  A    between atoms: C_3  and  C_4
REMARK    3  A    between atoms: C_6  and  C_7
REMARK    4  A    between atoms: C_7  and  C_8
REMARK    5  A    between atoms: C_13  and  C_14
REMARK    6  A    between atoms: C_14  and  C_15
REMARK                            x       y       z     vdW  Elec       q    Type
REMARK                         _______ _______ _______ _____ _____    ______ ____
ROOT
ATOM      8  C   UNL     1      -2.214  -1.203  25.165  0.00  0.00    +0.024 C 
ATOM      9  C   UNL     1      -2.336  -1.965  24.875  0.00  0.00    +0.089 C 
ATOM     10  N   UNL     1      -1.737  -2.351  24.460  0.00  0.00    -0.218 NA
ATOM     11  C   UNL     1      -1.014  -1.974  24.335  0.00  0.00    +0.089 C 
ATOM     12  C   UNL     1      -0.891  -1.211  24.625  0.00  0.00    +0.019 C 
ATOM     13  C   UNL     1      -1.490  -0.826  25.039  0.00  0.00    +0.012 C 
ENDROOT
BRANCH   8   7
ATOM      7  C   UNL     1      -2.813  -0.817  25.580  0.00  0.00    +0.051 C 
BRANCH   7   6
ATOM      4  C   UNL     1      -4.682  -0.091  24.847  0.00  0.00    +0.184 A 
ATOM      5  C   UNL     1      -4.009  -0.003  25.315  0.00  0.00    +0.056 A 
ATOM      6  C   UNL     1      -3.539  -0.673  25.215  0.00  0.00    +0.100 A 
ATOM     29  N   UNL     1      -3.922  -1.176  24.685  0.00  0.00    -0.082 NA
ATOM     30  O   UNL     1      -4.629  -0.816  24.458  0.00  0.00    -0.356 OA
BRANCH   4   3
ATOM      3  C   UNL     1      -5.301   0.451  24.780  0.00  0.00    +0.209 C 
BRANCH   3   2
ATOM      1  C   UNL     1      -5.761   1.799  24.885  0.00  0.00    +0.175 C 
ATOM      2  O   UNL     1      -5.144   1.260  24.792  0.00  0.00    -0.343 OA
ENDBRANCH   3   2
ENDBRANCH   4   3
ENDBRANCH   7   6
ENDBRANCH   8   7
BRANCH  13  14
ATOM     14  C   UNL     1      -1.367  -0.063  25.329  0.00  0.00    +0.085 C 
BRANCH  14  15
ATOM     15  C   UNL     1      -0.757   0.401  25.024  0.00  0.00    +0.226 C 
ATOM     16  O   UNL     1      -0.079   0.042  24.720  0.00  0.00    -0.275 OA
ATOM     17  N   UNL     1      -0.825   1.223  25.022  0.00  0.00    -0.276 N 
ATOM     18  C   UNL     1      -0.214   1.686  24.717  0.00  0.00    +0.115 C 
ATOM     19  C   UNL     1      -0.283   2.509  24.715  0.00  0.00    +0.114 C 
ATOM     20  N   UNL     1      -0.960   2.867  25.019  0.00  0.00    -0.290 N 
ATOM     21  C   UNL     1      -1.571   2.403  25.325  0.00  0.00    +0.114 C 
ATOM     22  C   UNL     1      -1.503   1.581  25.326  0.00  0.00    +0.115 C 
ATOM     23  C   UNL     1      -1.028   3.690  25.018  0.00  0.00    +0.132 A 
ATOM     24  N   UNL     1      -0.418   4.153  24.712  0.00  0.00    -0.229 NA
ATOM     25  C   UNL     1      -0.487   4.976  24.711  0.00  0.00    +0.100 A 
ATOM     26  C   UNL     1      -1.164   5.334  25.015  0.00  0.00    +0.021 A 
ATOM     27  C   UNL     1      -1.774   4.871  25.320  0.00  0.00    +0.004 A 
ATOM     28  C   UNL     1      -1.706   4.048  25.322  0.00  0.00    +0.034 A 
ENDBRANCH  14  15
ENDBRANCH  13  14
TORSDOF 6
ENDMDL
MODEL 8
REMARK VINA RESULT:      -8.9     16.142     18.708
REMARK  Name = 
REMARK  6 active torsions:
REMARK  status: ('A' for Active; 'I' for Inactive)
REMARK    1  A    between atoms: O_2  and  C_3
REMARK    2  A    between atoms: C_3  and  C_4
REMARK    3  A    between atoms: C_6  and  C_7
REMARK    4  A    between atoms: C_7  and  C_8
REMARK    5  A    between atoms: C_13  and  C_14
REMARK    6  A    between atoms: C_14  and  C_15
REMARK                            x       y       z     vdW  Elec       q    Type
REMARK                         _______ _______ _______ _____ _____    ______ ____
ROOT
ATOM      8  C   UNL     1      11.449   8.295  20.582  0.00  0.00    +0.024 C 
ATOM      9  C   UNL     1      10.667   8.171  20.812  0.00  0.00    +0.089 C 
ATOM     10  N   UNL     1      10.495   7.650  21.428  0.00  0.00    -0.218 NA
ATOM     11  C   UNL     1      11.106   7.252  21.813  0.00  0.00    +0.089 C 
ATOM     12  C   UNL     1      11.889   7.375  21.583  0.00  0.00    +0.019 C 
ATOM     13  C   UNL     1      12.061   7.896  20.968  0.00  0.00    +0.012 C 
ENDROOT
BRANCH   8   7
ATOM      7  C   UNL     1      11.622   8.817  19.966  0.00  0.00    +0.051 C 
BRANCH   7   6
ATOM      4  C   UNL     1      11.044   8.591  17.923  0.00  0.00    +0.184 A 
ATOM      5  C   UNL     1      11.626   8.679  18.502  0.00  0.00    +0.056 A 
ATOM      6  C   UNL     1      11.250   8.726  19.235  0.00  0.00    +0.100 A 
ATOM     29  N   UNL     1      10.437   8.667  19.109  0.00  0.00    -0.082 NA
ATOM     30  O   UNL     1      10.310   8.584  18.299  0.00  0.00    -0.356 OA
BRANCH   4   3
ATOM      3  C   UNL     1      11.175   8.522  17.111  0.00  0.00    +0.209 C 
BRANCH   3   2
ATOM      1  C   UNL     1      10.687   8.732  15.785  0.00  0.00    +0.175 C 
ATOM      2  O   UNL     1      10.708   8.948  16.581  0.00  0.00    -0.343 OA
ENDBRANCH   3   2
ENDBRANCH   4   3
ENDBRANCH   7   6
ENDBRANCH   8   7
BRANCH  13  14
ATOM     14  C   UNL     1      12.844   8.020  20.737  0.00  0.00    +0.085 C 
BRANCH  14  15
ATOM     15  C   UNL     1      13.460   7.725  21.199  0.00  0.00    +0.226 C 
ATOM     16  O   UNL     1      13.420   7.773  22.022  0.00  0.00    -0.275 OA
ATOM     17  N   UNL     1      14.118   7.381  20.838  0.00  0.00    -0.276 N 
ATOM     18  C   UNL     1      14.735   7.086  21.299  0.00  0.00    +0.115 C 
ATOM     19  C   UNL     1      15.392   6.743  20.938  0.00  0.00    +0.114 C 
ATOM     20  N   UNL     1      15.433   6.695  20.116  0.00  0.00    -0.290 N 
ATOM     21  C   UNL     1      14.815   6.990  19.654  0.00  0.00    +0.114 C 
ATOM     22  C   UNL     1      14.158   7.333  20.015  0.00  0.00    +0.115 C 
ATOM     23  C   UNL     1      16.091   6.352  19.754  0.00  0.00    +0.132 A 
ATOM     24  N   UNL     1      16.707   6.057  20.215  0.00  0.00    -0.229 NA
ATOM     25  C   UNL     1      17.365   5.713  19.854  0.00  0.00    +0.100 A 
ATOM     26  C   UNL     1      17.405   5.665  19.032  0.00  0.00    +0.021 A 
ATOM     27  C   UNL     1      16.789   5.960  18.570  0.00  0.00    +0.004 A 
ATOM     28  C   UNL     1      16.131   6.304  18.932  0.00  0.00    +0.034 A 
ENDBRANCH  14  15
ENDBRANCH  13  14
TORSDOF 6
ENDMDL
