MODEL 1
REMARK VINA RESULT:     -13.7      0.000      0.000
REMARK  Name = 
REMARK  4 active torsions:
REMARK  status: ('A' for Active; 'I' for Inactive)
REMARK    1  A    between atoms: C_5  and  N_6
REMARK    2  A    between atoms: C_14  and  O_16
REMARK    3  A    between atoms: O_16  and  C_17
REMARK    4  A    between atoms: C_20  and  C_23
REMARK                            x       y       z     vdW  Elec       q    Type
REMARK                         _______ _______ _______ _____ _____    ______ ____
ROOT
ATOM      6  N   UNL     1      -0.833   2.542  24.632  0.00  0.00    -0.160 NA
ATOM      7  C   UNL     1      -1.182   1.876  24.971  0.00  0.00    +0.328 C 
ATOM      8  O   UNL     1      -1.780   1.963  25.532  0.00  0.00    -0.250 OA
ATOM      9  N   UNL     1      -0.932   1.122  24.749  0.00  0.00    -0.256 N 
ATOM     10  C   UNL     1      -0.330   1.096  24.185  0.00  0.00    +0.127 C 
ATOM     11  C   UNL     1       0.035   0.435  23.853  0.00  0.00    +0.164 C 
ATOM     12  O   UNL     1      -0.111  -0.363  24.002  0.00  0.00    -0.348 OA
ATOM     13  C   UNL     1      -0.658  -0.697  24.521  0.00  0.00    +0.187 C 
ATOM     14  C   UNL     1      -1.194  -0.316  25.019  0.00  0.00    +0.215 C 
ATOM     15  C   UNL     1      -1.317   0.493  25.120  0.00  0.00    +0.141 C 
ENDROOT
BRANCH   6   5
ATOM      1  F   UNL     1      -1.833   5.560  25.522  0.00  0.00    -0.204 F 
ATOM      2  C   UNL     1      -1.583   4.806  25.299  0.00  0.00    +0.142 A 
ATOM      3  C   UNL     1      -2.031   4.144  25.506  0.00  0.00    +0.031 A 
ATOM      4  C   UNL     1      -1.781   3.390  25.283  0.00  0.00    +0.021 A 
ATOM      5  C   UNL     1      -1.083   3.297  24.855  0.00  0.00    +0.102 A 
ATOM     27  C   UNL     1      -0.634   3.958  24.648  0.00  0.00    +0.158 A 
ATOM     28  F   UNL     1       0.065   3.865  24.220  0.00  0.00    -0.203 F 
ATOM     29  C   UNL     1      -0.883   4.712  24.870  0.00  0.00    +0.061 A 
ENDBRANCH   6   5
BRANCH  14  16
ATOM     16  O   UNL     1      -1.673  -0.810  25.476  0.00  0.00    -0.475 OA
BRANCH  16  17
ATOM     17  C   UNL     1      -2.289  -1.230  25.122  0.00  0.00    +0.139 A 
ATOM     18  C   UNL     1      -2.143  -1.967  24.783  0.00  0.00    +0.037 A 
ATOM     19  C   UNL     1      -2.759  -2.387  24.429  0.00  0.00    +0.007 A 
ATOM     20  C   UNL     1      -3.520  -2.069  24.414  0.00  0.00    +0.072 A 
ATOM     21  C   UNL     1      -3.665  -1.331  24.753  0.00  0.00    +0.007 A 
ATOM     22  C   UNL     1      -3.049  -0.912  25.107  0.00  0.00    +0.037 A 
BRANCH  20  23
ATOM     23  C   UNL     1      -4.136  -2.488  24.060  0.00  0.00    +0.419 C 
ATOM     24  F   UNL     1      -4.753  -2.907  23.705  0.00  0.00    -0.166 F 
ATOM     25  F   UNL     1      -3.950  -3.149  24.518  0.00  0.00    -0.166 F 
ATOM     26  F   UNL     1      -4.322  -1.828  23.602  0.00  0.00    -0.166 F 
ENDBRANCH  20  23
ENDBRANCH  16  17
ENDBRANCH  14  16
TORSDOF 4
ENDMDL
MODEL 2
REMARK VINA RESULT:     -13.7      1.728      2.505
REMARK  Name = 
REMARK  4 active torsions:
REMARK  status: ('A' for Active; 'I' for Inactive)
REMARK    1  A    between atoms: C_5  and  N_6
REMARK    2  A    between atoms: C_14  and  O_16
REMARK    3  A    between atoms: O_16  and  C_17
REMARK    4  A    between atoms: C_20  and  C_23
REMARK                            x       y       z     vdW  Elec       q    Type
REMARK                         _______ _______ _______ _____ _____    ______ ____
ROOT
ATOM      6  N   UNL     1      -2.809   3.360  25.165  0.00  0.00    -0.160 NA
ATOM      7  C   UNL     1      -2.818   2.656  24.735  0.00  0.00    +0.328 C 
ATOM      8  O   UNL     1      -2.172   2.451  24.265  0.00  0.00    -0.250 OA
ATOM      9  N   UNL     1      -3.473   2.156  24.775  0.00  0.00    -0.256 N 
ATOM     10  C   UNL     1      -4.090   2.412  25.261  0.00  0.00    +0.127 C 
ATOM     11  C   UNL     1      -4.810   2.042  25.415  0.00  0.00    +0.164 C 
ATOM     12  O   UNL     1      -5.093   1.325  25.123  0.00  0.00    -0.348 OA
ATOM     13  C   UNL     1      -4.725   0.800  24.603  0.00  0.00    +0.187 C 
ATOM     14  C   UNL     1      -3.984   0.864  24.248  0.00  0.00    +0.215 C 
ATOM     15  C   UNL     1      -3.426   1.467  24.324  0.00  0.00    +0.141 C 
ENDROOT
BRANCH   6   5
ATOM      1  F   UNL     1      -0.187   5.358  25.005  0.00  0.00    -0.204 F 
ATOM      2  C   UNL     1      -0.842   4.858  25.045  0.00  0.00    +0.142 A 
ATOM      3  C   UNL     1      -0.737   4.041  25.078  0.00  0.00    +0.031 A 
ATOM      4  C   UNL     1      -1.393   3.541  25.118  0.00  0.00    +0.021 A 
ATOM      5  C   UNL     1      -2.153   3.860  25.125  0.00  0.00    +0.102 A 
ATOM     27  C   UNL     1      -2.259   4.677  25.093  0.00  0.00    +0.158 A 
ATOM     28  F   UNL     1      -3.020   4.995  25.100  0.00  0.00    -0.203 F 
ATOM     29  C   UNL     1      -1.604   5.177  25.053  0.00  0.00    +0.061 A 
ENDBRANCH   6   5
BRANCH  14  16
ATOM     16  O   UNL     1      -3.771   0.241  23.750  0.00  0.00    -0.475 OA
BRANCH  16  17
ATOM     17  C   UNL     1      -3.710  -0.525  24.051  0.00  0.00    +0.139 A 
ATOM     18  C   UNL     1      -4.294  -1.082  23.882  0.00  0.00    +0.037 A 
ATOM     19  C   UNL     1      -4.233  -1.847  24.183  0.00  0.00    +0.007 A 
ATOM     20  C   UNL     1      -3.588  -2.056  24.652  0.00  0.00    +0.072 A 
ATOM     21  C   UNL     1      -3.003  -1.499  24.821  0.00  0.00    +0.007 A 
ATOM     22  C   UNL     1      -3.064  -0.734  24.520  0.00  0.00    +0.037 A 
BRANCH  20  23
ATOM     23  C   UNL     1      -3.527  -2.822  24.953  0.00  0.00    +0.419 C 
ATOM     24  F   UNL     1      -3.466  -3.588  25.254  0.00  0.00    -0.166 F 
ATOM     25  F   UNL     1      -3.555  -2.522  25.721  0.00  0.00    -0.166 F 
ATOM     26  F   UNL     1      -3.499  -3.122  24.185  0.00  0.00    -0.166 F 
ENDBRANCH  20  23
ENDBRANCH  16  17
ENDBRANCH  14  16
TORSDOF 4
ENDMDL
MODEL 3
REMARK VINA RESULT:     -13.5      2.086      6.030
REMARK  Name = 
REMARK  4 active torsions:
REMARK  status: ('A' for Active; 'I' for Inactive)
REMARK    1  A    between atoms: C_5  and  N_6
REMARK    2  A    between atoms: C_14  and  O_16
REMARK    3  A    between atoms: O_16  and  C_17
REMARK    4  A    between atoms: C_20  and  C_23
REMARK                            x       y       z     vdW  Elec       q    Type
REMARK                         _______ _______ _______ _____ _____    ______ ____
ROOT
ATOM      6  N   UNL     1      -4.427  -0.340  24.940  0.00  0.00    -0.160 NA
ATOM      7  C   UNL     1      -4.106   0.328  24.577  0.00  0.00    +0.328 C 
ATOM      8  O   UNL     1      -3.493   0.247  24.032  0.00  0.00    -0.250 OA
ATOM      9  N   UNL     1      -4.399   1.077  24.760  0.00  0.00    -0.256 N 
ATOM     10  C   UNL     1      -5.013   1.096  25.312  0.00  0.00    +0.127 C 
ATOM     11  C   UNL     1      -5.419   1.751  25.607  0.00  0.00    +0.164 C 
ATOM     12  O   UNL     1      -5.312   2.548  25.424  0.00  0.00    -0.348 OA
ATOM     13  C   UNL     1      -4.773   2.887  24.900  0.00  0.00    +0.187 C 
ATOM     14  C   UNL     1      -4.207   2.513  24.430  0.00  0.00    +0.215 C 
ATOM     15  C   UNL     1      -4.041   1.707  24.368  0.00  0.00    +0.141 C 
ENDROOT
BRANCH   6   5
ATOM      1  F   UNL     1      -3.253  -3.337  24.208  0.00  0.00    -0.204 F 
ATOM      2  C   UNL     1      -3.546  -2.588  24.391  0.00  0.00    +0.142 A 
ATOM      3  C   UNL     1      -3.943  -2.149  23.817  0.00  0.00    +0.031 A 
ATOM      4  C   UNL     1      -4.237  -1.400  24.000  0.00  0.00    +0.021 A 
ATOM      5  C   UNL     1      -4.133  -1.090  24.757  0.00  0.00    +0.102 A 
ATOM     27  C   UNL     1      -3.736  -1.529  25.332  0.00  0.00    +0.158 A 
ATOM     28  F   UNL     1      -3.632  -1.219  26.089  0.00  0.00    -0.203 F 
ATOM     29  C   UNL     1      -3.442  -2.278  25.149  0.00  0.00    +0.061 A 
ENDBRANCH   6   5
BRANCH  14  16
ATOM     16  O   UNL     1      -3.746   3.011  23.960  0.00  0.00    -0.475 OA
BRANCH  16  17
ATOM     17  C   UNL     1      -3.074   3.371  24.275  0.00  0.00    +0.139 A 
ATOM     18  C   UNL     1      -2.327   3.060  24.115  0.00  0.00    +0.037 A 
ATOM     19  C   UNL     1      -1.655   3.420  24.431  0.00  0.00    +0.007 A 
ATOM     20  C   UNL     1      -1.731   4.090  24.907  0.00  0.00    +0.072 A 
ATOM     21  C   UNL     1      -2.478   4.400  25.067  0.00  0.00    +0.007 A 
ATOM     22  C   UNL     1      -3.150   4.040  24.751  0.00  0.00    +0.037 A 
BRANCH  20  23
ATOM     23  C   UNL     1      -1.059   4.450  25.222  0.00  0.00    +0.419 C 
ATOM     24  F   UNL     1      -0.387   4.810  25.538  0.00  0.00    -0.166 F 
ATOM     25  F   UNL     1      -0.886   3.760  25.641  0.00  0.00    -0.166 F 
ATOM     26  F   UNL     1      -1.232   5.139  24.804  0.00  0.00    -0.166 F 
ENDBRANCH  20  23
ENDBRANCH  16  17
ENDBRANCH  14  16
TORSDOF 4
ENDMDL
MODEL 4
REMARK VINA RESULT:     -13.3      0.983      5.626
REMARK  Name = 
REMARK  4 active torsions:
REMARK  status: ('A' for Active; 'I' for Inactive)
REMARK    1  A    between atoms: C_5  and  N_6
REMARK    2  A    between atoms: C_14  and  O_16
REMARK    3  A    between atoms: O_16  and  C_17
REMARK    4  A    between atoms: C_20  and  C_23
REMARK                            x       y       z     vdW  Elec       q    Type
REMARK                         _______ _______ _______ _____ _____    ______ ____
ROOT
ATOM      6  N   UNL     1      -1.772  -0.967  24.292  0.00  0.00    -0.160 NA
ATOM      7  C   UNL     1      -1.711  -0.318  24.798  0.00  0.00    +0.328 C 
ATOM      8  O   UNL     1      -2.251  -0.222  25.414  0.00  0.00    -0.250 OA
ATOM      9  N   UNL     1      -1.109   0.235  24.688  0.00  0.00    -0.256 N 
ATOM     10  C   UNL     1      -0.598   0.087  24.056  0.00  0.00    +0.127 C 
ATOM     11  C   UNL     1       0.050   0.531  23.805  0.00  0.00    +0.164 C 
ATOM     12  O   UNL     1       0.348   1.231  24.123  0.00  0.00    -0.348 OA
ATOM     13  C   UNL     1       0.072   1.661  24.770  0.00  0.00    +0.187 C 
ATOM     14  C   UNL     1      -0.571   1.496  25.260  0.00  0.00    +0.215 C 
ATOM     15  C   UNL     1      -1.097   0.862  25.224  0.00  0.00    +0.141 C 
ENDROOT
BRANCH   6   5
ATOM      1  F   UNL     1      -4.182  -3.180  24.733  0.00  0.00    -0.204 F 
ATOM      2  C   UNL     1      -3.580  -2.627  24.623  0.00  0.00    +0.142 A 
ATOM      3  C   UNL     1      -3.764  -1.828  24.536  0.00  0.00    +0.031 A 
ATOM      4  C   UNL     1      -3.162  -1.275  24.426  0.00  0.00    +0.021 A 
ATOM      5  C   UNL     1      -2.375  -1.521  24.402  0.00  0.00    +0.102 A 
ATOM     27  C   UNL     1      -2.190  -2.320  24.489  0.00  0.00    +0.158 A 
ATOM     28  F   UNL     1      -1.403  -2.566  24.466  0.00  0.00    -0.203 F 
ATOM     29  C   UNL     1      -2.792  -2.873  24.600  0.00  0.00    +0.061 A 
ENDBRANCH   6   5
BRANCH  14  16
ATOM     16  O   UNL     1      -0.706   2.039  25.867  0.00  0.00    -0.475 OA
BRANCH  16  17
ATOM     17  C   UNL     1      -0.900   2.821  25.686  0.00  0.00    +0.139 A 
ATOM     18  C   UNL     1      -1.690   3.056  25.670  0.00  0.00    +0.037 A 
ATOM     19  C   UNL     1      -1.883   3.837  25.488  0.00  0.00    +0.007 A 
ATOM     20  C   UNL     1      -1.287   4.383  25.324  0.00  0.00    +0.072 A 
ATOM     21  C   UNL     1      -0.496   4.147  25.341  0.00  0.00    +0.007 A 
ATOM     22  C   UNL     1      -0.303   3.366  25.522  0.00  0.00    +0.037 A 
BRANCH  20  23
ATOM     23  C   UNL     1      -1.480   5.164  25.143  0.00  0.00    +0.419 C 
ATOM     24  F   UNL     1      -1.674   5.946  24.962  0.00  0.00    -0.166 F 
ATOM     25  F   UNL     1      -0.855   5.194  24.605  0.00  0.00    -0.166 F 
ATOM     26  F   UNL     1      -2.104   5.134  25.681  0.00  0.00    -0.166 F 
ENDBRANCH  20  23
ENDBRANCH  16  17
ENDBRANCH  14  16
TORSDOF 4
ENDMDL
MODEL 5
REMARK VINA RESULT:     -12.4      2.015      5.210
REMARK  Name = 
REMARK  4 active torsions:
REMARK  status: ('A' for Active; 'I' for Inactive)
REMARK    1  A    between atoms: C_5  and  N_6
REMARK    2  A    between atoms: C_14  and  O_16
REMARK    3  A    between atoms: O_16  and  C_17
REMARK    4  A    between atoms: C_20  and  C_23
REMARK                            x       y       z     vdW  Elec       q    Type
REMARK                         _______ _______ _______ _____ _____    ______ ____
ROOT
ATOM      6  N   UNL     1      -2.059  -0.732  25.067  0.00  0.00    -0.160 NA
ATOM      7  C   UNL     1      -2.321  -0.010  24.764  0.00  0.00    +0.328 C 
ATOM      8  O   UNL     1      -2.989   0.017  24.282  0.00  0.00    -0.250 OA
ATOM      9  N   UNL     1      -1.913   0.684  24.943  0.00  0.00    -0.256 N 
ATOM     10  C   UNL     1      -1.252   0.595  25.429  0.00  0.00    +0.127 C 
ATOM     11  C   UNL     1      -0.735   1.176  25.704  0.00  0.00    +0.164 C 
ATOM     12  O   UNL     1      -0.750   1.988  25.562  0.00  0.00    -0.348 OA
ATOM     13  C   UNL     1      -1.287   2.421  25.109  0.00  0.00    +0.187 C 
ATOM     14  C   UNL     1      -1.941   2.147  24.687  0.00  0.00    +0.215 C 
ATOM     15  C   UNL     1      -2.220   1.375  24.613  0.00  0.00    +0.141 C 
ENDROOT
BRANCH   6   5
ATOM      1  F   UNL     1      -3.691  -3.510  24.349  0.00  0.00    -0.204 F 
ATOM      2  C   UNL     1      -3.284  -2.816  24.529  0.00  0.00    +0.142 A 
ATOM      3  C   UNL     1      -3.686  -2.171  24.850  0.00  0.00    +0.031 A 
ATOM      4  C   UNL     1      -3.278  -1.477  25.029  0.00  0.00    +0.021 A 
ATOM      5  C   UNL     1      -2.468  -1.427  24.887  0.00  0.00    +0.102 A 
ATOM     27  C   UNL     1      -2.064  -2.071  24.566  0.00  0.00    +0.158 A 
ATOM     28  F   UNL     1      -1.253  -2.021  24.424  0.00  0.00    -0.203 F 
ATOM     29  C   UNL     1      -2.472  -2.765  24.386  0.00  0.00    +0.061 A 
ENDBRANCH   6   5
BRANCH  14  16
ATOM     16  O   UNL     1      -2.374   2.724  24.285  0.00  0.00    -0.475 OA
BRANCH  16  17
ATOM     17  C   UNL     1      -3.093   2.988  24.592  0.00  0.00    +0.139 A 
ATOM     18  C   UNL     1      -3.797   2.813  24.199  0.00  0.00    +0.037 A 
ATOM     19  C   UNL     1      -4.516   3.077  24.506  0.00  0.00    +0.007 A 
ATOM     20  C   UNL     1      -4.531   3.515  25.204  0.00  0.00    +0.072 A 
ATOM     21  C   UNL     1      -3.827   3.689  25.597  0.00  0.00    +0.007 A 
ATOM     22  C   UNL     1      -3.108   3.426  25.290  0.00  0.00    +0.037 A 
BRANCH  20  23
ATOM     23  C   UNL     1      -5.250   3.778  25.511  0.00  0.00    +0.419 C 
ATOM     24  F   UNL     1      -5.970   4.043  25.817  0.00  0.00    -0.166 F 
ATOM     25  F   UNL     1      -5.356   3.052  25.888  0.00  0.00    -0.166 F 
ATOM     26  F   UNL     1      -5.145   4.505  25.134  0.00  0.00    -0.166 F 
ENDBRANCH  20  23
ENDBRANCH  16  17
ENDBRANCH  14  16
TORSDOF 4
ENDMDL
MODEL 6
REMARK VINA RESULT:     -12.3      1.762      2.063
REMARK  Name = 
REMARK  4 active torsions:
REMARK  status: ('A' for Active; 'I' for Inactive)
REMARK    1  A    between atoms: C_5  and  N_6
REMARK    2  A    between atoms: C_14  and  O_16
REMARK    3  A    between atoms: O_16  and  C_17
REMARK    4  A    between atoms: C_20  and  C_23
REMARK                            x       y       z     vdW  Elec       q    Type
REMARK                         _______ _______ _______ _____ _____    ______ ____
ROOT
ATOM      6  N   UNL     1      -3.170   2.578  24.615  0.00  0.00    -0.160 NA
ATOM      7  C   UNL     1      -2.993   1.846  24.951  0.00  0.00    +0.328 C 
ATOM      8  O   UNL     1      -3.485   1.527  25.531  0.00  0.00    -0.250 OA
ATOM      9  N   UNL     1      -2.322   1.431  24.706  0.00  0.00    -0.256 N 
ATOM     10  C   UNL     1      -1.867   1.799  24.124  0.00  0.00    +0.127 C 
ATOM     11  C   UNL     1      -1.174   1.530  23.768  0.00  0.00    +0.164 C 
ATOM     12  O   UNL     1      -0.763   0.828  23.906  0.00  0.00    -0.348 OA
ATOM     13  C   UNL     1      -0.945   0.222  24.434  0.00  0.00    +0.187 C 
ATOM     14  C   UNL     1      -1.582   0.167  24.955  0.00  0.00    +0.215 C 
ATOM     15  C   UNL     1      -2.195   0.705  25.076  0.00  0.00    +0.141 C 
ENDROOT
BRANCH   6   5
ATOM      1  F   UNL     1      -5.852   4.235  25.595  0.00  0.00    -0.204 F 
ATOM      2  C   UNL     1      -5.181   3.821  25.350  0.00  0.00    +0.142 A 
ATOM      3  C   UNL     1      -5.247   3.036  25.105  0.00  0.00    +0.031 A 
ATOM      4  C   UNL     1      -4.577   2.622  24.860  0.00  0.00    +0.021 A 
ATOM      5  C   UNL     1      -3.841   2.993  24.861  0.00  0.00    +0.102 A 
ATOM     27  C   UNL     1      -3.773   3.778  25.105  0.00  0.00    +0.158 A 
ATOM     28  F   UNL     1      -3.037   4.149  25.106  0.00  0.00    -0.203 F 
ATOM     29  C   UNL     1      -4.444   4.192  25.350  0.00  0.00    +0.061 A 
ENDBRANCH   6   5
BRANCH  14  16
ATOM     16  O   UNL     1      -1.610  -0.517  25.416  0.00  0.00    -0.475 OA
BRANCH  16  17
ATOM     17  C   UNL     1      -2.098  -1.144  25.194  0.00  0.00    +0.139 A 
ATOM     18  C   UNL     1      -1.849  -1.673  24.612  0.00  0.00    +0.037 A 
ATOM     19  C   UNL     1      -2.337  -2.301  24.390  0.00  0.00    +0.007 A 
ATOM     20  C   UNL     1      -3.073  -2.398  24.749  0.00  0.00    +0.072 A 
ATOM     21  C   UNL     1      -3.322  -1.869  25.331  0.00  0.00    +0.007 A 
ATOM     22  C   UNL     1      -2.834  -1.242  25.553  0.00  0.00    +0.037 A 
BRANCH  20  23
ATOM     23  C   UNL     1      -3.561  -3.025  24.526  0.00  0.00    +0.419 C 
ATOM     24  F   UNL     1      -4.049  -3.653  24.303  0.00  0.00    -0.166 F 
ATOM     25  F   UNL     1      -3.492  -3.347  25.283  0.00  0.00    -0.166 F 
ATOM     26  F   UNL     1      -3.630  -2.703  23.770  0.00  0.00    -0.166 F 
ENDBRANCH  20  23
ENDBRANCH  16  17
ENDBRANCH  14  16
TORSDOF 4
ENDMDL
