MODEL 1
REMARK VINA RESULT:     -11.3      0.000      0.000
REMARK  Name = 
REMARK  5 active torsions:
REMARK  status: ('A' for Active; 'I' for Inactive)
REMARK    1  A    between atoms: N_3  and  C_4
REMARK    2  A    between atoms: C_9  and  C_10
REMARK    3  A    between atoms: C_10  and  C_11
REMARK    4  A    between atoms: C_11  and  C_12
REMARK    5  A    between atoms: N_24  and  C_25
REMARK                            x       y       z     vdW  Elec       q    Type
REMARK                         _______ _______ _______ _____ _____    ______ ____
ROOT
ATOM      4  C   UNL     1      -3.391   3.061  25.221  0.00  0.00    +0.115 C 
ATOM      5  C   UNL     1      -4.183   3.285  25.163  0.00  0.00    +0.049 C 
ATOM      6  C   UNL     1      -4.638   2.599  25.114  0.00  0.00    +0.138 C 
ATOM      7  N   UNL     1      -4.128   1.951  25.141  0.00  0.00    -0.265 NA
ATOM      8  C   UNL     1      -3.357   2.236  25.208  0.00  0.00    +0.094 C 
ATOM      9  C   UNL     1      -4.432   1.185  25.102  0.00  0.00    +0.080 C 
ATOM     20  C   UNL     1      -5.245   1.067  25.036  0.00  0.00    +0.131 C 
ATOM     21  N   UNL     1      -5.756   1.714  25.008  0.00  0.00    -0.203 NA
ATOM     22  C   UNL     1      -5.453   2.481  25.047  0.00  0.00    +0.256 C 
ATOM     23  O   UNL     1      -5.963   3.128  25.020  0.00  0.00    -0.272 OA
ENDROOT
BRANCH   4   3
ATOM      1  O   UNL     1      -3.229   4.031  26.546  0.00  0.00    -0.249 OA
ATOM      2  C   UNL     1      -2.665   4.057  25.945  0.00  0.00    +0.344 C 
ATOM      3  N   UNL     1      -2.746   3.572  25.282  0.00  0.00    -0.187 NA
ATOM     24  N   UNL     1      -2.020   4.568  26.006  0.00  0.00    -0.160 NA
BRANCH  24  25
ATOM     25  C   UNL     1      -1.456   4.593  25.404  0.00  0.00    +0.082 A 
ATOM     26  C   UNL     1      -0.869   4.031  25.264  0.00  0.00    +0.052 A 
ATOM     27  S   UNL     1      -0.431   4.276  24.610  0.00  0.00    -0.085 S 
ATOM     28  C   UNL     1      -0.747   4.990  24.345  0.00  0.00    +0.037 A 
ATOM     29  C   UNL     1      -1.381   5.187  24.835  0.00  0.00    +0.024 A 
ENDBRANCH  24  25
ENDBRANCH   4   3
BRANCH   9  10
ATOM     10  C   UNL     1      -3.922   0.538  25.129  0.00  0.00    +0.027 C 
BRANCH  10  11
ATOM     11  C   UNL     1      -4.212  -0.223  24.993  0.00  0.00    +0.087 C 
BRANCH  11  12
ATOM     12  C   UNL     1      -3.784  -0.880  25.249  0.00  0.00    +0.226 C 
ATOM     13  O   UNL     1      -3.342  -0.838  25.944  0.00  0.00    -0.275 OA
ATOM     14  N   UNL     1      -3.800  -1.578  24.811  0.00  0.00    -0.280 N 
ATOM     15  C   UNL     1      -3.372  -2.235  25.068  0.00  0.00    +0.093 C 
ATOM     16  C   UNL     1      -3.387  -2.935  24.629  0.00  0.00    +0.022 C 
ATOM     17  C   UNL     1      -3.831  -2.976  23.935  0.00  0.00    +0.004 C 
ATOM     18  C   UNL     1      -4.258  -2.318  23.678  0.00  0.00    +0.022 C 
ATOM     19  C   UNL     1      -4.243  -1.620  24.116  0.00  0.00    +0.093 C 
ENDBRANCH  11  12
ENDBRANCH  10  11
ENDBRANCH   9  10
TORSDOF 5
ENDMDL
MODEL 2
REMARK VINA RESULT:     -10.4      1.761      5.403
REMARK  Name = 
REMARK  5 active torsions:
REMARK  status: ('A' for Active; 'I' for Inactive)
REMARK    1  A    between atoms: N_3  and  C_4
REMARK    2  A    between atoms: C_9  and  C_10
REMARK    3  A    between atoms: C_10  and  C_11
REMARK    4  A    between atoms: C_11  and  C_12
REMARK    5  A    between atoms: N_24  and  C_25
REMARK                            x       y       z     vdW  Elec       q    Type
REMARK                         _______ _______ _______ _____ _____    ______ ____
ROOT
ATOM      4  C   UNL     1      -4.007   0.010  24.811  0.00  0.00    +0.115 C 
ATOM      5  C   UNL     1      -4.769   0.301  24.929  0.00  0.00    +0.049 C 
ATOM      6  C   UNL     1      -4.751   1.117  24.811  0.00  0.00    +0.138 C 
ATOM      7  N   UNL     1      -3.977   1.330  24.620  0.00  0.00    -0.265 NA
ATOM      8  C   UNL     1      -3.517   0.646  24.621  0.00  0.00    +0.094 C 
ATOM      9  C   UNL     1      -3.793   2.121  24.471  0.00  0.00    +0.080 C 
ATOM     20  C   UNL     1      -4.381   2.697  24.513  0.00  0.00    +0.131 C 
ATOM     21  N   UNL     1      -5.154   2.484  24.703  0.00  0.00    -0.203 NA
ATOM     22  C   UNL     1      -5.340   1.694  24.852  0.00  0.00    +0.256 C 
ATOM     23  O   UNL     1      -6.114   1.481  25.042  0.00  0.00    -0.272 OA
ENDROOT
BRANCH   4   3
ATOM      1  O   UNL     1      -3.780  -0.669  26.298  0.00  0.00    -0.249 OA
ATOM      2  C   UNL     1      -3.660  -1.119  25.617  0.00  0.00    +0.344 C 
ATOM      3  N   UNL     1      -3.774  -0.779  24.873  0.00  0.00    -0.187 NA
ATOM     24  N   UNL     1      -3.427  -1.908  25.679  0.00  0.00    -0.160 NA
BRANCH  24  25
ATOM     25  C   UNL     1      -3.308  -2.357  24.998  0.00  0.00    +0.082 A 
ATOM     26  C   UNL     1      -2.581  -2.514  24.640  0.00  0.00    +0.052 A 
ATOM     27  S   UNL     1      -2.720  -2.983  23.975  0.00  0.00    -0.085 S 
ATOM     28  C   UNL     1      -3.532  -3.115  23.922  0.00  0.00    +0.037 A 
ATOM     29  C   UNL     1      -3.896  -2.729  24.553  0.00  0.00    +0.024 A 
ENDBRANCH  24  25
ENDBRANCH   4   3
BRANCH   9  10
ATOM     10  C   UNL     1      -3.019   2.334  24.281  0.00  0.00    +0.027 C 
BRANCH  10  11
ATOM     11  C   UNL     1      -2.695   3.029  24.585  0.00  0.00    +0.087 C 
BRANCH  11  12
ATOM     12  C   UNL     1      -1.901   3.209  24.451  0.00  0.00    +0.226 C 
ATOM     13  O   UNL     1      -1.407   2.651  24.098  0.00  0.00    -0.275 OA
ATOM     14  N   UNL     1      -1.603   3.946  24.669  0.00  0.00    -0.280 N 
ATOM     15  C   UNL     1      -0.809   4.125  24.534  0.00  0.00    +0.093 C 
ATOM     16  C   UNL     1      -0.510   4.863  24.752  0.00  0.00    +0.022 C 
ATOM     17  C   UNL     1      -1.006   5.421  25.105  0.00  0.00    +0.004 C 
ATOM     18  C   UNL     1      -1.800   5.241  25.239  0.00  0.00    +0.022 C 
ATOM     19  C   UNL     1      -2.098   4.504  25.021  0.00  0.00    +0.093 C 
ENDBRANCH  11  12
ENDBRANCH  10  11
ENDBRANCH   9  10
TORSDOF 5
ENDMDL
MODEL 3
REMARK VINA RESULT:     -10.1      2.843      6.285
REMARK  Name = 
REMARK  5 active torsions:
REMARK  status: ('A' for Active; 'I' for Inactive)
REMARK    1  A    between atoms: N_3  and  C_4
REMARK    2  A    between atoms: C_9  and  C_10
REMARK    3  A    between atoms: C_10  and  C_11
REMARK    4  A    between atoms: C_11  and  C_12
REMARK    5  A    between atoms: N_24  and  C_25
REMARK                            x       y       z     vdW  Elec       q    Type
REMARK                         _______ _______ _______ _____ _____    ______ ____
ROOT
ATOM      4  C   UNL     1      -1.202  -0.561  24.408  0.00  0.00    +0.115 C 
ATOM      5  C   UNL     1      -0.556  -0.607  23.898  0.00  0.00    +0.049 C 
ATOM      6  C   UNL     1      -0.144   0.106  23.944  0.00  0.00    +0.138 C 
ATOM      7  N   UNL     1      -0.536   0.593  24.482  0.00  0.00    -0.265 NA
ATOM      8  C   UNL     1      -1.190   0.181  24.769  0.00  0.00    +0.094 C 
ATOM      9  C   UNL     1      -0.246   1.349  24.640  0.00  0.00    +0.080 C 
ATOM     20  C   UNL     1       0.435   1.618  24.261  0.00  0.00    +0.131 C 
ATOM     21  N   UNL     1       0.827   1.131  23.723  0.00  0.00    -0.203 NA
ATOM     22  C   UNL     1       0.538   0.375  23.564  0.00  0.00    +0.256 C 
ATOM     23  O   UNL     1       0.930  -0.112  23.026  0.00  0.00    -0.272 OA
ENDROOT
BRANCH   4   3
ATOM      1  O   UNL     1      -0.820  -1.875  25.329  0.00  0.00    -0.249 OA
ATOM      2  C   UNL     1      -1.572  -1.811  24.996  0.00  0.00    +0.344 C 
ATOM      3  N   UNL     1      -1.763  -1.153  24.535  0.00  0.00    -0.187 NA
ATOM     24  N   UNL     1      -2.132  -2.402  25.123  0.00  0.00    -0.160 NA
BRANCH  24  25
ATOM     25  C   UNL     1      -2.884  -2.336  24.790  0.00  0.00    +0.082 A 
ATOM     26  C   UNL     1      -3.148  -2.719  24.108  0.00  0.00    +0.052 A 
ATOM     27  S   UNL     1      -3.931  -2.495  23.977  0.00  0.00    -0.085 S 
ATOM     28  C   UNL     1      -4.151  -1.973  24.577  0.00  0.00    +0.037 A 
ATOM     29  C   UNL     1      -3.504  -1.875  25.080  0.00  0.00    +0.024 A 
ENDBRANCH  24  25
ENDBRANCH   4   3
BRANCH   9  10
ATOM     10  C   UNL     1      -0.639   1.836  25.178  0.00  0.00    +0.027 C 
BRANCH  10  11
ATOM     11  C   UNL     1      -0.672   2.651  25.050  0.00  0.00    +0.087 C 
BRANCH  11  12
ATOM     12  C   UNL     1      -1.261   3.102  25.411  0.00  0.00    +0.226 C 
ATOM     13  O   UNL     1      -1.809   2.741  25.910  0.00  0.00    -0.275 OA
ATOM     14  N   UNL     1      -1.302   3.913  25.272  0.00  0.00    -0.280 N 
ATOM     15  C   UNL     1      -1.891   4.364  25.633  0.00  0.00    +0.093 C 
ATOM     16  C   UNL     1      -1.931   5.177  25.494  0.00  0.00    +0.022 C 
ATOM     17  C   UNL     1      -1.383   5.538  24.994  0.00  0.00    +0.004 C 
ATOM     18  C   UNL     1      -0.794   5.087  24.633  0.00  0.00    +0.022 C 
ATOM     19  C   UNL     1      -0.754   4.275  24.772  0.00  0.00    +0.093 C 
ENDBRANCH  11  12
ENDBRANCH  10  11
ENDBRANCH   9  10
TORSDOF 5
ENDMDL
MODEL 4
REMARK VINA RESULT:     -10.0      2.688      3.562
REMARK  Name = 
REMARK  5 active torsions:
REMARK  status: ('A' for Active; 'I' for Inactive)
REMARK    1  A    between atoms: N_3  and  C_4
REMARK    2  A    between atoms: C_9  and  C_10
REMARK    3  A    between atoms: C_10  and  C_11
REMARK    4  A    between atoms: C_11  and  C_12
REMARK    5  A    between atoms: N_24  and  C_25
REMARK                            x       y       z     vdW  Elec       q    Type
REMARK                         _______ _______ _______ _____ _____    ______ ____
ROOT
ATOM      4  C   UNL     1      -0.576   1.650  24.758  0.00  0.00    +0.115 C 
ATOM      5  C   UNL     1       0.057   1.611  24.230  0.00  0.00    +0.049 C 
ATOM      6  C   UNL     1       0.163   0.821  24.017  0.00  0.00    +0.138 C 
ATOM      7  N   UNL     1      -0.404   0.372  24.413  0.00  0.00    -0.265 NA
ATOM      8  C   UNL     1      -0.861   0.883  24.871  0.00  0.00    +0.094 C 
ATOM      9  C   UNL     1      -0.431  -0.446  24.305  0.00  0.00    +0.080 C 
ATOM     20  C   UNL     1       0.108  -0.814  23.802  0.00  0.00    +0.131 C 
ATOM     21  N   UNL     1       0.675  -0.364  23.406  0.00  0.00    -0.203 NA
ATOM     22  C   UNL     1       0.703   0.453  23.513  0.00  0.00    +0.256 C 
ATOM     23  O   UNL     1       1.270   0.903  23.117  0.00  0.00    -0.272 OA
ENDROOT
BRANCH   4   3
ATOM      1  O   UNL     1       0.064   2.186  26.181  0.00  0.00    -0.249 OA
ATOM      2  C   UNL     1      -0.552   2.603  25.823  0.00  0.00    +0.344 C 
ATOM      3  N   UNL     1      -0.872   2.334  25.111  0.00  0.00    -0.187 NA
ATOM     24  N   UNL     1      -0.848   3.287  26.176  0.00  0.00    -0.160 NA
BRANCH  24  25
ATOM     25  C   UNL     1      -1.463   3.703  25.817  0.00  0.00    +0.082 A 
ATOM     26  C   UNL     1      -2.270   3.583  25.945  0.00  0.00    +0.052 A 
ATOM     27  S   UNL     1      -2.685   4.118  25.473  0.00  0.00    -0.085 S 
ATOM     28  C   UNL     1      -2.135   4.568  25.055  0.00  0.00    +0.037 A 
ATOM     29  C   UNL     1      -1.380   4.312  25.267  0.00  0.00    +0.024 A 
ENDBRANCH  24  25
ENDBRANCH   4   3
BRANCH   9  10
ATOM     10  C   UNL     1      -0.998  -0.896  24.702  0.00  0.00    +0.027 C 
BRANCH  10  11
ATOM     11  C   UNL     1      -1.582  -1.292  24.275  0.00  0.00    +0.087 C 
BRANCH  11  12
ATOM     12  C   UNL     1      -1.975  -1.935  24.612  0.00  0.00    +0.226 C 
ATOM     13  O   UNL     1      -1.573  -2.440  25.126  0.00  0.00    -0.275 OA
ATOM     14  N   UNL     1      -2.768  -2.073  24.435  0.00  0.00    -0.280 N 
ATOM     15  C   UNL     1      -3.160  -2.715  24.772  0.00  0.00    +0.093 C 
ATOM     16  C   UNL     1      -3.955  -2.854  24.594  0.00  0.00    +0.022 C 
ATOM     17  C   UNL     1      -4.356  -2.348  24.080  0.00  0.00    +0.004 C 
ATOM     18  C   UNL     1      -3.963  -1.705  23.743  0.00  0.00    +0.022 C 
ATOM     19  C   UNL     1      -3.170  -1.568  23.921  0.00  0.00    +0.093 C 
ENDBRANCH  11  12
ENDBRANCH  10  11
ENDBRANCH   9  10
TORSDOF 5
ENDMDL
MODEL 5
REMARK VINA RESULT:      -9.6      2.291      3.185
REMARK  Name = 
REMARK  5 active torsions:
REMARK  status: ('A' for Active; 'I' for Inactive)
REMARK    1  A    between atoms: N_3  and  C_4
REMARK    2  A    between atoms: C_9  and  C_10
REMARK    3  A    between atoms: C_10  and  C_11
REMARK    4  A    between atoms: C_11  and  C_12
REMARK    5  A    between atoms: N_24  and  C_25
REMARK                            x       y       z     vdW  Elec       q    Type
REMARK                         _______ _______ _______ _____ _____    ______ ____
ROOT
ATOM      4  C   UNL     1      -1.842   2.158  24.958  0.00  0.00    +0.115 C 
ATOM      5  C   UNL     1      -1.123   2.338  24.596  0.00  0.00    +0.049 C 
ATOM      6  C   UNL     1      -0.713   1.633  24.477  0.00  0.00    +0.138 C 
ATOM      7  N   UNL     1      -1.179   1.016  24.766  0.00  0.00    -0.265 NA
ATOM      8  C   UNL     1      -1.876   1.340  25.063  0.00  0.00    +0.094 C 
ATOM      9  C   UNL     1      -0.906   0.238  24.720  0.00  0.00    +0.080 C 
ATOM     20  C   UNL     1      -0.170   0.078  24.386  0.00  0.00    +0.131 C 
ATOM     21  N   UNL     1       0.296   0.695  24.097  0.00  0.00    -0.203 NA
ATOM     22  C   UNL     1       0.024   1.472  24.143  0.00  0.00    +0.256 C 
ATOM     23  O   UNL     1       0.490   2.090  23.854  0.00  0.00    -0.272 OA
ENDROOT
BRANCH   4   3
ATOM      1  O   UNL     1      -1.491   3.354  26.039  0.00  0.00    -0.249 OA
ATOM      2  C   UNL     1      -2.249   3.298  25.719  0.00  0.00    +0.344 C 
ATOM      3  N   UNL     1      -2.424   2.699  25.178  0.00  0.00    -0.187 NA
ATOM     24  N   UNL     1      -2.831   3.840  25.938  0.00  0.00    -0.160 NA
BRANCH  24  25
ATOM     25  C   UNL     1      -3.589   3.782  25.616  0.00  0.00    +0.082 A 
ATOM     26  C   UNL     1      -4.243   3.430  25.974  0.00  0.00    +0.052 A 
ATOM     27  S   UNL     1      -4.884   3.498  25.459  0.00  0.00    -0.085 S 
ATOM     28  C   UNL     1      -4.625   3.892  24.782  0.00  0.00    +0.037 A 
ATOM     29  C   UNL     1      -3.825   4.069  24.879  0.00  0.00    +0.024 A 
ENDBRANCH  24  25
ENDBRANCH   4   3
BRANCH   9  10
ATOM     10  C   UNL     1      -1.371  -0.379  25.008  0.00  0.00    +0.027 C 
BRANCH  10  11
ATOM     11  C   UNL     1      -1.765  -0.880  24.484  0.00  0.00    +0.087 C 
BRANCH  11  12
ATOM     12  C   UNL     1      -2.031  -1.618  24.739  0.00  0.00    +0.226 C 
ATOM     13  O   UNL     1      -1.560  -2.075  25.238  0.00  0.00    -0.275 OA
ATOM     14  N   UNL     1      -2.766  -1.898  24.494  0.00  0.00    -0.280 N 
ATOM     15  C   UNL     1      -3.032  -2.637  24.748  0.00  0.00    +0.093 C 
ATOM     16  C   UNL     1      -3.768  -2.918  24.503  0.00  0.00    +0.022 C 
ATOM     17  C   UNL     1      -4.238  -2.459  24.004  0.00  0.00    +0.004 C 
ATOM     18  C   UNL     1      -3.973  -1.721  23.749  0.00  0.00    +0.022 C 
ATOM     19  C   UNL     1      -3.237  -1.441  23.994  0.00  0.00    +0.093 C 
ENDBRANCH  11  12
ENDBRANCH  10  11
ENDBRANCH   9  10
TORSDOF 5
ENDMDL
MODEL 6
REMARK VINA RESULT:      -9.5      2.475      4.039
REMARK  Name = 
REMARK  5 active torsions:
REMARK  status: ('A' for Active; 'I' for Inactive)
REMARK    1  A    between atoms: N_3  and  C_4
REMARK    2  A    between atoms: C_9  and  C_10
REMARK    3  A    between atoms: C_10  and  C_11
REMARK    4  A    between atoms: C_11  and  C_12
REMARK    5  A    between atoms: N_24  and  C_25
REMARK                            x       y       z     vdW  Elec       q    Type
REMARK                         _______ _______ _______ _____ _____    ______ ____
ROOT
ATOM      4  C   UNL     1      -2.985   3.006  24.815  0.00  0.00    +0.115 C 
ATOM      5  C   UNL     1      -2.603   3.693  25.064  0.00  0.00    +0.049 C 
ATOM      6  C   UNL     1      -1.795   3.599  24.929  0.00  0.00    +0.138 C 
ATOM      7  N   UNL     1      -1.678   2.853  24.597  0.00  0.00    -0.265 NA
ATOM      8  C   UNL     1      -2.413   2.486  24.526  0.00  0.00    +0.094 C 
ATOM      9  C   UNL     1      -0.915   2.604  24.402  0.00  0.00    +0.080 C 
ATOM     20  C   UNL     1      -0.272   3.101  24.538  0.00  0.00    +0.131 C 
ATOM     21  N   UNL     1      -0.389   3.847  24.870  0.00  0.00    -0.203 NA
ATOM     22  C   UNL     1      -1.151   4.096  25.066  0.00  0.00    +0.256 C 
ATOM     23  O   UNL     1      -1.269   4.842  25.398  0.00  0.00    -0.272 OA
ENDROOT
BRANCH   4   3
ATOM      1  O   UNL     1      -3.950   3.422  23.543  0.00  0.00    -0.249 OA
ATOM      2  C   UNL     1      -4.280   3.071  24.212  0.00  0.00    +0.344 C 
ATOM      3  N   UNL     1      -3.797   2.863  24.849  0.00  0.00    -0.187 NA
ATOM     24  N   UNL     1      -5.092   2.927  24.246  0.00  0.00    -0.160 NA
BRANCH  24  25
ATOM     25  C   UNL     1      -5.421   2.576  24.917  0.00  0.00    +0.082 A 
ATOM     26  C   UNL     1      -5.684   2.970  25.592  0.00  0.00    +0.052 A 
ATOM     27  S   UNL     1      -5.970   2.406  26.122  0.00  0.00    -0.085 S 
ATOM     28  C   UNL     1      -5.883   1.663  25.774  0.00  0.00    +0.037 A 
ATOM     29  C   UNL     1      -5.543   1.768  25.029  0.00  0.00    +0.024 A 
ENDBRANCH  24  25
ENDBRANCH   4   3
BRANCH   9  10
ATOM     10  C   UNL     1      -0.798   1.858  24.069  0.00  0.00    +0.027 C 
BRANCH  10  11
ATOM     11  C   UNL     1      -0.467   1.253  24.521  0.00  0.00    +0.087 C 
BRANCH  11  12
ATOM     12  C   UNL     1      -0.288   0.527  24.171  0.00  0.00    +0.226 C 
ATOM     13  O   UNL     1       0.057   0.505  23.423  0.00  0.00    -0.275 OA
ATOM     14  N   UNL     1      -0.453  -0.175  24.570  0.00  0.00    -0.280 N 
ATOM     15  C   UNL     1      -0.274  -0.900  24.221  0.00  0.00    +0.093 C 
ATOM     16  C   UNL     1      -0.440  -1.604  24.620  0.00  0.00    +0.022 C 
ATOM     17  C   UNL     1      -0.785  -1.580  25.369  0.00  0.00    +0.004 C 
ATOM     18  C   UNL     1      -0.964  -0.855  25.719  0.00  0.00    +0.022 C 
ATOM     19  C   UNL     1      -0.798  -0.153  25.320  0.00  0.00    +0.093 C 
ENDBRANCH  11  12
ENDBRANCH  10  11
ENDBRANCH   9  10
TORSDOF 5
ENDMDL
MODEL 7
REMARK VINA RESULT:      -9.3      2.507      4.900
REMARK  Name = 
REMARK  5 active torsions:
REMARK  status: ('A' for Active; 'I' for Inactive)
REMARK    1  A    between atoms: N_3  and  C_4
REMARK    2  A    between atoms: C_9  and  C_10
REMARK    3  A    between atoms: C_10  and  C_11
REMARK    4  A    between atoms: C_11  and  C_12
REMARK    5  A    between atoms: N_24  and  C_25
REMARK                            x       y       z     vdW  Elec       q    Type
REMARK                         _______ _______ _______ _____ _____    ______ ____
ROOT
ATOM      4  C   UNL     1      -1.053   1.116  24.903  0.00  0.00    +0.115 C 
ATOM      5  C   UNL     1      -0.574   1.625  25.340  0.00  0.00    +0.049 C 
ATOM      6  C   UNL     1      -0.935   2.366  25.354  0.00  0.00    +0.138 C 
ATOM      7  N   UNL     1      -1.638   2.315  24.925  0.00  0.00    -0.265 NA
ATOM      8  C   UNL     1      -1.712   1.543  24.646  0.00  0.00    +0.094 C 
ATOM      9  C   UNL     1      -2.121   2.979  24.845  0.00  0.00    +0.080 C 
ATOM     20  C   UNL     1      -1.901   3.694  25.192  0.00  0.00    +0.131 C 
ATOM     21  N   UNL     1      -1.198   3.745  25.621  0.00  0.00    -0.203 NA
ATOM     22  C   UNL     1      -0.715   3.081  25.702  0.00  0.00    +0.256 C 
ATOM     23  O   UNL     1      -0.012   3.132  26.131  0.00  0.00    -0.272 OA
ENDROOT
BRANCH   4   3
ATOM      1  O   UNL     1       0.113   0.694  23.815  0.00  0.00    -0.249 OA
ATOM      2  C   UNL     1      -0.318   0.108  24.204  0.00  0.00    +0.344 C 
ATOM      3  N   UNL     1      -0.901   0.320  24.749  0.00  0.00    -0.187 NA
ATOM     24  N   UNL     1      -0.166  -0.688  24.050  0.00  0.00    -0.160 NA
BRANCH  24  25
ATOM     25  C   UNL     1      -0.598  -1.273  24.440  0.00  0.00    +0.082 A 
ATOM     26  C   UNL     1      -1.286  -1.635  24.164  0.00  0.00    +0.052 A 
ATOM     27  S   UNL     1      -1.530  -2.184  24.729  0.00  0.00    -0.085 S 
ATOM     28  C   UNL     1      -0.993  -2.161  25.355  0.00  0.00    +0.037 A 
ATOM     29  C   UNL     1      -0.417  -1.598  25.177  0.00  0.00    +0.024 A 
ENDBRANCH  24  25
ENDBRANCH   4   3
BRANCH   9  10
ATOM     10  C   UNL     1      -2.824   2.928  24.416  0.00  0.00    +0.027 C 
BRANCH  10  11
ATOM     11  C   UNL     1      -3.547   3.057  24.792  0.00  0.00    +0.087 C 
BRANCH  11  12
ATOM     12  C   UNL     1      -4.248   2.810  24.433  0.00  0.00    +0.226 C 
ATOM     13  O   UNL     1      -4.295   2.757  23.612  0.00  0.00    -0.275 OA
ATOM     14  N   UNL     1      -4.902   2.616  24.897  0.00  0.00    -0.280 N 
ATOM     15  C   UNL     1      -5.603   2.369  24.539  0.00  0.00    +0.093 C 
ATOM     16  C   UNL     1      -6.257   2.175  25.003  0.00  0.00    +0.022 C 
ATOM     17  C   UNL     1      -6.210   2.228  25.825  0.00  0.00    +0.004 C 
ATOM     18  C   UNL     1      -5.509   2.475  26.183  0.00  0.00    +0.022 C 
ATOM     19  C   UNL     1      -4.855   2.669  25.719  0.00  0.00    +0.093 C 
ENDBRANCH  11  12
ENDBRANCH  10  11
ENDBRANCH   9  10
TORSDOF 5
ENDMDL
