MODEL 1
REMARK VINA RESULT:     -17.2      0.000      0.000
REMARK  Name = 
REMARK  3 active torsions:
REMARK  status: ('A' for Active; 'I' for Inactive)
REMARK    1  A    between atoms: C_2  and  C_26
REMARK    2  A    between atoms: C_12  and  C_13
REMARK    3  A    between atoms: C_29  and  C_32
REMARK                            x       y       z     vdW  Elec       q    Type
REMARK                         _______ _______ _______ _____ _____    ______ ____
ROOT
ATOM      1  O   UNL     1      -6.212   1.929  24.885  0.00  0.00    -0.270 OA
ATOM      2  C   UNL     1      -5.331   1.901  24.882  0.00  0.00    +0.249 C 
ATOM      3  N   UNL     1      -5.078   2.655  25.131  0.00  0.00    -0.276 N 
ATOM      4  C   UNL     1      -5.260   3.430  25.384  0.00  0.00    +0.096 C 
ATOM      5  C   UNL     1      -4.346   3.784  25.506  0.00  0.00    +0.043 C 
ATOM      6  C   UNL     1      -3.672   4.218  25.653  0.00  0.00    +0.011 C 
ATOM      7  C   UNL     1      -3.835   3.570  25.439  0.00  0.00    +0.058 C 
ATOM      8  C   UNL     1      -4.725   3.242  25.326  0.00  0.00    +0.099 C 
ATOM      9  C   UNL     1      -3.448   2.777  25.181  0.00  0.00    +0.041 A 
ATOM     10  C   UNL     1      -2.707   2.432  25.072  0.00  0.00    +0.013 A 
ATOM     11  C   UNL     1      -2.650   1.650  24.816  0.00  0.00    +0.006 A 
ATOM     12  C   UNL     1      -3.444   1.252  24.680  0.00  0.00    +0.062 A 
ATOM     22  C   UNL     1      -4.076   1.558  24.777  0.00  0.00    +0.261 A 
ATOM     23  O   UNL     1      -5.059   1.271  24.677  0.00  0.00    -0.267 OA
ATOM     24  N   UNL     1      -4.133   2.340  25.033  0.00  0.00    -0.299 N 
ATOM     25  C   UNL     1      -3.950   2.952  25.235  0.00  0.00    +0.110 C 
ENDROOT
BRANCH  12  13
ATOM     13  C   UNL     1      -3.606   0.545  24.448  0.00  0.00    +0.034 A 
ATOM     14  C   UNL     1      -3.774  -0.103  24.192  0.00  0.00    +0.007 A 
ATOM     15  C   UNL     1      -3.788  -0.848  24.286  0.00  0.00    +0.006 A 
ATOM     16  C   UNL     1      -3.449  -0.924  25.036  0.00  0.00    +0.029 A 
ATOM     17  S   UNL     1      -3.203   0.035  25.407  0.00  0.00    -0.087 S 
ATOM     18  C   UNL     1      -3.352  -1.672  25.370  0.00  0.00    +0.006 A 
ATOM     19  C   UNL     1      -3.595  -2.343  24.957  0.00  0.00    +0.001 A 
ATOM     20  C   UNL     1      -3.934  -2.268  24.209  0.00  0.00    +0.000 A 
ATOM     21  C   UNL     1      -4.030  -1.521  23.874  0.00  0.00    +0.001 A 
ENDBRANCH  12  13
BRANCH   2  26
ATOM     26  C   UNL     1      -4.555   1.390  24.719  0.00  0.00    +0.054 A 
ATOM     27  C   UNL     1      -4.271   1.400  23.945  0.00  0.00    +0.005 A 
ATOM     28  C   UNL     1      -3.595   0.969  23.749  0.00  0.00    +0.010 A 
ATOM     29  C   UNL     1      -3.204   0.529  24.327  0.00  0.00    +0.068 A 
ATOM     30  C   UNL     1      -3.489   0.520  25.101  0.00  0.00    +0.010 A 
ATOM     31  C   UNL     1      -4.165   0.950  25.297  0.00  0.00    +0.005 A 
BRANCH  29  32
ATOM     32  C   UNL     1      -2.498   0.123  23.966  0.00  0.00    +0.100 C 
ATOM     33  N   UNL     1      -1.747   0.208  23.498  0.00  0.00    -0.191 NA
ENDBRANCH  29  32
ENDBRANCH   2  26
TORSDOF 3
ENDMDL
MODEL 2
REMARK VINA RESULT:     -16.9      1.397      4.158
REMARK  Name = 
REMARK  3 active torsions:
REMARK  status: ('A' for Active; 'I' for Inactive)
REMARK    1  A    between atoms: C_2  and  C_26
REMARK    2  A    between atoms: C_12  and  C_13
REMARK    3  A    between atoms: C_29  and  C_32
REMARK                            x       y       z     vdW  Elec       q    Type
REMARK                         _______ _______ _______ _____ _____    ______ ____
ROOT
ATOM      1  O   UNL     1      -1.324  -0.735  25.554  0.00  0.00    -0.270 OA
ATOM      2  C   UNL     1      -2.134  -0.689  25.211  0.00  0.00    +0.249 C 
ATOM      3  N   UNL     1      -2.327  -1.465  24.976  0.00  0.00    -0.276 N 
ATOM      4  C   UNL     1      -2.118  -2.271  24.910  0.00  0.00    +0.096 C 
ATOM      5  C   UNL     1      -2.939  -2.620  24.485  0.00  0.00    +0.043 C 
ATOM      6  C   UNL     1      -3.535  -3.057  24.141  0.00  0.00    +0.011 C 
ATOM      7  C   UNL     1      -3.420  -2.389  24.322  0.00  0.00    +0.058 C 
ATOM      8  C   UNL     1      -2.619  -2.067  24.732  0.00  0.00    +0.099 C 
ATOM      9  C   UNL     1      -3.817  -1.561  24.311  0.00  0.00    +0.041 A 
ATOM     10  C   UNL     1      -4.517  -1.189  24.080  0.00  0.00    +0.013 A 
ATOM     11  C   UNL     1      -4.610  -0.378  24.198  0.00  0.00    +0.006 A 
ATOM     12  C   UNL     1      -3.903   0.019  24.582  0.00  0.00    +0.062 A 
ATOM     22  C   UNL     1      -3.306  -0.310  24.777  0.00  0.00    +0.261 A 
ATOM     23  O   UNL     1      -2.418  -0.032  25.217  0.00  0.00    -0.267 OA
ATOM     24  N   UNL     1      -3.212  -1.121  24.659  0.00  0.00    -0.299 N 
ATOM     25  C   UNL     1      -3.347  -1.751  24.478  0.00  0.00    +0.110 C 
ENDROOT
BRANCH  12  13
ATOM     13  C   UNL     1      -3.791   0.748  24.773  0.00  0.00    +0.034 A 
ATOM     14  C   UNL     1      -3.689   1.422  24.993  0.00  0.00    +0.007 A 
ATOM     15  C   UNL     1      -3.574   2.145  24.823  0.00  0.00    +0.006 A 
ATOM     16  C   UNL     1      -3.565   2.118  23.997  0.00  0.00    +0.029 A 
ATOM     17  S   UNL     1      -3.716   1.121  23.679  0.00  0.00    -0.087 S 
ATOM     18  C   UNL     1      -3.450   2.810  23.564  0.00  0.00    +0.006 A 
ATOM     19  C   UNL     1      -3.344   3.529  23.954  0.00  0.00    +0.001 A 
ATOM     20  C   UNL     1      -3.352   3.556  24.778  0.00  0.00    +0.000 A 
ATOM     21  C   UNL     1      -3.467   2.864  25.212  0.00  0.00    +0.001 A 
ENDBRANCH  12  13
BRANCH   2  26
ATOM     26  C   UNL     1      -2.874  -0.145  24.996  0.00  0.00    +0.054 A 
ATOM     27  C   UNL     1      -3.424  -0.026  25.600  0.00  0.00    +0.005 A 
ATOM     28  C   UNL     1      -4.090   0.443  25.464  0.00  0.00    +0.010 A 
ATOM     29  C   UNL     1      -4.206   0.791  24.726  0.00  0.00    +0.068 A 
ATOM     30  C   UNL     1      -3.656   0.672  24.122  0.00  0.00    +0.010 A 
ATOM     31  C   UNL     1      -2.989   0.203  24.258  0.00  0.00    +0.005 A 
BRANCH  29  32
ATOM     32  C   UNL     1      -4.962   1.262  24.733  0.00  0.00    +0.100 C 
ATOM     33  N   UNL     1      -5.807   1.310  25.000  0.00  0.00    -0.191 NA
ENDBRANCH  29  32
ENDBRANCH   2  26
TORSDOF 3
ENDMDL
MODEL 3
REMARK VINA RESULT:     -16.6      1.349      2.005
REMARK  Name = 
REMARK  3 active torsions:
REMARK  status: ('A' for Active; 'I' for Inactive)
REMARK    1  A    between atoms: C_2  and  C_26
REMARK    2  A    between atoms: C_12  and  C_13
REMARK    3  A    between atoms: C_29  and  C_32
REMARK                            x       y       z     vdW  Elec       q    Type
REMARK                         _______ _______ _______ _____ _____    ______ ____
ROOT
ATOM      1  O   UNL     1      -2.257   1.616  22.738  0.00  0.00    -0.270 OA
ATOM      2  C   UNL     1      -2.813   1.408  23.389  0.00  0.00    +0.249 C 
ATOM      3  N   UNL     1      -3.252   2.100  23.545  0.00  0.00    -0.276 N 
ATOM      4  C   UNL     1      -3.417   2.902  23.379  0.00  0.00    +0.096 C 
ATOM      5  C   UNL     1      -4.135   3.063  24.038  0.00  0.00    +0.043 C 
ATOM      6  C   UNL     1      -4.727   3.353  24.517  0.00  0.00    +0.011 C 
ATOM      7  C   UNL     1      -4.385   2.747  24.424  0.00  0.00    +0.058 C 
ATOM      8  C   UNL     1      -3.693   2.607  23.781  0.00  0.00    +0.099 C 
ATOM      9  C   UNL     1      -4.345   1.885  24.742  0.00  0.00    +0.041 A 
ATOM     10  C   UNL     1      -4.696   1.393  25.303  0.00  0.00    +0.013 A 
ATOM     11  C   UNL     1      -4.447   0.610  25.377  0.00  0.00    +0.006 A 
ATOM     12  C   UNL     1      -3.791   0.380  24.808  0.00  0.00    +0.062 A 
ATOM     22  C   UNL     1      -3.496   0.812  24.329  0.00  0.00    +0.261 A 
ATOM     23  O   UNL     1      -2.759   0.731  23.616  0.00  0.00    -0.267 OA
ATOM     24  N   UNL     1      -3.745   1.595  24.255  0.00  0.00    -0.299 N 
ATOM     25  C   UNL     1      -4.086   2.161  24.364  0.00  0.00    +0.110 C 
ENDROOT
BRANCH  12  13
ATOM     13  C   UNL     1      -3.429  -0.283  24.717  0.00  0.00    +0.034 A 
ATOM     14  C   UNL     1      -3.052  -0.889  24.647  0.00  0.00    +0.007 A 
ATOM     15  C   UNL     1      -3.030  -1.613  24.449  0.00  0.00    +0.006 A 
ATOM     16  C   UNL     1      -3.809  -1.740  24.205  0.00  0.00    +0.029 A 
ATOM     17  S   UNL     1      -4.358  -0.843  24.312  0.00  0.00    -0.087 S 
ATOM     18  C   UNL     1      -4.039  -2.484  23.934  0.00  0.00    +0.006 A 
ATOM     19  C   UNL     1      -3.493  -3.101  23.906  0.00  0.00    +0.001 A 
ATOM     20  C   UNL     1      -2.715  -2.975  24.149  0.00  0.00    +0.000 A 
ATOM     21  C   UNL     1      -2.483  -2.232  24.420  0.00  0.00    +0.001 A 
ENDBRANCH  12  13
BRANCH   2  26
ATOM     26  C   UNL     1      -3.126   0.745  23.982  0.00  0.00    +0.054 A 
ATOM     27  C   UNL     1      -2.697   0.652  24.681  0.00  0.00    +0.005 A 
ATOM     28  C   UNL     1      -2.929   0.085  25.234  0.00  0.00    +0.010 A 
ATOM     29  C   UNL     1      -3.588  -0.388  25.089  0.00  0.00    +0.068 A 
ATOM     30  C   UNL     1      -4.017  -0.295  24.390  0.00  0.00    +0.010 A 
ATOM     31  C   UNL     1      -3.786   0.272  23.836  0.00  0.00    +0.005 A 
BRANCH  29  32
ATOM     32  C   UNL     1      -3.711  -0.947  25.772  0.00  0.00    +0.100 C 
ATOM     33  N   UNL     1      -3.654  -1.076  26.649  0.00  0.00    -0.191 NA
ENDBRANCH  29  32
ENDBRANCH   2  26
TORSDOF 3
ENDMDL
MODEL 4
REMARK VINA RESULT:     -16.4      1.585      2.435
REMARK  Name = 
REMARK  3 active torsions:
REMARK  status: ('A' for Active; 'I' for Inactive)
REMARK    1  A    between atoms: C_2  and  C_26
REMARK    2  A    between atoms: C_12  and  C_13
REMARK    3  A    between atoms: C_29  and  C_32
REMARK                            x       y       z     vdW  Elec       q    Type
REMARK                         _______ _______ _______ _____ _____    ______ ____
ROOT
ATOM      1  O   UNL     1      -0.684   2.149  23.500  0.00  0.00    -0.270 OA
ATOM      2  C   UNL     1      -1.416   2.343  23.951  0.00  0.00    +0.249 C 
ATOM      3  N   UNL     1      -1.281   3.090  24.295  0.00  0.00    -0.276 N 
ATOM      4  C   UNL     1      -0.780   3.748  24.418  0.00  0.00    +0.096 C 
ATOM      5  C   UNL     1      -1.367   4.297  24.994  0.00  0.00    +0.043 C 
ATOM      6  C   UNL     1      -1.720   4.859  25.466  0.00  0.00    +0.011 C 
ATOM      7  C   UNL     1      -1.881   4.230  25.199  0.00  0.00    +0.058 C 
ATOM      8  C   UNL     1      -1.302   3.711  24.644  0.00  0.00    +0.099 C 
ATOM      9  C   UNL     1      -2.556   3.607  25.178  0.00  0.00    +0.041 A 
ATOM     10  C   UNL     1      -3.318   3.479  25.467  0.00  0.00    +0.013 A 
ATOM     11  C   UNL     1      -3.719   2.783  25.277  0.00  0.00    +0.006 A 
ATOM     12  C   UNL     1      -3.251   2.224  24.752  0.00  0.00    +0.062 A 
ATOM     22  C   UNL     1      -2.597   2.345  24.509  0.00  0.00    +0.261 A 
ATOM     23  O   UNL     1      -1.923   1.840  23.916  0.00  0.00    -0.267 OA
ATOM     24  N   UNL     1      -2.196   3.040  24.699  0.00  0.00    -0.299 N 
ATOM     25  C   UNL     1      -2.067   3.641  24.966  0.00  0.00    +0.110 C 
ENDROOT
BRANCH  12  13
ATOM     13  C   UNL     1      -3.440   1.543  24.469  0.00  0.00    +0.034 A 
ATOM     14  C   UNL     1      -3.620   0.920  24.165  0.00  0.00    +0.007 A 
ATOM     15  C   UNL     1      -3.755   0.184  24.235  0.00  0.00    +0.006 A 
ATOM     16  C   UNL     1      -3.629   0.072  25.043  0.00  0.00    +0.029 A 
ATOM     17  S   UNL     1      -3.364   0.995  25.487  0.00  0.00    -0.087 S 
ATOM     18  C   UNL     1      -3.720  -0.678  25.374  0.00  0.00    +0.006 A 
ATOM     19  C   UNL     1      -3.934  -1.316  24.898  0.00  0.00    +0.001 A 
ATOM     20  C   UNL     1      -4.059  -1.204  24.090  0.00  0.00    +0.000 A 
ATOM     21  C   UNL     1      -3.970  -0.455  23.759  0.00  0.00    +0.001 A 
ENDBRANCH  12  13
BRANCH   2  26
ATOM     26  C   UNL     1      -2.281   2.073  24.212  0.00  0.00    +0.054 A 
ATOM     27  C   UNL     1      -2.890   2.247  23.683  0.00  0.00    +0.005 A 
ATOM     28  C   UNL     1      -3.666   2.032  23.863  0.00  0.00    +0.010 A 
ATOM     29  C   UNL     1      -3.833   1.643  24.571  0.00  0.00    +0.068 A 
ATOM     30  C   UNL     1      -3.224   1.469  25.100  0.00  0.00    +0.010 A 
ATOM     31  C   UNL     1      -2.447   1.684  24.920  0.00  0.00    +0.005 A 
BRANCH  29  32
ATOM     32  C   UNL     1      -4.707   1.479  24.622  0.00  0.00    +0.100 C 
ATOM     33  N   UNL     1      -5.530   1.813  24.623  0.00  0.00    -0.191 NA
ENDBRANCH  29  32
ENDBRANCH   2  26
TORSDOF 3
ENDMDL
