MODEL 1
REMARK VINA RESULT:      -9.8      0.000      0.000
REMARK  Name = 
REMARK  5 active torsions:
REMARK  status: ('A' for Active; 'I' for Inactive)
REMARK    1  A    between atoms: N_3  and  C_4
REMARK    2  A    between atoms: C_4  and  C_5
REMARK    3  A    between atoms: N_11  and  C_12
REMARK    4  A    between atoms: C_16  and  N_20
REMARK    5  A    between atoms: C_23  and  C_27
REMARK                            x       y       z     vdW  Elec       q    Type
REMARK                         _______ _______ _______ _____ _____    ______ ____
ROOT
ATOM     12  C   UNL     1       0.499   1.127  23.880  0.00  0.00    +0.156 C 
ATOM     13  C   UNL     1       0.050   0.577  23.460  0.00  0.00    +0.166 C 
ATOM     14  O   UNL     1      -0.727   0.621  23.735  0.00  0.00    -0.350 OA
ATOM     15  C   UNL     1      -0.758   1.197  24.323  0.00  0.00    +0.166 C 
ATOM     16  C   UNL     1      -1.256   1.581  24.858  0.00  0.00    +0.154 C 
ATOM     17  C   UNL     1      -0.806   2.130  25.277  0.00  0.00    +0.166 C 
ATOM     18  O   UNL     1      -0.030   2.086  25.003  0.00  0.00    -0.350 OA
ATOM     19  C   UNL     1       0.001   1.510  24.413  0.00  0.00    +0.166 C 
ENDROOT
BRANCH  16  20
ATOM     20  N   UNL     1      -2.063   1.440  24.955  0.00  0.00    -0.200 NA
ATOM     21  C   UNL     1      -2.600   2.064  24.907  0.00  0.00    +0.237 A 
ATOM     22  N   UNL     1      -3.407   1.923  25.003  0.00  0.00    -0.209 NA
ATOM     23  C   UNL     1      -3.944   2.547  24.956  0.00  0.00    +0.120 A 
ATOM     24  C   UNL     1      -3.674   3.313  24.811  0.00  0.00    +0.043 A 
ATOM     25  C   UNL     1      -2.866   3.455  24.714  0.00  0.00    +0.104 A 
ATOM     26  N   UNL     1      -2.330   2.830  24.762  0.00  0.00    -0.211 NA
BRANCH  23  27
ATOM     27  C   UNL     1      -4.750   2.406  25.052  0.00  0.00    +0.163 A 
ATOM     28  C   UNL     1      -5.217   2.668  25.682  0.00  0.00    +0.042 A 
ATOM     29  C   UNL     1      -5.987   2.402  25.555  0.00  0.00    +0.044 A 
ATOM     30  C   UNL     1      -5.998   1.977  24.849  0.00  0.00    +0.180 A 
ATOM     31  O   UNL     1      -5.233   1.980  24.538  0.00  0.00    -0.449 OA
ENDBRANCH  23  27
ENDBRANCH  16  20
BRANCH  12  11
ATOM      1  O   UNL     1       1.437   0.034  23.075  0.00  0.00    -0.249 OA
ATOM      2  C   UNL     1       1.776   0.722  23.381  0.00  0.00    +0.340 C 
ATOM      3  N   UNL     1       2.583   0.863  23.284  0.00  0.00    -0.182 NA
ATOM     11  N   UNL     1       1.307   1.268  23.783  0.00  0.00    -0.184 NA
BRANCH   3   4
ATOM      4  C   UNL     1       3.052   0.317  22.881  0.00  0.00    +0.143 C 
BRANCH   4   5
ATOM      5  C   UNL     1       3.844   0.220  23.089  0.00  0.00    -0.001 A 
ATOM      6  C   UNL     1       4.369   0.853  23.018  0.00  0.00    -0.003 A 
ATOM      7  C   UNL     1       5.162   0.756  23.226  0.00  0.00    -0.000 A 
ATOM      8  C   UNL     1       5.430   0.028  23.506  0.00  0.00    -0.000 A 
ATOM      9  C   UNL     1       4.904  -0.605  23.577  0.00  0.00    -0.000 A 
ATOM     10  C   UNL     1       4.112  -0.508  23.369  0.00  0.00    -0.003 A 
ENDBRANCH   4   5
ENDBRANCH   3   4
ENDBRANCH  12  11
TORSDOF 5
ENDMDL
MODEL 2
REMARK VINA RESULT:      -9.1      0.997      7.338
REMARK  Name = 
REMARK  5 active torsions:
REMARK  status: ('A' for Active; 'I' for Inactive)
REMARK    1  A    between atoms: N_3  and  C_4
REMARK    2  A    between atoms: C_4  and  C_5
REMARK    3  A    between atoms: N_11  and  C_12
REMARK    4  A    between atoms: C_16  and  N_20
REMARK    5  A    between atoms: C_23  and  C_27
REMARK                            x       y       z     vdW  Elec       q    Type
REMARK                         _______ _______ _______ _____ _____    ______ ____
ROOT
ATOM     12  C   UNL     1      -1.684   1.952  23.973  0.00  0.00    +0.156 C 
ATOM     13  C   UNL     1      -1.252   2.654  24.000  0.00  0.00    +0.166 C 
ATOM     14  O   UNL     1      -0.451   2.460  24.012  0.00  0.00    -0.350 OA
ATOM     15  C   UNL     1      -0.387   1.638  23.992  0.00  0.00    +0.166 C 
ATOM     16  C   UNL     1       0.147   1.009  23.986  0.00  0.00    +0.154 C 
ATOM     17  C   UNL     1      -0.285   0.307  23.959  0.00  0.00    +0.166 C 
ATOM     18  O   UNL     1      -1.086   0.502  23.947  0.00  0.00    -0.350 OA
ATOM     19  C   UNL     1      -1.149   1.325  23.968  0.00  0.00    +0.166 C 
ENDROOT
BRANCH  16  20
ATOM     20  N   UNL     1       0.970   1.072  24.005  0.00  0.00    -0.200 NA
ATOM     21  C   UNL     1       1.427   0.675  23.445  0.00  0.00    +0.237 A 
ATOM     22  N   UNL     1       2.249   0.737  23.463  0.00  0.00    -0.209 NA
ATOM     23  C   UNL     1       2.706   0.339  22.903  0.00  0.00    +0.120 A 
ATOM     24  C   UNL     1       2.341  -0.121  22.324  0.00  0.00    +0.043 A 
ATOM     25  C   UNL     1       1.518  -0.184  22.306  0.00  0.00    +0.104 A 
ATOM     26  N   UNL     1       1.062   0.214  22.866  0.00  0.00    -0.211 NA
BRANCH  23  27
ATOM     27  C   UNL     1       3.528   0.402  22.921  0.00  0.00    +0.163 A 
ATOM     28  C   UNL     1       3.971   1.055  22.677  0.00  0.00    +0.042 A 
ATOM     29  C   UNL     1       4.768   0.880  22.792  0.00  0.00    +0.044 A 
ATOM     30  C   UNL     1       4.819   0.119  23.106  0.00  0.00    +0.180 A 
ATOM     31  O   UNL     1       4.053  -0.176  23.186  0.00  0.00    -0.449 OA
ENDBRANCH  23  27
ENDBRANCH  16  20
BRANCH  12  11
ATOM      1  O   UNL     1      -2.607   2.921  24.938  0.00  0.00    -0.249 OA
ATOM      2  C   UNL     1      -2.969   2.374  24.437  0.00  0.00    +0.340 C 
ATOM      3  N   UNL     1      -3.790   2.311  24.419  0.00  0.00    -0.182 NA
ATOM     11  N   UNL     1      -2.506   1.889  23.955  0.00  0.00    -0.184 NA
BRANCH   3   4
ATOM      4  C   UNL     1      -4.253   2.795  24.901  0.00  0.00    +0.143 C 
BRANCH   4   5
ATOM      5  C   UNL     1      -4.994   2.539  25.155  0.00  0.00    -0.001 A 
ATOM      6  C   UNL     1      -5.441   2.034  24.679  0.00  0.00    -0.003 A 
ATOM      7  C   UNL     1      -6.183   1.777  24.933  0.00  0.00    -0.000 A 
ATOM      8  C   UNL     1      -6.478   2.024  25.663  0.00  0.00    -0.000 A 
ATOM      9  C   UNL     1      -6.030   2.529  26.139  0.00  0.00    -0.000 A 
ATOM     10  C   UNL     1      -5.289   2.786  25.885  0.00  0.00    -0.003 A 
ENDBRANCH   4   5
ENDBRANCH   3   4
ENDBRANCH  12  11
TORSDOF 5
ENDMDL
MODEL 3
REMARK VINA RESULT:      -7.1     15.092     15.836
REMARK  Name = 
REMARK  5 active torsions:
REMARK  status: ('A' for Active; 'I' for Inactive)
REMARK    1  A    between atoms: N_3  and  C_4
REMARK    2  A    between atoms: C_4  and  C_5
REMARK    3  A    between atoms: N_11  and  C_12
REMARK    4  A    between atoms: C_16  and  N_20
REMARK    5  A    between atoms: C_23  and  C_27
REMARK                            x       y       z     vdW  Elec       q    Type
REMARK                         _______ _______ _______ _____ _____    ______ ____
ROOT
ATOM     12  C   UNL     1      -5.586 -10.443  14.761  0.00  0.00    +0.156 C 
ATOM     13  C   UNL     1      -6.270 -10.781  14.448  0.00  0.00    +0.166 C 
ATOM     14  O   UNL     1      -6.882 -10.662  14.987  0.00  0.00    -0.350 OA
ATOM     15  C   UNL     1      -6.578 -10.250  15.633  0.00  0.00    +0.166 C 
ATOM     16  C   UNL     1      -6.767  -9.922  16.365  0.00  0.00    +0.154 C 
ATOM     17  C   UNL     1      -6.083  -9.583  16.679  0.00  0.00    +0.166 C 
ATOM     18  O   UNL     1      -5.470  -9.703  16.140  0.00  0.00    -0.350 OA
ATOM     19  C   UNL     1      -5.776 -10.115  15.493  0.00  0.00    +0.166 C 
ENDROOT
BRANCH  16  20
ATOM     20  N   UNL     1      -7.511  -9.930  16.722  0.00  0.00    -0.200 NA
ATOM     21  C   UNL     1      -7.592 -10.187  17.502  0.00  0.00    +0.237 A 
ATOM     22  N   UNL     1      -8.335 -10.196  17.859  0.00  0.00    -0.209 NA
ATOM     23  C   UNL     1      -8.416 -10.453  18.639  0.00  0.00    +0.120 A 
ATOM     24  C   UNL     1      -7.753 -10.701  19.062  0.00  0.00    +0.043 A 
ATOM     25  C   UNL     1      -7.009 -10.693  18.705  0.00  0.00    +0.104 A 
ATOM     26  N   UNL     1      -6.929 -10.436  17.925  0.00  0.00    -0.211 NA
BRANCH  23  27
ATOM     27  C   UNL     1      -9.160 -10.461  18.995  0.00  0.00    +0.163 A 
ATOM     28  C   UNL     1      -9.855 -10.153  18.675  0.00  0.00    +0.042 A 
ATOM     29  C   UNL     1     -10.464 -10.281  19.217  0.00  0.00    +0.044 A 
ATOM     30  C   UNL     1     -10.145 -10.667  19.872  0.00  0.00    +0.180 A 
ATOM     31  O   UNL     1      -9.339 -10.778  19.735  0.00  0.00    -0.449 OA
ENDBRANCH  23  27
ENDBRANCH  16  20
BRANCH  12  11
ATOM      1  O   UNL     1      -5.460 -10.354  13.118  0.00  0.00    -0.249 OA
ATOM      2  C   UNL     1      -4.778 -10.390  13.583  0.00  0.00    +0.340 C 
ATOM      3  N   UNL     1      -4.035 -10.382  13.226  0.00  0.00    -0.182 NA
ATOM     11  N   UNL     1      -4.842 -10.434  14.404  0.00  0.00    -0.184 NA
BRANCH   3   4
ATOM      4  C   UNL     1      -3.971 -10.337  12.404  0.00  0.00    +0.143 C 
BRANCH   4   5
ATOM      5  C   UNL     1      -3.229 -10.279  12.050  0.00  0.00    -0.001 A 
ATOM      6  C   UNL     1      -2.578 -10.651  12.394  0.00  0.00    -0.003 A 
ATOM      7  C   UNL     1      -1.835 -10.593  12.039  0.00  0.00    -0.000 A 
ATOM      8  C   UNL     1      -1.743 -10.163  11.341  0.00  0.00    -0.000 A 
ATOM      9  C   UNL     1      -2.395  -9.790  10.998  0.00  0.00    -0.000 A 
ATOM     10  C   UNL     1      -3.137  -9.848  11.352  0.00  0.00    -0.003 A 
ENDBRANCH   4   5
ENDBRANCH   3   4
ENDBRANCH  12  11
TORSDOF 5
ENDMDL
MODEL 4
REMARK VINA RESULT:      -7.0     15.748     16.600
REMARK  Name = 
REMARK  5 active torsions:
REMARK  status: ('A' for Active; 'I' for Inactive)
REMARK    1  A    between atoms: N_3  and  C_4
REMARK    2  A    between atoms: C_4  and  C_5
REMARK    3  A    between atoms: N_11  and  C_12
REMARK    4  A    between atoms: C_16  and  N_20
REMARK    5  A    between atoms: C_23  and  C_27
REMARK                            x       y       z     vdW  Elec       q    Type
REMARK                         _______ _______ _______ _____ _____    ______ ____
ROOT
ATOM     12  C   UNL     1      -6.744  -9.829  13.205  0.00  0.00    +0.156 C 
ATOM     13  C   UNL     1      -7.489  -9.540  13.001  0.00  0.00    +0.166 C 
ATOM     14  O   UNL     1      -7.994  -9.662  13.642  0.00  0.00    -0.350 OA
ATOM     15  C   UNL     1      -7.561 -10.026  14.242  0.00  0.00    +0.166 C 
ATOM     16  C   UNL     1      -7.604 -10.327  15.009  0.00  0.00    +0.154 C 
ATOM     17  C   UNL     1      -6.859 -10.616  15.213  0.00  0.00    +0.166 C 
ATOM     18  O   UNL     1      -6.355 -10.494  14.572  0.00  0.00    -0.350 OA
ATOM     19  C   UNL     1      -6.789 -10.129  13.971  0.00  0.00    +0.166 C 
ENDROOT
BRANCH  16  20
ATOM     20  N   UNL     1      -8.276 -10.337  15.488  0.00  0.00    -0.200 NA
ATOM     21  C   UNL     1      -8.242 -10.028  16.252  0.00  0.00    +0.237 A 
ATOM     22  N   UNL     1      -8.913 -10.037  16.732  0.00  0.00    -0.209 NA
ATOM     23  C   UNL     1      -8.880  -9.728  17.496  0.00  0.00    +0.120 A 
ATOM     24  C   UNL     1      -8.174  -9.410  17.781  0.00  0.00    +0.043 A 
ATOM     25  C   UNL     1      -7.502  -9.400  17.302  0.00  0.00    +0.104 A 
ATOM     26  N   UNL     1      -7.537  -9.709  16.537  0.00  0.00    -0.211 NA
BRANCH  23  27
ATOM     27  C   UNL     1      -9.550  -9.738  17.975  0.00  0.00    +0.163 A 
ATOM     28  C   UNL     1      -9.758 -10.334  18.508  0.00  0.00    +0.042 A 
ATOM     29  C   UNL     1     -10.468 -10.118  18.868  0.00  0.00    +0.044 A 
ATOM     30  C   UNL     1     -10.699  -9.390  18.558  0.00  0.00    +0.180 A 
ATOM     31  O   UNL     1     -10.132  -9.155  18.007  0.00  0.00    -0.449 OA
ENDBRANCH  23  27
ENDBRANCH  16  20
BRANCH  12  11
ATOM      1  O   UNL     1      -6.620  -8.728  11.982  0.00  0.00    -0.249 OA
ATOM      2  C   UNL     1      -6.010  -9.269  12.114  0.00  0.00    +0.340 C 
ATOM      3  N   UNL     1      -5.339  -9.259  11.635  0.00  0.00    -0.182 NA
ATOM     11  N   UNL     1      -6.073  -9.819  12.725  0.00  0.00    -0.184 NA
BRANCH   3   4
ATOM      4  C   UNL     1      -5.276  -8.709  11.023  0.00  0.00    +0.143 C 
BRANCH   4   5
ATOM      5  C   UNL     1      -4.716  -8.815  10.428  0.00  0.00    -0.001 A 
ATOM      6  C   UNL     1      -3.920  -8.913  10.623  0.00  0.00    -0.003 A 
ATOM      7  C   UNL     1      -3.359  -9.019  10.028  0.00  0.00    -0.000 A 
ATOM      8  C   UNL     1      -3.593  -9.028   9.237  0.00  0.00    -0.000 A 
ATOM      9  C   UNL     1      -4.389  -8.930   9.041  0.00  0.00    -0.000 A 
ATOM     10  C   UNL     1      -4.950  -8.824   9.636  0.00  0.00    -0.003 A 
ENDBRANCH   4   5
ENDBRANCH   3   4
ENDBRANCH  12  11
TORSDOF 5
ENDMDL
MODEL 5
REMARK VINA RESULT:      -6.7     15.616     16.589
REMARK  Name = 
REMARK  5 active torsions:
REMARK  status: ('A' for Active; 'I' for Inactive)
REMARK    1  A    between atoms: N_3  and  C_4
REMARK    2  A    between atoms: C_4  and  C_5
REMARK    3  A    between atoms: N_11  and  C_12
REMARK    4  A    between atoms: C_16  and  N_20
REMARK    5  A    between atoms: C_23  and  C_27
REMARK                            x       y       z     vdW  Elec       q    Type
REMARK                         _______ _______ _______ _____ _____    ______ ____
ROOT
ATOM     12  C   UNL     1      -5.884 -10.227  13.215  0.00  0.00    +0.156 C 
ATOM     13  C   UNL     1      -6.672 -10.048  13.379  0.00  0.00    +0.166 C 
ATOM     14  O   UNL     1      -6.789 -10.132  14.191  0.00  0.00    -0.350 OA
ATOM     15  C   UNL     1      -6.074 -10.364  14.529  0.00  0.00    +0.166 C 
ATOM     16  C   UNL     1      -5.702 -10.559  15.239  0.00  0.00    +0.154 C 
ATOM     17  C   UNL     1      -4.914 -10.738  15.076  0.00  0.00    +0.166 C 
ATOM     18  O   UNL     1      -4.798 -10.654  14.264  0.00  0.00    -0.350 OA
ATOM     19  C   UNL     1      -5.514 -10.422  13.926  0.00  0.00    +0.166 C 
ENDROOT
BRANCH  16  20
ATOM     20  N   UNL     1      -6.058 -10.573  15.984  0.00  0.00    -0.200 NA
ATOM     21  C   UNL     1      -5.592 -10.558  16.665  0.00  0.00    +0.237 A 
ATOM     22  N   UNL     1      -5.947 -10.572  17.409  0.00  0.00    -0.209 NA
ATOM     23  C   UNL     1      -5.481 -10.557  18.089  0.00  0.00    +0.120 A 
ATOM     24  C   UNL     1      -4.659 -10.529  18.025  0.00  0.00    +0.043 A 
ATOM     25  C   UNL     1      -4.303 -10.516  17.281  0.00  0.00    +0.104 A 
ATOM     26  N   UNL     1      -4.770 -10.530  16.601  0.00  0.00    -0.211 NA
BRANCH  23  27
ATOM     27  C   UNL     1      -5.836 -10.571  18.833  0.00  0.00    +0.163 A 
ATOM     28  C   UNL     1      -6.621 -10.376  19.000  0.00  0.00    +0.042 A 
ATOM     29  C   UNL     1      -6.739 -10.467  19.811  0.00  0.00    +0.044 A 
ATOM     30  C   UNL     1      -6.028 -10.717  20.146  0.00  0.00    +0.180 A 
ATOM     31  O   UNL     1      -5.470 -10.781  19.542  0.00  0.00    -0.449 OA
ENDBRANCH  23  27
ENDBRANCH  16  20
BRANCH  12  11
ATOM      1  O   UNL     1      -6.156  -8.960  12.194  0.00  0.00    -0.249 OA
ATOM      2  C   UNL     1      -5.664  -9.580  11.960  0.00  0.00    +0.340 C 
ATOM      3  N   UNL     1      -5.308  -9.566  11.216  0.00  0.00    -0.182 NA
ATOM     11  N   UNL     1      -5.528 -10.213  12.470  0.00  0.00    -0.184 NA
BRANCH   3   4
ATOM      4  C   UNL     1      -5.444  -8.932  10.705  0.00  0.00    +0.143 C 
BRANCH   4   5
ATOM      5  C   UNL     1      -5.109  -8.930   9.952  0.00  0.00    -0.001 A 
ATOM      6  C   UNL     1      -5.592  -8.977   9.285  0.00  0.00    -0.003 A 
ATOM      7  C   UNL     1      -5.257  -8.975   8.531  0.00  0.00    -0.000 A 
ATOM      8  C   UNL     1      -4.438  -8.926   8.444  0.00  0.00    -0.000 A 
ATOM      9  C   UNL     1      -3.954  -8.879   9.111  0.00  0.00    -0.000 A 
ATOM     10  C   UNL     1      -4.290  -8.881   9.864  0.00  0.00    -0.003 A 
ENDBRANCH   4   5
ENDBRANCH   3   4
ENDBRANCH  12  11
TORSDOF 5
ENDMDL
MODEL 6
REMARK VINA RESULT:      -6.0     16.809     18.516
REMARK  Name = 
REMARK  5 active torsions:
REMARK  status: ('A' for Active; 'I' for Inactive)
REMARK    1  A    between atoms: N_3  and  C_4
REMARK    2  A    between atoms: C_4  and  C_5
REMARK    3  A    between atoms: N_11  and  C_12
REMARK    4  A    between atoms: C_16  and  N_20
REMARK    5  A    between atoms: C_23  and  C_27
REMARK                            x       y       z     vdW  Elec       q    Type
REMARK                         _______ _______ _______ _____ _____    ______ ____
ROOT
ATOM     12  C   UNL     1      -6.470  -9.464  11.874  0.00  0.00    +0.156 C 
ATOM     13  C   UNL     1      -6.687  -9.150  12.605  0.00  0.00    +0.166 C 
ATOM     14  O   UNL     1      -6.134  -9.400  13.164  0.00  0.00    -0.350 OA
ATOM     15  C   UNL     1      -5.576  -9.868  12.779  0.00  0.00    +0.166 C 
ATOM     16  C   UNL     1      -4.888 -10.312  12.884  0.00  0.00    +0.154 C 
ATOM     17  C   UNL     1      -4.671 -10.626  12.153  0.00  0.00    +0.166 C 
ATOM     18  O   UNL     1      -5.225 -10.376  11.595  0.00  0.00    -0.350 OA
ATOM     19  C   UNL     1      -5.784  -9.908  11.981  0.00  0.00    +0.166 C 
ENDROOT
BRANCH  16  20
ATOM     20  N   UNL     1      -4.488 -10.422  13.598  0.00  0.00    -0.200 NA
ATOM     21  C   UNL     1      -3.663 -10.400  13.616  0.00  0.00    +0.237 A 
ATOM     22  N   UNL     1      -3.263 -10.510  14.328  0.00  0.00    -0.209 NA
ATOM     23  C   UNL     1      -2.438 -10.488  14.346  0.00  0.00    +0.120 A 
ATOM     24  C   UNL     1      -2.014 -10.355  13.651  0.00  0.00    +0.043 A 
ATOM     25  C   UNL     1      -2.414 -10.245  12.938  0.00  0.00    +0.104 A 
ATOM     26  N   UNL     1      -3.239 -10.267  12.921  0.00  0.00    -0.211 NA
BRANCH  23  27
ATOM     27  C   UNL     1      -2.038 -10.598  15.059  0.00  0.00    +0.163 A 
ATOM     28  C   UNL     1      -1.221 -10.675  15.150  0.00  0.00    +0.042 A 
ATOM     29  C   UNL     1      -1.062 -10.775  15.953  0.00  0.00    +0.044 A 
ATOM     30  C   UNL     1      -1.780 -10.759  16.358  0.00  0.00    +0.180 A 
ATOM     31  O   UNL     1      -2.383 -10.650  15.806  0.00  0.00    -0.449 OA
ENDBRANCH  23  27
ENDBRANCH  16  20
BRANCH  12  11
ATOM      1  O   UNL     1      -8.070  -9.851  11.758  0.00  0.00    -0.249 OA
ATOM      2  C   UNL     1      -7.671  -9.548  11.102  0.00  0.00    +0.340 C 
ATOM      3  N   UNL     1      -8.071  -9.438  10.390  0.00  0.00    -0.182 NA
ATOM     11  N   UNL     1      -6.871  -9.354  11.161  0.00  0.00    -0.184 NA
BRANCH   3   4
ATOM      4  C   UNL     1      -8.871  -9.631  10.332  0.00  0.00    +0.143 C 
BRANCH   4   5
ATOM      5  C   UNL     1      -9.302  -9.407   9.665  0.00  0.00    -0.001 A 
ATOM      6  C   UNL     1      -9.216  -9.825   8.959  0.00  0.00    -0.003 A 
ATOM      7  C   UNL     1      -9.648  -9.601   8.292  0.00  0.00    -0.000 A 
ATOM      8  C   UNL     1     -10.165  -8.960   8.331  0.00  0.00    -0.000 A 
ATOM      9  C   UNL     1     -10.251  -8.542   9.038  0.00  0.00    -0.000 A 
ATOM     10  C   UNL     1      -9.819  -8.766   9.704  0.00  0.00    -0.003 A 
ENDBRANCH   4   5
ENDBRANCH   3   4
ENDBRANCH  12  11
TORSDOF 5
ENDMDL
