MODEL 1
REMARK VINA RESULT:     -12.1      0.000      0.000
REMARK  Name = 
REMARK  6 active torsions:
REMARK  status: ('A' for Active; 'I' for Inactive)
REMARK    1  A    between atoms: C_4  and  C_18
REMARK    2  A    between atoms: C_6  and  C_8
REMARK    3  A    between atoms: C_11  and  C_14
REMARK    4  A    between atoms: C_25  and  C_26
REMARK    5  A    between atoms: C_26  and  N_27
REMARK    6  A    between atoms: C_28  and  C_30
REMARK                            x       y       z     vdW  Elec       q    Type
REMARK                         _______ _______ _______ _____ _____    ______ ____
ROOT
ATOM      1  C   UNL     1      -5.785   3.495  25.718  0.00  0.00    +0.074 C 
ATOM      2  C   UNL     1      -5.053   3.157  25.541  0.00  0.00    +0.139 A 
ATOM      3  N   UNL     1      -4.991   2.342  25.432  0.00  0.00    -0.235 NA
ATOM      4  C   UNL     1      -4.259   2.004  25.255  0.00  0.00    +0.063 A 
ATOM      5  C   UNL     1      -3.590   2.481  25.186  0.00  0.00    +0.034 A 
ATOM      6  C   UNL     1      -3.652   3.296  25.294  0.00  0.00    +0.084 A 
ATOM      7  N   UNL     1      -4.383   3.634  25.472  0.00  0.00    -0.231 NA
ENDROOT
BRANCH   4  18
ATOM     18  C   UNL     1      -4.197   1.187  25.146  0.00  0.00    +0.056 C 
ATOM     19  C   UNL     1      -3.973   0.763  25.759  0.00  0.00    +0.078 C 
ATOM     20  N   UNL     1      -4.155   0.475  25.007  0.00  0.00    -0.272 NA
ATOM     21  C   UNL     1      -4.418   1.300  24.415  0.00  0.00    +0.072 C 
ATOM     22  C   UNL     1      -4.610   1.550  23.843  0.00  0.00    +0.018 C 
ATOM     23  C   UNL     1      -4.374   0.898  24.411  0.00  0.00    +0.010 C 
ATOM     24  C   UNL     1      -4.374   0.083  24.084  0.00  0.00    +0.018 C 
ATOM     25  C   UNL     1      -4.158  -0.369  24.660  0.00  0.00    +0.079 C 
BRANCH  25  26
ATOM     26  C   UNL     1      -4.013  -1.157  24.854  0.00  0.00    +0.131 C 
BRANCH  26  27
ATOM     27  N   UNL     1      -3.363  -1.549  24.529  0.00  0.00    -0.204 NA
ATOM     28  C   UNL     1      -3.147  -2.293  24.809  0.00  0.00    +0.240 C 
ATOM     29  O   UNL     1      -3.581  -2.647  25.416  0.00  0.00    -0.273 OA
BRANCH  28  30
ATOM     30  C   UNL     1      -2.498  -2.685  24.484  0.00  0.00    +0.071 C 
ATOM     31  C   UNL     1      -1.849  -3.076  24.159  0.00  0.00    +0.009 C 
ATOM     32  C   UNL     1      -1.991  -2.234  24.953  0.00  0.00    +0.009 C 
ATOM     33  C   UNL     1      -3.005  -3.136  24.015  0.00  0.00    +0.009 C 
ENDBRANCH  28  30
ENDBRANCH  26  27
ENDBRANCH  25  26
ENDBRANCH   4  18
BRANCH   6   8
ATOM      8  C   UNL     1      -2.983   3.774  25.225  0.00  0.00    +0.018 A 
ATOM      9  C   UNL     1      -2.843   4.188  24.525  0.00  0.00    +0.001 A 
ATOM     10  C   UNL     1      -2.174   4.666  24.455  0.00  0.00    +0.004 A 
ATOM     11  C   UNL     1      -1.646   4.731  25.086  0.00  0.00    +0.071 A 
ATOM     12  C   UNL     1      -1.787   4.317  25.785  0.00  0.00    +0.004 A 
ATOM     13  C   UNL     1      -2.455   3.839  25.855  0.00  0.00    +0.001 A 
BRANCH  11  14
ATOM     14  C   UNL     1      -0.977   5.209  25.016  0.00  0.00    +0.419 C 
ATOM     15  F   UNL     1      -0.308   5.687  24.946  0.00  0.00    -0.166 F 
ATOM     16  F   UNL     1      -1.417   5.860  25.270  0.00  0.00    -0.166 F 
ATOM     17  F   UNL     1      -0.539   4.558  24.763  0.00  0.00    -0.166 F 
ENDBRANCH  11  14
ENDBRANCH   6   8
TORSDOF 6
ENDMDL
MODEL 2
REMARK VINA RESULT:     -11.2      2.971      5.602
REMARK  Name = 
REMARK  6 active torsions:
REMARK  status: ('A' for Active; 'I' for Inactive)
REMARK    1  A    between atoms: C_4  and  C_18
REMARK    2  A    between atoms: C_6  and  C_8
REMARK    3  A    between atoms: C_11  and  C_14
REMARK    4  A    between atoms: C_25  and  C_26
REMARK    5  A    between atoms: C_26  and  N_27
REMARK    6  A    between atoms: C_28  and  C_30
REMARK                            x       y       z     vdW  Elec       q    Type
REMARK                         _______ _______ _______ _____ _____    ______ ____
ROOT
ATOM      1  C   UNL     1      -6.619   1.248  25.248  0.00  0.00    +0.074 C 
ATOM      2  C   UNL     1      -5.804   1.184  25.134  0.00  0.00    +0.139 A 
ATOM      3  N   UNL     1      -5.334   1.861  25.133  0.00  0.00    -0.235 NA
ATOM      4  C   UNL     1      -4.519   1.797  25.019  0.00  0.00    +0.063 A 
ATOM      5  C   UNL     1      -4.175   1.057  24.907  0.00  0.00    +0.034 A 
ATOM      6  C   UNL     1      -4.645   0.379  24.908  0.00  0.00    +0.084 A 
ATOM      7  N   UNL     1      -5.460   0.442  25.022  0.00  0.00    -0.231 NA
ENDROOT
BRANCH   4  18
ATOM     18  C   UNL     1      -4.048   2.476  25.018  0.00  0.00    +0.056 C 
ATOM     19  C   UNL     1      -3.619   2.613  25.653  0.00  0.00    +0.078 C 
ATOM     20  N   UNL     1      -3.649   3.082  24.975  0.00  0.00    -0.272 NA
ATOM     21  C   UNL     1      -4.318   2.623  24.310  0.00  0.00    +0.072 C 
ATOM     22  C   UNL     1      -4.628   2.610  23.735  0.00  0.00    +0.018 C 
ATOM     23  C   UNL     1      -4.072   2.941  24.356  0.00  0.00    +0.010 C 
ATOM     24  C   UNL     1      -3.662   3.689  24.147  0.00  0.00    +0.018 C 
ATOM     25  C   UNL     1      -3.227   3.859  24.751  0.00  0.00    +0.079 C 
BRANCH  25  26
ATOM     26  C   UNL     1      -2.690   4.418  25.033  0.00  0.00    +0.131 C 
BRANCH  26  27
ATOM     27  N   UNL     1      -1.898   4.378  24.808  0.00  0.00    -0.204 NA
ATOM     28  C   UNL     1      -1.378   4.984  25.018  0.00  0.00    +0.240 C 
ATOM     29  O   UNL     1      -1.651   5.629  25.453  0.00  0.00    -0.273 OA
BRANCH  28  30
ATOM     30  C   UNL     1      -0.585   4.944  24.793  0.00  0.00    +0.071 C 
ATOM     31  C   UNL     1       0.207   4.905  24.568  0.00  0.00    +0.009 C 
ATOM     32  C   UNL     1      -0.527   4.193  25.130  0.00  0.00    +0.009 C 
ATOM     33  C   UNL     1      -0.643   5.695  24.456  0.00  0.00    +0.009 C 
ENDBRANCH  28  30
ENDBRANCH  26  27
ENDBRANCH  25  26
ENDBRANCH   4  18
BRANCH   6   8
ATOM      8  C   UNL     1      -4.302  -0.362  24.795  0.00  0.00    +0.018 A 
ATOM      9  C   UNL     1      -3.897  -0.728  25.415  0.00  0.00    +0.001 A 
ATOM     10  C   UNL     1      -3.553  -1.469  25.303  0.00  0.00    +0.004 A 
ATOM     11  C   UNL     1      -3.614  -1.846  24.571  0.00  0.00    +0.071 A 
ATOM     12  C   UNL     1      -4.018  -1.481  23.952  0.00  0.00    +0.004 A 
ATOM     13  C   UNL     1      -4.362  -0.739  24.064  0.00  0.00    +0.001 A 
BRANCH  11  14
ATOM     14  C   UNL     1      -3.270  -2.588  24.460  0.00  0.00    +0.419 C 
ATOM     15  F   UNL     1      -2.927  -3.330  24.348  0.00  0.00    -0.166 F 
ATOM     16  F   UNL     1      -2.564  -2.226  24.231  0.00  0.00    -0.166 F 
ATOM     17  F   UNL     1      -3.976  -2.948  24.688  0.00  0.00    -0.166 F 
ENDBRANCH  11  14
ENDBRANCH   6   8
TORSDOF 6
ENDMDL
MODEL 3
REMARK VINA RESULT:     -10.5      2.227      3.061
REMARK  Name = 
REMARK  6 active torsions:
REMARK  status: ('A' for Active; 'I' for Inactive)
REMARK    1  A    between atoms: C_4  and  C_18
REMARK    2  A    between atoms: C_6  and  C_8
REMARK    3  A    between atoms: C_11  and  C_14
REMARK    4  A    between atoms: C_25  and  C_26
REMARK    5  A    between atoms: C_26  and  N_27
REMARK    6  A    between atoms: C_28  and  C_30
REMARK                            x       y       z     vdW  Elec       q    Type
REMARK                         _______ _______ _______ _____ _____    ______ ____
ROOT
ATOM      1  C   UNL     1      -0.608   3.614  24.300  0.00  0.00    +0.074 C 
ATOM      2  C   UNL     1      -1.248   3.129  24.490  0.00  0.00    +0.139 A 
ATOM      3  N   UNL     1      -1.152   2.310  24.509  0.00  0.00    -0.235 NA
ATOM      4  C   UNL     1      -1.792   1.824  24.698  0.00  0.00    +0.063 A 
ATOM      5  C   UNL     1      -2.526   2.157  24.869  0.00  0.00    +0.034 A 
ATOM      6  C   UNL     1      -2.622   2.976  24.850  0.00  0.00    +0.084 A 
ATOM      7  N   UNL     1      -1.983   3.462  24.661  0.00  0.00    -0.231 NA
ENDROOT
BRANCH   4  18
ATOM     18  C   UNL     1      -1.696   1.004  24.717  0.00  0.00    +0.056 C 
ATOM     19  C   UNL     1      -2.064   0.590  24.171  0.00  0.00    +0.078 C 
ATOM     20  N   UNL     1      -1.585   0.288  24.771  0.00  0.00    -0.272 NA
ATOM     21  C   UNL     1      -1.243   1.103  25.334  0.00  0.00    +0.072 C 
ATOM     22  C   UNL     1      -0.894   1.343  25.832  0.00  0.00    +0.018 C 
ATOM     23  C   UNL     1      -1.227   0.700  25.303  0.00  0.00    +0.010 C 
ATOM     24  C   UNL     1      -0.995  -0.122  25.503  0.00  0.00    +0.018 C 
ATOM     25  C   UNL     1      -1.339  -0.565  24.985  0.00  0.00    +0.079 C 
BRANCH  25  26
ATOM     26  C   UNL     1      -1.433  -1.351  24.755  0.00  0.00    +0.131 C 
BRANCH  26  27
ATOM     27  N   UNL     1      -2.177  -1.706  24.796  0.00  0.00    -0.204 NA
ATOM     28  C   UNL     1      -2.284  -2.473  24.513  0.00  0.00    +0.240 C 
ATOM     29  O   UNL     1      -1.648  -2.886  24.189  0.00  0.00    -0.273 OA
BRANCH  28  30
ATOM     30  C   UNL     1      -3.028  -2.828  24.554  0.00  0.00    +0.071 C 
ATOM     31  C   UNL     1      -3.771  -3.183  24.595  0.00  0.00    +0.009 C 
ATOM     32  C   UNL     1      -2.979  -2.836  25.377  0.00  0.00    +0.009 C 
ATOM     33  C   UNL     1      -3.077  -2.821  23.731  0.00  0.00    +0.009 C 
ENDBRANCH  28  30
ENDBRANCH  26  27
ENDBRANCH  25  26
ENDBRANCH   4  18
BRANCH   6   8
ATOM      8  C   UNL     1      -3.357   3.310  25.021  0.00  0.00    +0.018 A 
ATOM      9  C   UNL     1      -3.946   3.326  24.444  0.00  0.00    +0.001 A 
ATOM     10  C   UNL     1      -4.682   3.660  24.613  0.00  0.00    +0.004 A 
ATOM     11  C   UNL     1      -4.827   3.979  25.361  0.00  0.00    +0.071 A 
ATOM     12  C   UNL     1      -4.237   3.963  25.937  0.00  0.00    +0.004 A 
ATOM     13  C   UNL     1      -3.502   3.629  25.767  0.00  0.00    +0.001 A 
BRANCH  11  14
ATOM     14  C   UNL     1      -5.562   4.313  25.531  0.00  0.00    +0.419 C 
ATOM     15  F   UNL     1      -6.297   4.646  25.701  0.00  0.00    -0.166 F 
ATOM     16  F   UNL     1      -5.273   5.056  25.319  0.00  0.00    -0.166 F 
ATOM     17  F   UNL     1      -5.850   3.569  25.742  0.00  0.00    -0.166 F 
ENDBRANCH  11  14
ENDBRANCH   6   8
TORSDOF 6
ENDMDL
MODEL 4
REMARK VINA RESULT:     -10.4      3.573      6.418
REMARK  Name = 
REMARK  6 active torsions:
REMARK  status: ('A' for Active; 'I' for Inactive)
REMARK    1  A    between atoms: C_4  and  C_18
REMARK    2  A    between atoms: C_6  and  C_8
REMARK    3  A    between atoms: C_11  and  C_14
REMARK    4  A    between atoms: C_25  and  C_26
REMARK    5  A    between atoms: C_26  and  N_27
REMARK    6  A    between atoms: C_28  and  C_30
REMARK                            x       y       z     vdW  Elec       q    Type
REMARK                         _______ _______ _______ _____ _____    ______ ____
ROOT
ATOM      1  C   UNL     1       0.173  -2.205  25.422  0.00  0.00    +0.074 C 
ATOM      2  C   UNL     1      -0.415  -1.666  25.213  0.00  0.00    +0.139 A 
ATOM      3  N   UNL     1      -0.260  -0.856  25.238  0.00  0.00    -0.235 NA
ATOM      4  C   UNL     1      -0.849  -0.317  25.028  0.00  0.00    +0.063 A 
ATOM      5  C   UNL     1      -1.591  -0.587  24.794  0.00  0.00    +0.034 A 
ATOM      6  C   UNL     1      -1.747  -1.396  24.769  0.00  0.00    +0.084 A 
ATOM      7  N   UNL     1      -1.159  -1.936  24.978  0.00  0.00    -0.231 NA
ENDROOT
BRANCH   4  18
ATOM     18  C   UNL     1      -0.693   0.494  25.053  0.00  0.00    +0.056 C 
ATOM     19  C   UNL     1      -0.899   0.877  25.699  0.00  0.00    +0.078 C 
ATOM     20  N   UNL     1      -0.538   1.204  25.033  0.00  0.00    -0.272 NA
ATOM     21  C   UNL     1      -0.395   0.427  24.344  0.00  0.00    +0.072 C 
ATOM     22  C   UNL     1      -0.183   0.213  23.764  0.00  0.00    +0.018 C 
ATOM     23  C   UNL     1      -0.339   0.823  24.403  0.00  0.00    +0.010 C 
ATOM     24  C   UNL     1      -0.091   1.645  24.221  0.00  0.00    +0.018 C 
ATOM     25  C   UNL     1      -0.277   2.056  24.837  0.00  0.00    +0.079 C 
BRANCH  25  26
ATOM     26  C   UNL     1      -0.255   2.821  25.143  0.00  0.00    +0.131 C 
BRANCH  26  27
ATOM     27  N   UNL     1      -0.879   3.341  24.999  0.00  0.00    -0.204 NA
ATOM     28  C   UNL     1      -0.853   4.110  25.295  0.00  0.00    +0.240 C 
ATOM     29  O   UNL     1      -0.202   4.360  25.736  0.00  0.00    -0.273 OA
BRANCH  28  30
ATOM     30  C   UNL     1      -1.477   4.630  25.151  0.00  0.00    +0.071 C 
ATOM     31  C   UNL     1      -2.101   5.150  25.007  0.00  0.00    +0.009 C 
ATOM     32  C   UNL     1      -0.997   5.066  24.642  0.00  0.00    +0.009 C 
ATOM     33  C   UNL     1      -1.958   4.195  25.661  0.00  0.00    +0.009 C 
ENDBRANCH  28  30
ENDBRANCH  26  27
ENDBRANCH  25  26
ENDBRANCH   4  18
BRANCH   6   8
ATOM      8  C   UNL     1      -2.490  -1.668  24.535  0.00  0.00    +0.018 A 
ATOM      9  C   UNL     1      -2.576  -2.436  24.246  0.00  0.00    +0.001 A 
ATOM     10  C   UNL     1      -3.319  -2.708  24.012  0.00  0.00    +0.004 A 
ATOM     11  C   UNL     1      -3.976  -2.211  24.066  0.00  0.00    +0.071 A 
ATOM     12  C   UNL     1      -3.889  -1.444  24.355  0.00  0.00    +0.004 A 
ATOM     13  C   UNL     1      -3.146  -1.171  24.589  0.00  0.00    +0.001 A 
BRANCH  11  14
ATOM     14  C   UNL     1      -4.719  -2.483  23.832  0.00  0.00    +0.419 C 
ATOM     15  F   UNL     1      -5.462  -2.754  23.597  0.00  0.00    -0.166 F 
ATOM     16  F   UNL     1      -4.437  -3.259  23.841  0.00  0.00    -0.166 F 
ATOM     17  F   UNL     1      -4.999  -1.707  23.822  0.00  0.00    -0.166 F 
ENDBRANCH  11  14
ENDBRANCH   6   8
TORSDOF 6
ENDMDL
MODEL 5
REMARK VINA RESULT:     -10.1      3.944      4.870
REMARK  Name = 
REMARK  6 active torsions:
REMARK  status: ('A' for Active; 'I' for Inactive)
REMARK    1  A    between atoms: C_4  and  C_18
REMARK    2  A    between atoms: C_6  and  C_8
REMARK    3  A    between atoms: C_11  and  C_14
REMARK    4  A    between atoms: C_25  and  C_26
REMARK    5  A    between atoms: C_26  and  N_27
REMARK    6  A    between atoms: C_28  and  C_30
REMARK                            x       y       z     vdW  Elec       q    Type
REMARK                         _______ _______ _______ _____ _____    ______ ____
ROOT
ATOM      1  C   UNL     1      -1.363   4.976  25.186  0.00  0.00    +0.074 C 
ATOM      2  C   UNL     1      -1.568   4.206  24.969  0.00  0.00    +0.139 A 
ATOM      3  N   UNL     1      -0.987   3.683  24.708  0.00  0.00    -0.235 NA
ATOM      4  C   UNL     1      -1.192   2.914  24.490  0.00  0.00    +0.063 A 
ATOM      5  C   UNL     1      -1.978   2.668  24.533  0.00  0.00    +0.034 A 
ATOM      6  C   UNL     1      -2.559   3.192  24.794  0.00  0.00    +0.084 A 
ATOM      7  N   UNL     1      -2.355   3.961  25.012  0.00  0.00    -0.231 NA
ENDROOT
BRANCH   4  18
ATOM     18  C   UNL     1      -0.610   2.389  24.229  0.00  0.00    +0.056 C 
ATOM     19  C   UNL     1      -0.584   2.237  23.467  0.00  0.00    +0.078 C 
ATOM     20  N   UNL     1      -0.083   1.924  24.043  0.00  0.00    -0.272 NA
ATOM     21  C   UNL     1      -0.381   2.328  24.964  0.00  0.00    +0.072 C 
ATOM     22  C   UNL     1      -0.308   2.380  25.611  0.00  0.00    +0.018 C 
ATOM     23  C   UNL     1      -0.114   2.079  24.789  0.00  0.00    +0.010 C 
ATOM     24  C   UNL     1       0.557   1.516  24.733  0.00  0.00    +0.018 C 
ATOM     25  C   UNL     1       0.616   1.340  23.993  0.00  0.00    +0.079 C 
BRANCH  25  26
ATOM     26  C   UNL     1       1.054   0.887  23.461  0.00  0.00    +0.131 C 
BRANCH  26  27
ATOM     27  N   UNL     1       1.879   0.921  23.473  0.00  0.00    -0.204 NA
ATOM     28  C   UNL     1       2.317   0.502  22.914  0.00  0.00    +0.240 C 
ATOM     29  O   UNL     1       1.931   0.049  22.342  0.00  0.00    -0.273 OA
BRANCH  28  30
ATOM     30  C   UNL     1       3.141   0.536  22.926  0.00  0.00    +0.071 C 
ATOM     31  C   UNL     1       3.965   0.569  22.937  0.00  0.00    +0.009 C 
ATOM     32  C   UNL     1       3.170  -0.260  23.142  0.00  0.00    +0.009 C 
ATOM     33  C   UNL     1       3.112   1.331  22.709  0.00  0.00    +0.009 C 
ENDBRANCH  28  30
ENDBRANCH  26  27
ENDBRANCH  25  26
ENDBRANCH   4  18
BRANCH   6   8
ATOM      8  C   UNL     1      -3.346   2.947  24.838  0.00  0.00    +0.018 A 
ATOM      9  C   UNL     1      -3.729   2.920  25.568  0.00  0.00    +0.001 A 
ATOM     10  C   UNL     1      -4.516   2.675  25.612  0.00  0.00    +0.004 A 
ATOM     11  C   UNL     1      -4.920   2.459  24.926  0.00  0.00    +0.071 A 
ATOM     12  C   UNL     1      -4.537   2.486  24.196  0.00  0.00    +0.004 A 
ATOM     13  C   UNL     1      -3.750   2.731  24.152  0.00  0.00    +0.001 A 
BRANCH  11  14
ATOM     14  C   UNL     1      -5.707   2.214  24.970  0.00  0.00    +0.419 C 
ATOM     15  F   UNL     1      -6.494   1.971  25.015  0.00  0.00    -0.166 F 
ATOM     16  F   UNL     1      -5.476   1.440  24.802  0.00  0.00    -0.166 F 
ATOM     17  F   UNL     1      -5.937   2.989  25.138  0.00  0.00    -0.166 F 
ENDBRANCH  11  14
ENDBRANCH   6   8
TORSDOF 6
ENDMDL
MODEL 6
REMARK VINA RESULT:      -9.8      3.758      4.492
REMARK  Name = 
REMARK  6 active torsions:
REMARK  status: ('A' for Active; 'I' for Inactive)
REMARK    1  A    between atoms: C_4  and  C_18
REMARK    2  A    between atoms: C_6  and  C_8
REMARK    3  A    between atoms: C_11  and  C_14
REMARK    4  A    between atoms: C_25  and  C_26
REMARK    5  A    between atoms: C_26  and  N_27
REMARK    6  A    between atoms: C_28  and  C_30
REMARK                            x       y       z     vdW  Elec       q    Type
REMARK                         _______ _______ _______ _____ _____    ______ ____
ROOT
ATOM      1  C   UNL     1      -3.347  -0.197  24.317  0.00  0.00    +0.074 C 
ATOM      2  C   UNL     1      -2.729   0.350  24.332  0.00  0.00    +0.139 A 
ATOM      3  N   UNL     1      -1.996   0.153  24.010  0.00  0.00    -0.235 NA
ATOM      4  C   UNL     1      -1.378   0.699  24.025  0.00  0.00    +0.063 A 
ATOM      5  C   UNL     1      -1.493   1.443  24.361  0.00  0.00    +0.034 A 
ATOM      6  C   UNL     1      -2.226   1.641  24.683  0.00  0.00    +0.084 A 
ATOM      7  N   UNL     1      -2.845   1.095  24.668  0.00  0.00    -0.231 NA
ENDROOT
BRANCH   4  18
ATOM     18  C   UNL     1      -0.643   0.501  23.703  0.00  0.00    +0.056 C 
ATOM     19  C   UNL     1      -0.421   0.882  23.062  0.00  0.00    +0.078 C 
ATOM     20  N   UNL     1       0.008   0.296  23.454  0.00  0.00    -0.272 NA
ATOM     21  C   UNL     1      -0.567  -0.011  24.275  0.00  0.00    +0.072 C 
ATOM     22  C   UNL     1      -0.647  -0.388  24.802  0.00  0.00    +0.018 C 
ATOM     23  C   UNL     1      -0.217  -0.073  24.082  0.00  0.00    +0.010 C 
ATOM     24  C   UNL     1       0.568  -0.429  23.915  0.00  0.00    +0.018 C 
ATOM     25  C   UNL     1       0.823  -0.078  23.287  0.00  0.00    +0.079 C 
BRANCH  25  26
ATOM     26  C   UNL     1       1.460  -0.053  22.764  0.00  0.00    +0.131 C 
BRANCH  26  27
ATOM     27  N   UNL     1       2.209   0.160  23.038  0.00  0.00    -0.204 NA
ATOM     28  C   UNL     1       2.844   0.201  22.513  0.00  0.00    +0.240 C 
ATOM     29  O   UNL     1       2.730   0.028  21.714  0.00  0.00    -0.273 OA
BRANCH  28  30
ATOM     30  C   UNL     1       3.593   0.414  22.786  0.00  0.00    +0.071 C 
ATOM     31  C   UNL     1       4.341   0.627  23.060  0.00  0.00    +0.009 C 
ATOM     32  C   UNL     1       3.418   1.208  22.646  0.00  0.00    +0.009 C 
ATOM     33  C   UNL     1       3.767  -0.380  22.927  0.00  0.00    +0.009 C 
ENDBRANCH  28  30
ENDBRANCH  26  27
ENDBRANCH  25  26
ENDBRANCH   4  18
BRANCH   6   8
ATOM      8  C   UNL     1      -2.343   2.385  25.019  0.00  0.00    +0.018 A 
ATOM      9  C   UNL     1      -2.977   2.853  24.776  0.00  0.00    +0.001 A 
ATOM     10  C   UNL     1      -3.095   3.598  25.112  0.00  0.00    +0.004 A 
ATOM     11  C   UNL     1      -2.576   3.874  25.692  0.00  0.00    +0.071 A 
ATOM     12  C   UNL     1      -1.943   3.406  25.935  0.00  0.00    +0.004 A 
ATOM     13  C   UNL     1      -1.826   2.662  25.599  0.00  0.00    +0.001 A 
BRANCH  11  14
ATOM     14  C   UNL     1      -2.694   4.618  26.028  0.00  0.00    +0.419 C 
ATOM     15  F   UNL     1      -2.811   5.362  26.365  0.00  0.00    -0.166 F 
ATOM     16  F   UNL     1      -2.124   4.936  25.523  0.00  0.00    -0.166 F 
ATOM     17  F   UNL     1      -3.263   4.300  26.533  0.00  0.00    -0.166 F 
ENDBRANCH  11  14
ENDBRANCH   6   8
TORSDOF 6
ENDMDL
MODEL 7
REMARK VINA RESULT:      -9.7      2.207      2.923
REMARK  Name = 
REMARK  6 active torsions:
REMARK  status: ('A' for Active; 'I' for Inactive)
REMARK    1  A    between atoms: C_4  and  C_18
REMARK    2  A    between atoms: C_6  and  C_8
REMARK    3  A    between atoms: C_11  and  C_14
REMARK    4  A    between atoms: C_25  and  C_26
REMARK    5  A    between atoms: C_26  and  N_27
REMARK    6  A    between atoms: C_28  and  C_30
REMARK                            x       y       z     vdW  Elec       q    Type
REMARK                         _______ _______ _______ _____ _____    ______ ____
ROOT
ATOM      1  C   UNL     1       1.075   1.192  23.906  0.00  0.00    +0.074 C 
ATOM      2  C   UNL     1       0.336   1.427  24.189  0.00  0.00    +0.139 A 
ATOM      3  N   UNL     1      -0.240   0.862  24.355  0.00  0.00    -0.235 NA
ATOM      4  C   UNL     1      -0.979   1.097  24.638  0.00  0.00    +0.063 A 
ATOM      5  C   UNL     1      -1.141   1.897  24.755  0.00  0.00    +0.034 A 
ATOM      6  C   UNL     1      -0.564   2.462  24.589  0.00  0.00    +0.084 A 
ATOM      7  N   UNL     1       0.174   2.228  24.306  0.00  0.00    -0.231 NA
ENDROOT
BRANCH   4  18
ATOM     18  C   UNL     1      -1.557   0.530  24.805  0.00  0.00    +0.056 C 
ATOM     19  C   UNL     1      -2.151   0.471  24.306  0.00  0.00    +0.078 C 
ATOM     20  N   UNL     1      -2.041   0.020  24.989  0.00  0.00    -0.272 NA
ATOM     21  C   UNL     1      -1.149   0.346  25.434  0.00  0.00    +0.072 C 
ATOM     22  C   UNL     1      -0.706   0.307  25.912  0.00  0.00    +0.018 C 
ATOM     23  C   UNL     1      -1.455   0.084  25.473  0.00  0.00    +0.010 C 
ATOM     24  C   UNL     1      -1.935  -0.558  25.830  0.00  0.00    +0.018 C 
ATOM     25  C   UNL     1      -2.535  -0.648  25.366  0.00  0.00    +0.079 C 
BRANCH  25  26
ATOM     26  C   UNL     1      -3.224  -1.090  25.265  0.00  0.00    +0.131 C 
BRANCH  26  27
ATOM     27  N   UNL     1      -3.196  -1.811  24.865  0.00  0.00    -0.204 NA
ATOM     28  C   UNL     1      -3.884  -2.130  24.540  0.00  0.00    +0.240 C 
ATOM     29  O   UNL     1      -4.600  -1.728  24.616  0.00  0.00    -0.273 OA
BRANCH  28  30
ATOM     30  C   UNL     1      -3.856  -2.851  24.140  0.00  0.00    +0.071 C 
ATOM     31  C   UNL     1      -3.829  -3.572  23.740  0.00  0.00    +0.009 C 
ATOM     32  C   UNL     1      -4.236  -2.506  23.494  0.00  0.00    +0.009 C 
ATOM     33  C   UNL     1      -3.477  -3.195  24.787  0.00  0.00    +0.009 C 
ENDBRANCH  28  30
ENDBRANCH  26  27
ENDBRANCH  25  26
ENDBRANCH   4  18
BRANCH   6   8
ATOM      8  C   UNL     1      -0.725   3.263  24.705  0.00  0.00    +0.018 A 
ATOM      9  C   UNL     1      -0.674   3.790  24.072  0.00  0.00    +0.001 A 
ATOM     10  C   UNL     1      -0.835   4.591  24.188  0.00  0.00    +0.004 A 
ATOM     11  C   UNL     1      -1.047   4.865  24.937  0.00  0.00    +0.071 A 
ATOM     12  C   UNL     1      -1.099   4.338  25.569  0.00  0.00    +0.004 A 
ATOM     13  C   UNL     1      -0.938   3.537  25.454  0.00  0.00    +0.001 A 
BRANCH  11  14
ATOM     14  C   UNL     1      -1.208   5.666  25.053  0.00  0.00    +0.419 C 
ATOM     15  F   UNL     1      -1.368   6.467  25.168  0.00  0.00    -0.166 F 
ATOM     16  F   UNL     1      -1.927   5.470  25.407  0.00  0.00    -0.166 F 
ATOM     17  F   UNL     1      -0.489   5.860  24.699  0.00  0.00    -0.166 F 
ENDBRANCH  11  14
ENDBRANCH   6   8
TORSDOF 6
ENDMDL
MODEL 8
REMARK VINA RESULT:      -9.6      3.412      4.347
REMARK  Name = 
REMARK  6 active torsions:
REMARK  status: ('A' for Active; 'I' for Inactive)
REMARK    1  A    between atoms: C_4  and  C_18
REMARK    2  A    between atoms: C_6  and  C_8
REMARK    3  A    between atoms: C_11  and  C_14
REMARK    4  A    between atoms: C_25  and  C_26
REMARK    5  A    between atoms: C_26  and  N_27
REMARK    6  A    between atoms: C_28  and  C_30
REMARK                            x       y       z     vdW  Elec       q    Type
REMARK                         _______ _______ _______ _____ _____    ______ ____
ROOT
ATOM      1  C   UNL     1      -4.149  -1.013  24.060  0.00  0.00    +0.074 C 
ATOM      2  C   UNL     1      -3.799  -0.280  24.204  0.00  0.00    +0.139 A 
ATOM      3  N   UNL     1      -2.984  -0.187  24.116  0.00  0.00    -0.235 NA
ATOM      4  C   UNL     1      -2.634   0.546  24.259  0.00  0.00    +0.063 A 
ATOM      5  C   UNL     1      -3.098   1.187  24.490  0.00  0.00    +0.034 A 
ATOM      6  C   UNL     1      -3.913   1.095  24.578  0.00  0.00    +0.084 A 
ATOM      7  N   UNL     1      -4.264   0.362  24.435  0.00  0.00    -0.231 NA
ENDROOT
BRANCH   4  18
ATOM     18  C   UNL     1      -1.818   0.639  24.171  0.00  0.00    +0.056 C 
ATOM     19  C   UNL     1      -1.571   1.070  23.572  0.00  0.00    +0.078 C 
ATOM     20  N   UNL     1      -1.094   0.693  24.131  0.00  0.00    -0.272 NA
ATOM     21  C   UNL     1      -1.732   0.199  24.800  0.00  0.00    +0.072 C 
ATOM     22  C   UNL     1      -1.822  -0.177  25.327  0.00  0.00    +0.018 C 
ATOM     23  C   UNL     1      -1.344   0.272  24.715  0.00  0.00    +0.010 C 
ATOM     24  C   UNL     1      -0.471   0.239  24.808  0.00  0.00    +0.018 C 
ATOM     25  C   UNL     1      -0.188   0.655  24.234  0.00  0.00    +0.079 C 
BRANCH  25  26
ATOM     26  C   UNL     1       0.520   0.915  23.902  0.00  0.00    +0.131 C 
BRANCH  26  27
ATOM     27  N   UNL     1       0.946   0.419  23.398  0.00  0.00    -0.204 NA
ATOM     28  C   UNL     1       1.699   0.637  23.143  0.00  0.00    +0.240 C 
ATOM     29  O   UNL     1       2.027   1.352  23.392  0.00  0.00    -0.273 OA
BRANCH  28  30
ATOM     30  C   UNL     1       2.125   0.142  22.639  0.00  0.00    +0.071 C 
ATOM     31  C   UNL     1       2.550  -0.354  22.135  0.00  0.00    +0.009 C 
ATOM     32  C   UNL     1       2.831   0.423  22.959  0.00  0.00    +0.009 C 
ATOM     33  C   UNL     1       1.418  -0.140  22.319  0.00  0.00    +0.009 C 
ENDBRANCH  28  30
ENDBRANCH  26  27
ENDBRANCH  25  26
ENDBRANCH   4  18
BRANCH   6   8
ATOM      8  C   UNL     1      -4.379   1.735  24.809  0.00  0.00    +0.018 A 
ATOM      9  C   UNL     1      -4.897   1.659  25.447  0.00  0.00    +0.001 A 
ATOM     10  C   UNL     1      -5.363   2.300  25.679  0.00  0.00    +0.004 A 
ATOM     11  C   UNL     1      -5.311   3.016  25.272  0.00  0.00    +0.071 A 
ATOM     12  C   UNL     1      -4.793   3.091  24.635  0.00  0.00    +0.004 A 
ATOM     13  C   UNL     1      -4.327   2.451  24.403  0.00  0.00    +0.001 A 
BRANCH  11  14
ATOM     14  C   UNL     1      -5.777   3.656  25.504  0.00  0.00    +0.419 C 
ATOM     15  F   UNL     1      -6.244   4.296  25.736  0.00  0.00    -0.166 F 
ATOM     16  F   UNL     1      -5.099   4.118  25.592  0.00  0.00    -0.166 F 
ATOM     17  F   UNL     1      -6.454   3.193  25.417  0.00  0.00    -0.166 F 
ENDBRANCH  11  14
ENDBRANCH   6   8
TORSDOF 6
ENDMDL
