MODEL 1
REMARK VINA RESULT:     -10.3      0.000      0.000
REMARK  Name = 
REMARK  2 active torsions:
REMARK  status: ('A' for Active; 'I' for Inactive)
REMARK    1  A    between atoms: O_2  and  C_3
REMARK    2  A    between atoms: C_5  and  N_6
REMARK                            x       y       z     vdW  Elec       q    Type
REMARK                         _______ _______ _______ _____ _____    ______ ____
ROOT
ATOM      6  N   UNL     1      -3.657  -0.222  24.177  0.00  0.00    -0.162 NA
ATOM      7  C   UNL     1      -4.144   0.189  24.701  0.00  0.00    +0.328 C 
ATOM      8  O   UNL     1      -4.587  -0.222  25.262  0.00  0.00    -0.250 OA
ATOM      9  N   UNL     1      -4.187   1.013  24.664  0.00  0.00    -0.259 N 
ATOM     10  C   UNL     1      -3.744   1.425  24.103  0.00  0.00    +0.117 C 
ATOM     11  C   UNL     1      -3.787   2.247  24.066  0.00  0.00    +0.117 C 
ATOM     12  N   UNL     1      -4.274   2.659  24.589  0.00  0.00    -0.261 N 
ATOM     13  C   UNL     1      -4.718   2.247  25.150  0.00  0.00    +0.117 C 
ATOM     14  C   UNL     1      -5.146   2.798  25.591  0.00  0.00    +0.117 C 
ATOM     15  N   UNL     1      -4.967   3.549  25.302  0.00  0.00    -0.261 N 
ATOM     16  C   UNL     1      -5.273   4.262  25.583  0.00  0.00    +0.117 C 
ATOM     17  C   UNL     1      -4.428   3.463  24.684  0.00  0.00    +0.307 C 
ATOM     18  O   UNL     1      -4.101   4.075  24.237  0.00  0.00    -0.252 OA
ATOM     19  C   UNL     1      -4.674   1.424  25.188  0.00  0.00    +0.117 C 
ENDROOT
BRANCH   6   5
ATOM      3  C   UNL     1      -2.913  -2.232  24.592  0.00  0.00    +0.140 A 
ATOM      4  C   UNL     1      -2.956  -1.408  24.555  0.00  0.00    +0.054 A 
ATOM      5  C   UNL     1      -3.614  -1.045  24.214  0.00  0.00    +0.078 A 
ATOM     20  C   UNL     1      -4.228  -1.505  23.910  0.00  0.00    +0.017 A 
ATOM     21  C   UNL     1      -4.184  -2.327  23.948  0.00  0.00    +0.004 A 
ATOM     22  C   UNL     1      -3.527  -2.691  24.289  0.00  0.00    +0.037 A 
BRANCH   3   2
ATOM      1  C   UNL     1      -1.534  -2.601  24.532  0.00  0.00    +0.252 C 
ATOM      2  O   UNL     1      -2.255  -2.594  24.934  0.00  0.00    -0.471 OA
ENDBRANCH   3   2
ENDBRANCH   6   5
TORSDOF 2
ENDMDL
MODEL 2
REMARK VINA RESULT:      -9.9      1.908      2.288
REMARK  Name = 
REMARK  2 active torsions:
REMARK  status: ('A' for Active; 'I' for Inactive)
REMARK    1  A    between atoms: O_2  and  C_3
REMARK    2  A    between atoms: C_5  and  N_6
REMARK                            x       y       z     vdW  Elec       q    Type
REMARK                         _______ _______ _______ _____ _____    ______ ____
ROOT
ATOM      6  N   UNL     1      -3.585   0.683  24.817  0.00  0.00    -0.162 NA
ATOM      7  C   UNL     1      -2.860   1.029  24.627  0.00  0.00    +0.328 C 
ATOM      8  O   UNL     1      -2.278   0.585  24.246  0.00  0.00    -0.250 OA
ATOM      9  N   UNL     1      -2.718   1.819  24.817  0.00  0.00    -0.259 N 
ATOM     10  C   UNL     1      -3.301   2.263  25.197  0.00  0.00    +0.117 C 
ATOM     11  C   UNL     1      -3.159   3.053  25.387  0.00  0.00    +0.117 C 
ATOM     12  N   UNL     1      -2.435   3.400  25.198  0.00  0.00    -0.261 N 
ATOM     13  C   UNL     1      -1.852   2.956  24.817  0.00  0.00    +0.117 C 
ATOM     14  C   UNL     1      -1.197   3.442  24.700  0.00  0.00    +0.117 C 
ATOM     15  N   UNL     1      -1.374   4.187  25.007  0.00  0.00    -0.261 N 
ATOM     16  C   UNL     1      -0.874   4.843  25.007  0.00  0.00    +0.117 C 
ATOM     17  C   UNL     1      -2.139   4.160  25.315  0.00  0.00    +0.307 C 
ATOM     18  O   UNL     1      -2.538   4.785  25.677  0.00  0.00    -0.252 OA
ATOM     19  C   UNL     1      -1.994   2.165  24.627  0.00  0.00    +0.117 C 
ENDROOT
BRANCH   6   5
ATOM      3  C   UNL     1      -3.737  -1.488  24.998  0.00  0.00    +0.140 A 
ATOM      4  C   UNL     1      -3.595  -0.697  25.189  0.00  0.00    +0.054 A 
ATOM      5  C   UNL     1      -3.726  -0.108  24.626  0.00  0.00    +0.078 A 
ATOM     20  C   UNL     1      -4.000  -0.309  23.874  0.00  0.00    +0.017 A 
ATOM     21  C   UNL     1      -4.141  -1.098  23.684  0.00  0.00    +0.004 A 
ATOM     22  C   UNL     1      -4.010  -1.688  24.246  0.00  0.00    +0.037 A 
BRANCH   3   2
ATOM      1  C   UNL     1      -3.275  -2.799  25.332  0.00  0.00    +0.252 C 
ATOM      2  O   UNL     1      -3.605  -2.077  25.560  0.00  0.00    -0.471 OA
ENDBRANCH   3   2
ENDBRANCH   6   5
TORSDOF 2
ENDMDL
MODEL 3
REMARK VINA RESULT:      -9.3      1.961      4.947
REMARK  Name = 
REMARK  2 active torsions:
REMARK  status: ('A' for Active; 'I' for Inactive)
REMARK    1  A    between atoms: O_2  and  C_3
REMARK    2  A    between atoms: C_5  and  N_6
REMARK                            x       y       z     vdW  Elec       q    Type
REMARK                         _______ _______ _______ _____ _____    ______ ____
ROOT
ATOM      6  N   UNL     1      -2.973   2.159  24.781  0.00  0.00    -0.162 NA
ATOM      7  C   UNL     1      -2.668   1.451  25.076  0.00  0.00    +0.328 C 
ATOM      8  O   UNL     1      -2.048   1.463  25.620  0.00  0.00    -0.250 OA
ATOM      9  N   UNL     1      -2.984   0.731  24.825  0.00  0.00    -0.259 N 
ATOM     10  C   UNL     1      -3.604   0.719  24.281  0.00  0.00    +0.117 C 
ATOM     11  C   UNL     1      -3.920  -0.000  24.031  0.00  0.00    +0.117 C 
ATOM     12  N   UNL     1      -3.616  -0.709  24.325  0.00  0.00    -0.261 N 
ATOM     13  C   UNL     1      -2.996  -0.697  24.869  0.00  0.00    +0.117 C 
ATOM     14  C   UNL     1      -2.810  -1.477  25.061  0.00  0.00    +0.117 C 
ATOM     15  N   UNL     1      -3.315  -1.972  24.636  0.00  0.00    -0.261 N 
ATOM     16  C   UNL     1      -3.322  -2.796  24.661  0.00  0.00    +0.117 C 
ATOM     17  C   UNL     1      -3.813  -1.496  24.181  0.00  0.00    +0.307 C 
ATOM     18  O   UNL     1      -4.405  -1.763  23.671  0.00  0.00    -0.252 OA
ATOM     19  C   UNL     1      -2.680   0.023  25.119  0.00  0.00    +0.117 C 
ENDROOT
BRANCH   6   5
ATOM      3  C   UNL     1      -1.655   3.894  24.930  0.00  0.00    +0.140 A 
ATOM      4  C   UNL     1      -1.971   3.173  24.680  0.00  0.00    +0.054 A 
ATOM      5  C   UNL     1      -2.657   2.880  25.032  0.00  0.00    +0.078 A 
ATOM     20  C   UNL     1      -3.027   3.306  25.634  0.00  0.00    +0.017 A 
ATOM     21  C   UNL     1      -2.711   4.025  25.884  0.00  0.00    +0.004 A 
ATOM     22  C   UNL     1      -2.025   4.320  25.532  0.00  0.00    +0.037 A 
BRANCH   3   2
ATOM      1  C   UNL     1      -0.657   4.911  24.824  0.00  0.00    +0.252 C 
ATOM      2  O   UNL     1      -0.970   4.187  24.578  0.00  0.00    -0.471 OA
ENDBRANCH   3   2
ENDBRANCH   6   5
TORSDOF 2
ENDMDL
MODEL 4
REMARK VINA RESULT:      -9.3      1.249      4.989
REMARK  Name = 
REMARK  2 active torsions:
REMARK  status: ('A' for Active; 'I' for Inactive)
REMARK    1  A    between atoms: O_2  and  C_3
REMARK    2  A    between atoms: C_5  and  N_6
REMARK                            x       y       z     vdW  Elec       q    Type
REMARK                         _______ _______ _______ _____ _____    ______ ____
ROOT
ATOM      6  N   UNL     1      -3.966   1.466  24.464  0.00  0.00    -0.162 NA
ATOM      7  C   UNL     1      -3.276   1.015  24.492  0.00  0.00    +0.328 C 
ATOM      8  O   UNL     1      -2.542   1.388  24.540  0.00  0.00    -0.250 OA
ATOM      9  N   UNL     1      -3.321   0.191  24.473  0.00  0.00    -0.259 N 
ATOM     10  C   UNL     1      -4.055  -0.182  24.425  0.00  0.00    +0.117 C 
ATOM     11  C   UNL     1      -4.100  -1.005  24.406  0.00  0.00    +0.117 C 
ATOM     12  N   UNL     1      -3.410  -1.456  24.435  0.00  0.00    -0.261 N 
ATOM     13  C   UNL     1      -2.675  -1.084  24.483  0.00  0.00    +0.117 C 
ATOM     14  C   UNL     1      -2.094  -1.668  24.503  0.00  0.00    +0.117 C 
ATOM     15  N   UNL     1      -2.468  -2.402  24.468  0.00  0.00    -0.261 N 
ATOM     16  C   UNL     1      -2.096  -3.138  24.473  0.00  0.00    +0.117 C 
ATOM     17  C   UNL     1      -3.282  -2.271  24.426  0.00  0.00    +0.307 C 
ATOM     18  O   UNL     1      -3.865  -2.852  24.382  0.00  0.00    -0.252 OA
ATOM     19  C   UNL     1      -2.630  -0.260  24.502  0.00  0.00    +0.117 C 
ENDROOT
BRANCH   6   5
ATOM      3  C   UNL     1      -3.877   3.510  25.226  0.00  0.00    +0.140 A 
ATOM      4  C   UNL     1      -3.922   2.685  25.206  0.00  0.00    +0.054 A 
ATOM      5  C   UNL     1      -3.922   2.290  24.483  0.00  0.00    +0.078 A 
ATOM     20  C   UNL     1      -3.877   2.717  23.778  0.00  0.00    +0.017 A 
ATOM     21  C   UNL     1      -3.833   3.540  23.798  0.00  0.00    +0.004 A 
ATOM     22  C   UNL     1      -3.833   3.937  24.521  0.00  0.00    +0.037 A 
BRANCH   3   2
ATOM      1  C   UNL     1      -3.178   4.234  26.239  0.00  0.00    +0.252 C 
ATOM      2  O   UNL     1      -3.877   3.905  25.949  0.00  0.00    -0.471 OA
ENDBRANCH   3   2
ENDBRANCH   6   5
TORSDOF 2
ENDMDL
