MODEL 1
REMARK VINA RESULT:     -11.7      0.000      0.000
REMARK  Name = 
REMARK  6 active torsions:
REMARK  status: ('A' for Active; 'I' for Inactive)
REMARK    1  A    between atoms: O_2  and  C_3
REMARK    2  A    between atoms: C_4  and  C_9
REMARK    3  A    between atoms: N_14  and  C_15
REMARK    4  A    between atoms: C_19  and  N_23
REMARK    5  A    between atoms: N_26  and  C_27
REMARK    6  A    between atoms: C_29  and  C_33
REMARK                            x       y       z     vdW  Elec       q    Type
REMARK                         _______ _______ _______ _____ _____    ______ ____
ROOT
ATOM     15  C   UNL     1      -1.221   0.487  24.560  0.00  0.00    +0.154 C 
ATOM     16  C   UNL     1      -1.182  -0.335  24.516  0.00  0.00    +0.166 C 
ATOM     17  O   UNL     1      -0.490  -0.535  24.113  0.00  0.00    -0.350 OA
ATOM     18  C   UNL     1      -0.102   0.163  23.909  0.00  0.00    +0.166 C 
ATOM     19  C   UNL     1       0.564   0.472  23.534  0.00  0.00    +0.156 C 
ATOM     20  C   UNL     1       0.525   1.294  23.578  0.00  0.00    +0.166 C 
ATOM     21  O   UNL     1      -0.166   1.494  23.981  0.00  0.00    -0.350 OA
ATOM     22  C   UNL     1      -0.554   0.795  24.185  0.00  0.00    +0.166 C 
ENDROOT
BRANCH  15  14
ATOM      9  C   UNL     1      -3.948   1.342  24.641  0.00  0.00    +0.089 A 
ATOM     10  C   UNL     1      -4.108   0.894  23.968  0.00  0.00    +0.040 A 
ATOM     11  C   UNL     1      -3.507   0.456  23.610  0.00  0.00    +0.103 A 
ATOM     12  N   UNL     1      -2.745   0.466  23.927  0.00  0.00    -0.211 NA
ATOM     13  C   UNL     1      -2.585   0.915  24.601  0.00  0.00    +0.237 A 
ATOM     14  N   UNL     1      -1.823   0.926  24.917  0.00  0.00    -0.200 NA
ATOM     37  N   UNL     1      -3.186   1.353  24.957  0.00  0.00    -0.212 NA
BRANCH   9   4
ATOM      3  C   UNL     1      -4.580   2.598  24.896  0.00  0.00    +0.140 A 
ATOM      4  C   UNL     1      -4.549   1.780  24.998  0.00  0.00    +0.052 A 
ATOM      5  C   UNL     1      -5.119   1.400  25.457  0.00  0.00    +0.005 A 
ATOM      6  C   UNL     1      -5.721   1.837  25.814  0.00  0.00    +0.000 A 
ATOM      7  C   UNL     1      -5.752   2.655  25.712  0.00  0.00    +0.003 A 
ATOM      8  C   UNL     1      -5.181   3.036  25.252  0.00  0.00    +0.037 A 
BRANCH   3   2
ATOM      1  C   UNL     1      -4.031   3.798  24.348  0.00  0.00    +0.252 C 
ATOM      2  O   UNL     1      -4.010   2.979  24.437  0.00  0.00    -0.471 OA
ENDBRANCH   3   2
ENDBRANCH   9   4
ENDBRANCH  15  14
BRANCH  19  23
ATOM     23  N   UNL     1       1.166   0.034  23.177  0.00  0.00    -0.184 NA
ATOM     24  C   UNL     1       1.947   0.296  23.216  0.00  0.00    +0.344 C 
ATOM     25  O   UNL     1       2.127   0.997  23.612  0.00  0.00    -0.249 OA
ATOM     26  N   UNL     1       2.548  -0.141  22.860  0.00  0.00    -0.161 NA
BRANCH  26  27
ATOM     27  C   UNL     1       3.329   0.122  22.899  0.00  0.00    +0.075 A 
ATOM     28  C   UNL     1       3.856  -0.228  23.427  0.00  0.00    +0.021 A 
ATOM     29  C   UNL     1       4.637   0.034  23.466  0.00  0.00    +0.073 A 
ATOM     30  C   UNL     1       4.891   0.648  22.976  0.00  0.00    +0.004 A 
ATOM     31  C   UNL     1       4.364   0.998  22.447  0.00  0.00    +0.001 A 
ATOM     32  C   UNL     1       3.583   0.735  22.409  0.00  0.00    +0.017 A 
BRANCH  29  33
ATOM     33  C   UNL     1       5.164  -0.316  23.996  0.00  0.00    +0.419 C 
ATOM     34  F   UNL     1       5.691  -0.667  24.524  0.00  0.00    -0.166 F 
ATOM     35  F   UNL     1       5.031  -1.050  23.643  0.00  0.00    -0.166 F 
ATOM     36  F   UNL     1       5.298   0.417  24.349  0.00  0.00    -0.166 F 
ENDBRANCH  29  33
ENDBRANCH  26  27
ENDBRANCH  19  23
TORSDOF 6
ENDMDL
MODEL 2
REMARK VINA RESULT:     -10.0      3.480      7.784
REMARK  Name = 
REMARK  6 active torsions:
REMARK  status: ('A' for Active; 'I' for Inactive)
REMARK    1  A    between atoms: O_2  and  C_3
REMARK    2  A    between atoms: C_4  and  C_9
REMARK    3  A    between atoms: N_14  and  C_15
REMARK    4  A    between atoms: C_19  and  N_23
REMARK    5  A    between atoms: N_26  and  C_27
REMARK    6  A    between atoms: C_29  and  C_33
REMARK                            x       y       z     vdW  Elec       q    Type
REMARK                         _______ _______ _______ _____ _____    ______ ____
ROOT
ATOM     15  C   UNL     1       0.035   0.754  23.861  0.00  0.00    +0.154 C 
ATOM     16  C   UNL     1      -0.381   0.049  23.764  0.00  0.00    +0.166 C 
ATOM     17  O   UNL     1      -1.183   0.233  23.707  0.00  0.00    -0.350 OA
ATOM     18  C   UNL     1      -1.263   1.051  23.768  0.00  0.00    +0.166 C 
ATOM     19  C   UNL     1      -1.807   1.671  23.770  0.00  0.00    +0.156 C 
ATOM     20  C   UNL     1      -1.391   2.376  23.866  0.00  0.00    +0.166 C 
ATOM     21  O   UNL     1      -0.589   2.193  23.924  0.00  0.00    -0.350 OA
ATOM     22  C   UNL     1      -0.510   1.373  23.863  0.00  0.00    +0.166 C 
ENDROOT
BRANCH  15  14
ATOM      9  C   UNL     1       2.673   0.248  22.884  0.00  0.00    +0.089 A 
ATOM     10  C   UNL     1       2.357  -0.151  22.235  0.00  0.00    +0.040 A 
ATOM     11  C   UNL     1       1.538  -0.224  22.155  0.00  0.00    +0.103 A 
ATOM     12  N   UNL     1       1.037   0.102  22.724  0.00  0.00    -0.211 NA
ATOM     13  C   UNL     1       1.355   0.501  23.373  0.00  0.00    +0.237 A 
ATOM     14  N   UNL     1       0.853   0.828  23.941  0.00  0.00    -0.200 NA
ATOM     37  N   UNL     1       2.172   0.574  23.452  0.00  0.00    -0.212 NA
BRANCH   9   4
ATOM      3  C   UNL     1       3.933  -0.304  23.270  0.00  0.00    +0.140 A 
ATOM      4  C   UNL     1       3.491   0.321  22.964  0.00  0.00    +0.052 A 
ATOM      5  C   UNL     1       3.866   1.020  22.738  0.00  0.00    +0.005 A 
ATOM      6  C   UNL     1       4.684   1.093  22.818  0.00  0.00    +0.000 A 
ATOM      7  C   UNL     1       5.127   0.468  23.124  0.00  0.00    +0.003 A 
ATOM      8  C   UNL     1       4.751  -0.231  23.349  0.00  0.00    +0.037 A 
BRANCH   3   2
ATOM      1  C   UNL     1       3.992  -1.610  23.848  0.00  0.00    +0.252 C 
ATOM      2  O   UNL     1       3.558  -1.003  23.495  0.00  0.00    -0.471 OA
ENDBRANCH   3   2
ENDBRANCH   9   4
ENDBRANCH  15  14
BRANCH  19  23
ATOM     23  N   UNL     1      -2.625   1.598  23.690  0.00  0.00    -0.184 NA
ATOM     24  C   UNL     1      -3.129   2.040  24.171  0.00  0.00    +0.344 C 
ATOM     25  O   UNL     1      -2.814   2.555  24.734  0.00  0.00    -0.249 OA
ATOM     26  N   UNL     1      -3.946   1.967  24.092  0.00  0.00    -0.161 NA
BRANCH  26  27
ATOM     27  C   UNL     1      -4.449   2.409  24.573  0.00  0.00    +0.075 A 
ATOM     28  C   UNL     1      -4.984   2.027  25.072  0.00  0.00    +0.021 A 
ATOM     29  C   UNL     1      -5.487   2.468  25.553  0.00  0.00    +0.073 A 
ATOM     30  C   UNL     1      -5.455   3.293  25.537  0.00  0.00    +0.004 A 
ATOM     31  C   UNL     1      -4.920   3.675  25.038  0.00  0.00    +0.001 A 
ATOM     32  C   UNL     1      -4.417   3.233  24.556  0.00  0.00    +0.017 A 
BRANCH  29  33
ATOM     33  C   UNL     1      -6.022   2.086  26.052  0.00  0.00    +0.419 C 
ATOM     34  F   UNL     1      -6.556   1.705  26.551  0.00  0.00    -0.166 F 
ATOM     35  F   UNL     1      -5.673   2.451  26.705  0.00  0.00    -0.166 F 
ATOM     36  F   UNL     1      -6.370   1.722  25.400  0.00  0.00    -0.166 F 
ENDBRANCH  29  33
ENDBRANCH  26  27
ENDBRANCH  19  23
TORSDOF 6
ENDMDL
