MODEL 1
REMARK VINA RESULT:     -11.3      0.000      0.000
REMARK  Name = 
REMARK  7 active torsions:
REMARK  status: ('A' for Active; 'I' for Inactive)
REMARK    1  A    between atoms: O_2  and  C_3
REMARK    2  A    between atoms: C_3  and  C_4
REMARK    3  A    between atoms: C_6  and  C_7
REMARK    4  A    between atoms: C_7  and  C_8
REMARK    5  A    between atoms: C_13  and  C_14
REMARK    6  A    between atoms: C_14  and  N_15
REMARK    7  A    between atoms: N_18  and  C_19
REMARK                            x       y       z     vdW  Elec       q    Type
REMARK                         _______ _______ _______ _____ _____    ______ ____
ROOT
ATOM      8  C   UNL     1      -4.173   3.275  24.919  0.00  0.00    +0.121 C 
ATOM      9  C   UNL     1      -4.815   3.693  25.225  0.00  0.00    +0.033 C 
ATOM     10  C   UNL     1      -5.462   3.285  25.534  0.00  0.00    +0.038 C 
ATOM     11  C   UNL     1      -5.467   2.460  25.537  0.00  0.00    +0.181 C 
ATOM     12  O   UNL     1      -6.114   2.052  25.846  0.00  0.00    -0.220 OA
ATOM     13  C   UNL     1      -4.825   2.043  25.231  0.00  0.00    +0.167 C 
ATOM     25  O   UNL     1      -4.177   2.450  24.921  0.00  0.00    -0.354 OA
ENDROOT
BRANCH   8   7
ATOM      7  C   UNL     1      -3.526   3.682  24.609  0.00  0.00    +0.079 C 
BRANCH   7   6
ATOM      4  C   UNL     1      -1.584   3.610  25.495  0.00  0.00    +0.184 A 
ATOM      5  C   UNL     1      -2.122   3.371  24.916  0.00  0.00    +0.056 A 
ATOM      6  C   UNL     1      -2.836   3.759  25.056  0.00  0.00    +0.103 A 
ATOM     26  N   UNL     1      -2.740   4.239  25.721  0.00  0.00    -0.082 NA
ATOM     27  O   UNL     1      -1.965   4.146  25.992  0.00  0.00    -0.356 OA
BRANCH   4   3
ATOM      3  C   UNL     1      -0.801   3.357  25.564  0.00  0.00    +0.209 C 
BRANCH   3   2
ATOM      1  C   UNL     1       0.170   2.490  26.153  0.00  0.00    +0.175 C 
ATOM      2  O   UNL     1      -0.600   2.786  26.123  0.00  0.00    -0.343 OA
ENDBRANCH   3   2
ENDBRANCH   4   3
ENDBRANCH   7   6
ENDBRANCH   8   7
BRANCH  13  14
ATOM     14  C   UNL     1      -4.830   1.217  25.233  0.00  0.00    +0.149 C 
BRANCH  14  15
ATOM     15  N   UNL     1      -4.448   0.801  24.632  0.00  0.00    -0.185 NA
ATOM     16  C   UNL     1      -4.283  -0.001  24.727  0.00  0.00    +0.339 C 
ATOM     17  O   UNL     1      -4.499  -0.387  25.423  0.00  0.00    -0.249 OA
ATOM     18  N   UNL     1      -3.901  -0.418  24.125  0.00  0.00    -0.189 NA
BRANCH  18  19
ATOM     19  C   UNL     1      -3.736  -1.220  24.221  0.00  0.00    +0.097 C 
ATOM     20  C   UNL     1      -3.058  -1.456  24.630  0.00  0.00    +0.022 C 
ATOM     21  C   UNL     1      -2.892  -2.258  24.725  0.00  0.00    +0.002 C 
ATOM     22  C   UNL     1      -3.403  -2.825  24.414  0.00  0.00    +0.000 C 
ATOM     23  C   UNL     1      -4.080  -2.590  24.005  0.00  0.00    +0.002 C 
ATOM     24  C   UNL     1      -4.246  -1.787  23.909  0.00  0.00    +0.022 C 
ENDBRANCH  18  19
ENDBRANCH  14  15
ENDBRANCH  13  14
TORSDOF 7
ENDMDL
MODEL 2
REMARK VINA RESULT:     -10.7      1.218      3.071
REMARK  Name = 
REMARK  7 active torsions:
REMARK  status: ('A' for Active; 'I' for Inactive)
REMARK    1  A    between atoms: O_2  and  C_3
REMARK    2  A    between atoms: C_3  and  C_4
REMARK    3  A    between atoms: C_6  and  C_7
REMARK    4  A    between atoms: C_7  and  C_8
REMARK    5  A    between atoms: C_13  and  C_14
REMARK    6  A    between atoms: C_14  and  N_15
REMARK    7  A    between atoms: N_18  and  C_19
REMARK                            x       y       z     vdW  Elec       q    Type
REMARK                         _______ _______ _______ _____ _____    ______ ____
ROOT
ATOM      8  C   UNL     1      -1.960   3.171  25.137  0.00  0.00    +0.121 C 
ATOM      9  C   UNL     1      -1.275   3.447  25.504  0.00  0.00    +0.033 C 
ATOM     10  C   UNL     1      -0.681   2.918  25.720  0.00  0.00    +0.038 C 
ATOM     11  C   UNL     1      -0.771   2.111  25.569  0.00  0.00    +0.181 C 
ATOM     12  O   UNL     1      -0.177   1.581  25.784  0.00  0.00    -0.220 OA
ATOM     13  C   UNL     1      -1.457   1.835  25.201  0.00  0.00    +0.167 C 
ATOM     25  O   UNL     1      -2.052   2.365  24.985  0.00  0.00    -0.354 OA
ENDROOT
BRANCH   8   7
ATOM      7  C   UNL     1      -2.555   3.700  24.920  0.00  0.00    +0.079 C 
BRANCH   7   6
ATOM      4  C   UNL     1      -4.588   3.367  25.483  0.00  0.00    +0.184 A 
ATOM      5  C   UNL     1      -3.967   3.291  24.944  0.00  0.00    +0.056 A 
ATOM      6  C   UNL     1      -3.300   3.648  25.272  0.00  0.00    +0.103 A 
ATOM     26  N   UNL     1      -3.508   3.946  26.013  0.00  0.00    -0.082 NA
ATOM     27  O   UNL     1      -4.305   3.772  26.143  0.00  0.00    -0.356 OA
BRANCH   4   3
ATOM      3  C   UNL     1      -5.358   3.087  25.379  0.00  0.00    +0.209 C 
BRANCH   3   2
ATOM      1  C   UNL     1      -6.254   1.994  25.169  0.00  0.00    +0.175 C 
ATOM      2  O   UNL     1      -5.504   2.276  25.367  0.00  0.00    -0.343 OA
ENDBRANCH   3   2
ENDBRANCH   4   3
ENDBRANCH   7   6
ENDBRANCH   8   7
BRANCH  13  14
ATOM     14  C   UNL     1      -1.547   1.029  25.050  0.00  0.00    +0.149 C 
BRANCH  14  15
ATOM     15  N   UNL     1      -2.203   0.625  25.346  0.00  0.00    -0.185 NA
ATOM     16  C   UNL     1      -2.468  -0.060  24.972  0.00  0.00    +0.339 C 
ATOM     17  O   UNL     1      -2.079  -0.342  24.302  0.00  0.00    -0.249 OA
ATOM     18  N   UNL     1      -3.124  -0.464  25.268  0.00  0.00    -0.189 NA
BRANCH  18  19
ATOM     19  C   UNL     1      -3.390  -1.150  24.894  0.00  0.00    +0.097 C 
ATOM     20  C   UNL     1      -3.111  -1.887  25.139  0.00  0.00    +0.022 C 
ATOM     21  C   UNL     1      -3.376  -2.573  24.764  0.00  0.00    +0.002 C 
ATOM     22  C   UNL     1      -3.919  -2.522  24.146  0.00  0.00    +0.000 C 
ATOM     23  C   UNL     1      -4.197  -1.785  23.902  0.00  0.00    +0.002 C 
ATOM     24  C   UNL     1      -3.932  -1.099  24.276  0.00  0.00    +0.022 C 
ENDBRANCH  18  19
ENDBRANCH  14  15
ENDBRANCH  13  14
TORSDOF 7
ENDMDL
MODEL 3
REMARK VINA RESULT:      -9.9      1.466      4.624
REMARK  Name = 
REMARK  7 active torsions:
REMARK  status: ('A' for Active; 'I' for Inactive)
REMARK    1  A    between atoms: O_2  and  C_3
REMARK    2  A    between atoms: C_3  and  C_4
REMARK    3  A    between atoms: C_6  and  C_7
REMARK    4  A    between atoms: C_7  and  C_8
REMARK    5  A    between atoms: C_13  and  C_14
REMARK    6  A    between atoms: C_14  and  N_15
REMARK    7  A    between atoms: N_18  and  C_19
REMARK                            x       y       z     vdW  Elec       q    Type
REMARK                         _______ _______ _______ _____ _____    ______ ____
ROOT
ATOM      8  C   UNL     1      -4.730   0.820  24.795  0.00  0.00    +0.121 C 
ATOM      9  C   UNL     1      -5.481   0.784  25.133  0.00  0.00    +0.033 C 
ATOM     10  C   UNL     1      -5.845   1.473  25.403  0.00  0.00    +0.038 C 
ATOM     11  C   UNL     1      -5.458   2.198  25.335  0.00  0.00    +0.181 C 
ATOM     12  O   UNL     1      -5.821   2.888  25.605  0.00  0.00    -0.220 OA
ATOM     13  C   UNL     1      -4.706   2.234  24.997  0.00  0.00    +0.167 C 
ATOM     25  O   UNL     1      -4.341   1.544  24.726  0.00  0.00    -0.354 OA
ENDROOT
BRANCH   8   7
ATOM      7  C   UNL     1      -4.365   0.131  24.524  0.00  0.00    +0.079 C 
BRANCH   7   6
ATOM      4  C   UNL     1      -2.616  -0.663  25.457  0.00  0.00    +0.184 A 
ATOM      5  C   UNL     1      -2.978  -0.216  24.866  0.00  0.00    +0.056 A 
ATOM      6  C   UNL     1      -3.792  -0.242  24.988  0.00  0.00    +0.103 A 
ATOM     26  N   UNL     1      -3.936  -0.705  25.656  0.00  0.00    -0.082 NA
ATOM     27  O   UNL     1      -3.208  -0.966  25.946  0.00  0.00    -0.356 OA
BRANCH   4   3
ATOM      3  C   UNL     1      -1.805  -0.787  25.546  0.00  0.00    +0.209 C 
BRANCH   3   2
ATOM      1  C   UNL     1      -0.616  -1.495  25.190  0.00  0.00    +0.175 C 
ATOM      2  O   UNL     1      -1.433  -1.394  25.131  0.00  0.00    -0.343 OA
ENDBRANCH   3   2
ENDBRANCH   4   3
ENDBRANCH   7   6
ENDBRANCH   8   7
BRANCH  13  14
ATOM     14  C   UNL     1      -4.318   2.960  24.929  0.00  0.00    +0.149 C 
BRANCH  14  15
ATOM     15  N   UNL     1      -3.669   3.126  25.410  0.00  0.00    -0.185 NA
ATOM     16  C   UNL     1      -3.052   3.592  25.122  0.00  0.00    +0.339 C 
ATOM     17  O   UNL     1      -3.084   3.890  24.354  0.00  0.00    -0.249 OA
ATOM     18  N   UNL     1      -2.402   3.759  25.603  0.00  0.00    -0.189 NA
BRANCH  18  19
ATOM     19  C   UNL     1      -1.785   4.225  25.314  0.00  0.00    +0.097 C 
ATOM     20  C   UNL     1      -1.096   3.867  25.032  0.00  0.00    +0.022 C 
ATOM     21  C   UNL     1      -0.480   4.333  24.744  0.00  0.00    +0.002 C 
ATOM     22  C   UNL     1      -0.551   5.154  24.738  0.00  0.00    +0.000 C 
ATOM     23  C   UNL     1      -1.238   5.511  25.019  0.00  0.00    +0.002 C 
ATOM     24  C   UNL     1      -1.856   5.045  25.308  0.00  0.00    +0.022 C 
ENDBRANCH  18  19
ENDBRANCH  14  15
ENDBRANCH  13  14
TORSDOF 7
ENDMDL
MODEL 4
REMARK VINA RESULT:      -9.9      1.746      4.363
REMARK  Name = 
REMARK  7 active torsions:
REMARK  status: ('A' for Active; 'I' for Inactive)
REMARK    1  A    between atoms: O_2  and  C_3
REMARK    2  A    between atoms: C_3  and  C_4
REMARK    3  A    between atoms: C_6  and  C_7
REMARK    4  A    between atoms: C_7  and  C_8
REMARK    5  A    between atoms: C_13  and  C_14
REMARK    6  A    between atoms: C_14  and  N_15
REMARK    7  A    between atoms: N_18  and  C_19
REMARK                            x       y       z     vdW  Elec       q    Type
REMARK                         _______ _______ _______ _____ _____    ______ ____
ROOT
ATOM      8  C   UNL     1      -1.707  -1.552  24.909  0.00  0.00    +0.121 C 
ATOM      9  C   UNL     1      -1.773  -2.311  24.593  0.00  0.00    +0.033 C 
ATOM     10  C   UNL     1      -2.513  -2.607  24.382  0.00  0.00    +0.038 C 
ATOM     11  C   UNL     1      -3.188  -2.143  24.486  0.00  0.00    +0.181 C 
ATOM     12  O   UNL     1      -3.929  -2.439  24.275  0.00  0.00    -0.220 OA
ATOM     13  C   UNL     1      -3.122  -1.384  24.803  0.00  0.00    +0.167 C 
ATOM     25  O   UNL     1      -2.380  -1.088  25.014  0.00  0.00    -0.354 OA
ENDROOT
BRANCH   8   7
ATOM      7  C   UNL     1      -0.966  -1.256  25.121  0.00  0.00    +0.079 C 
BRANCH   7   6
ATOM      4  C   UNL     1      -0.238   0.590  24.334  0.00  0.00    +0.184 A 
ATOM      5  C   UNL     1      -0.623   0.160  24.923  0.00  0.00    +0.056 A 
ATOM      6  C   UNL     1      -0.635  -0.632  24.694  0.00  0.00    +0.103 A 
ATOM     26  N   UNL     1      -0.257  -0.692  23.962  0.00  0.00    -0.082 NA
ATOM     27  O   UNL     1      -0.012   0.064  23.740  0.00  0.00    -0.356 OA
BRANCH   4   3
ATOM      3  C   UNL     1      -0.102   1.404  24.337  0.00  0.00    +0.209 C 
BRANCH   3   2
ATOM      1  C   UNL     1      -0.600   2.742  24.274  0.00  0.00    +0.175 C 
ATOM      2  O   UNL     1      -0.734   1.928  24.260  0.00  0.00    -0.343 OA
ENDBRANCH   3   2
ENDBRANCH   4   3
ENDBRANCH   7   6
ENDBRANCH   8   7
BRANCH  13  14
ATOM     14  C   UNL     1      -3.797  -0.920  24.908  0.00  0.00    +0.149 C 
BRANCH  14  15
ATOM     15  N   UNL     1      -3.869  -0.202  24.508  0.00  0.00    -0.185 NA
ATOM     16  C   UNL     1      -4.269   0.426  24.862  0.00  0.00    +0.339 C 
ATOM     17  O   UNL     1      -4.596   0.337  25.613  0.00  0.00    -0.249 OA
ATOM     18  N   UNL     1      -4.342   1.145  24.462  0.00  0.00    -0.189 NA
BRANCH  18  19
ATOM     19  C   UNL     1      -4.742   1.774  24.815  0.00  0.00    +0.097 C 
ATOM     20  C   UNL     1      -4.318   2.417  25.114  0.00  0.00    +0.022 C 
ATOM     21  C   UNL     1      -4.718   3.046  25.467  0.00  0.00    +0.002 C 
ATOM     22  C   UNL     1      -5.540   3.033  25.522  0.00  0.00    +0.000 C 
ATOM     23  C   UNL     1      -5.964   2.391  25.224  0.00  0.00    +0.002 C 
ATOM     24  C   UNL     1      -5.564   1.761  24.870  0.00  0.00    +0.022 C 
ENDBRANCH  18  19
ENDBRANCH  14  15
ENDBRANCH  13  14
TORSDOF 7
ENDMDL
MODEL 5
REMARK VINA RESULT:      -9.8      1.785      5.455
REMARK  Name = 
REMARK  7 active torsions:
REMARK  status: ('A' for Active; 'I' for Inactive)
REMARK    1  A    between atoms: O_2  and  C_3
REMARK    2  A    between atoms: C_3  and  C_4
REMARK    3  A    between atoms: C_6  and  C_7
REMARK    4  A    between atoms: C_7  and  C_8
REMARK    5  A    between atoms: C_13  and  C_14
REMARK    6  A    between atoms: C_14  and  N_15
REMARK    7  A    between atoms: N_18  and  C_19
REMARK                            x       y       z     vdW  Elec       q    Type
REMARK                         _______ _______ _______ _____ _____    ______ ____
ROOT
ATOM      8  C   UNL     1      -2.132  -0.979  25.166  0.00  0.00    +0.121 C 
ATOM      9  C   UNL     1      -1.693  -1.632  24.920  0.00  0.00    +0.033 C 
ATOM     10  C   UNL     1      -0.945  -1.525  24.590  0.00  0.00    +0.038 C 
ATOM     11  C   UNL     1      -0.635  -0.764  24.507  0.00  0.00    +0.181 C 
ATOM     12  O   UNL     1       0.114  -0.657  24.177  0.00  0.00    -0.220 OA
ATOM     13  C   UNL     1      -1.074  -0.111  24.754  0.00  0.00    +0.167 C 
ATOM     25  O   UNL     1      -1.823  -0.218  25.084  0.00  0.00    -0.354 OA
ENDROOT
BRANCH   8   7
ATOM      7  C   UNL     1      -2.881  -1.085  25.496  0.00  0.00    +0.079 C 
BRANCH   7   6
ATOM      4  C   UNL     1      -4.552   0.101  24.896  0.00  0.00    +0.184 A 
ATOM      5  C   UNL     1      -3.925  -0.054  25.410  0.00  0.00    +0.056 A 
ATOM      6  C   UNL     1      -3.540  -0.733  25.145  0.00  0.00    +0.103 A 
ATOM     26  N   UNL     1      -3.928  -0.999  24.467  0.00  0.00    -0.082 NA
ATOM     27  O   UNL     1      -4.554  -0.483  24.313  0.00  0.00    -0.356 OA
BRANCH   4   3
ATOM      3  C   UNL     1      -5.084   0.729  24.954  0.00  0.00    +0.209 C 
BRANCH   3   2
ATOM      1  C   UNL     1      -5.362   2.128  24.862  0.00  0.00    +0.175 C 
ATOM      2  O   UNL     1      -4.832   1.499  24.798  0.00  0.00    -0.343 OA
ENDBRANCH   3   2
ENDBRANCH   4   3
ENDBRANCH   7   6
ENDBRANCH   8   7
BRANCH  13  14
ATOM     14  C   UNL     1      -0.765   0.650  24.671  0.00  0.00    +0.149 C 
BRANCH  14  15
ATOM     15  N   UNL     1      -0.860   1.201  25.276  0.00  0.00    -0.185 NA
ATOM     16  C   UNL     1      -1.004   1.993  25.093  0.00  0.00    +0.339 C 
ATOM     17  O   UNL     1      -1.052   2.232  24.306  0.00  0.00    -0.249 OA
ATOM     18  N   UNL     1      -1.100   2.545  25.699  0.00  0.00    -0.189 NA
BRANCH  18  19
ATOM     19  C   UNL     1      -1.243   3.337  25.516  0.00  0.00    +0.097 C 
ATOM     20  C   UNL     1      -1.994   3.658  25.639  0.00  0.00    +0.022 C 
ATOM     21  C   UNL     1      -2.138   4.449  25.456  0.00  0.00    +0.002 C 
ATOM     22  C   UNL     1      -1.533   4.919  25.150  0.00  0.00    +0.000 C 
ATOM     23  C   UNL     1      -0.783   4.598  25.028  0.00  0.00    +0.002 C 
ATOM     24  C   UNL     1      -0.639   3.806  25.211  0.00  0.00    +0.022 C 
ENDBRANCH  18  19
ENDBRANCH  14  15
ENDBRANCH  13  14
TORSDOF 7
ENDMDL
