MODEL 1
REMARK VINA RESULT:      -9.5      0.000      0.000
REMARK  Name = 
REMARK  10 active torsions:
REMARK  status: ('A' for Active; 'I' for Inactive)
REMARK    1  A    between atoms: O_2  and  C_3
REMARK    2  A    between atoms: C_3  and  C_4
REMARK    3  A    between atoms: C_4  and  N_5
REMARK    4  A    between atoms: N_8  and  C_9
REMARK    5  A    between atoms: C_9  and  C_10
REMARK    6  A    between atoms: C_14  and  C_15
REMARK    7  A    between atoms: C_15  and  C_16
REMARK    8  A    between atoms: C_19  and  C_21
REMARK    9  A    between atoms: C_24  and  N_27
REMARK   10  A    between atoms: C_31  and  C_32
REMARK                            x       y       z     vdW  Elec       q    Type
REMARK                         _______ _______ _______ _____ _____    ______ ____
ROOT
ATOM     10  C   UNL     1      -2.382   3.537  24.815  0.00  0.00    +0.037 C 
ATOM     11  C   UNL     1      -2.505   3.165  24.089  0.00  0.00    -0.034 C 
ATOM     12  C   UNL     1      -3.244   2.843  23.911  0.00  0.00    -0.048 C 
ATOM     13  C   UNL     1      -3.367   2.470  23.185  0.00  0.00    +0.026 C 
ATOM     14  C   UNL     1      -3.858   2.892  24.459  0.00  0.00    +0.027 C 
ATOM     30  C   UNL     1      -3.734   3.264  25.185  0.00  0.00    +0.005 C 
ATOM     31  C   UNL     1      -2.997   3.587  25.363  0.00  0.00    +0.006 C 
ENDROOT
BRANCH  31  32
ATOM     32  C   UNL     1      -2.873   3.958  26.088  0.00  0.00    +0.000 C 
ATOM     33  C   UNL     1      -2.826   4.782  26.128  0.00  0.00    +0.000 C 
ATOM     34  C   UNL     1      -2.797   3.508  26.775  0.00  0.00    +0.000 C 
ENDBRANCH  31  32
BRANCH  10   9
ATOM      9  C   UNL     1      -1.644   3.860  24.993  0.00  0.00    +0.076 C 
BRANCH   9   8
ATOM      5  N   UNL     1       0.420   2.632  24.394  0.00  0.00    -0.268 NA
ATOM      6  C   UNL     1       0.156   3.253  23.919  0.00  0.00    +0.090 C 
ATOM      7  C   UNL     1      -0.531   3.662  24.118  0.00  0.00    +0.090 C 
ATOM      8  N   UNL     1      -0.955   3.451  24.793  0.00  0.00    -0.270 NA
ATOM     35  C   UNL     1      -0.693   2.830  25.269  0.00  0.00    +0.090 C 
ATOM     36  C   UNL     1      -0.004   2.420  25.069  0.00  0.00    +0.090 C 
BRANCH   5   4
ATOM      4  C   UNL     1       1.108   2.223  24.194  0.00  0.00    +0.105 C 
BRANCH   4   3
ATOM      3  C   UNL     1       1.058   1.488  23.822  0.00  0.00    +0.160 C 
BRANCH   3   2
ATOM      1  C   UNL     1       1.685   0.410  23.123  0.00  0.00    +0.174 C 
ATOM      2  O   UNL     1       1.739   1.124  23.534  0.00  0.00    -0.350 OA
ENDBRANCH   3   2
ENDBRANCH   4   3
ENDBRANCH   5   4
ENDBRANCH   9   8
ENDBRANCH  10   9
BRANCH  14  15
ATOM     15  C   UNL     1      -4.595   2.569  24.281  0.00  0.00    +0.091 C 
BRANCH  15  16
ATOM     16  C   UNL     1      -4.779   1.801  24.522  0.00  0.00    +0.227 A 
ATOM     17  N   UNL     1      -5.471   1.565  24.903  0.00  0.00    -0.111 NA
ATOM     18  N   UNL     1      -5.421   0.752  25.040  0.00  0.00    -0.107 NA
ATOM     19  C   UNL     1      -4.699   0.487  24.744  0.00  0.00    +0.250 A 
ATOM     20  O   UNL     1      -4.301   1.136  24.423  0.00  0.00    -0.420 OA
BRANCH  19  21
ATOM     21  C   UNL     1      -4.422  -0.290  24.764  0.00  0.00    +0.055 A 
ATOM     22  C   UNL     1      -4.556  -0.792  24.123  0.00  0.00    +0.006 A 
ATOM     23  C   UNL     1      -4.279  -1.570  24.144  0.00  0.00    +0.024 A 
ATOM     24  C   UNL     1      -3.869  -1.844  24.806  0.00  0.00    +0.143 A 
ATOM     25  C   UNL     1      -3.736  -1.342  25.446  0.00  0.00    +0.024 A 
ATOM     26  C   UNL     1      -4.013  -0.564  25.425  0.00  0.00    +0.006 A 
BRANCH  24  27
ATOM     27  N   UNL     1      -3.593  -2.621  24.826  0.00  0.00    +0.058 N 
ATOM     28  O   UNL     1      -3.623  -3.088  24.146  0.00  0.00    -0.126 OA
ATOM     29  O   UNL     1      -3.286  -2.931  25.526  0.00  0.00    -0.126 OA
ENDBRANCH  24  27
ENDBRANCH  19  21
ENDBRANCH  15  16
ENDBRANCH  14  15
TORSDOF 10
ENDMDL
MODEL 2
REMARK VINA RESULT:      -9.2      1.786      3.932
REMARK  Name = 
REMARK  10 active torsions:
REMARK  status: ('A' for Active; 'I' for Inactive)
REMARK    1  A    between atoms: O_2  and  C_3
REMARK    2  A    between atoms: C_3  and  C_4
REMARK    3  A    between atoms: C_4  and  N_5
REMARK    4  A    between atoms: N_8  and  C_9
REMARK    5  A    between atoms: C_9  and  C_10
REMARK    6  A    between atoms: C_14  and  C_15
REMARK    7  A    between atoms: C_15  and  C_16
REMARK    8  A    between atoms: C_19  and  C_21
REMARK    9  A    between atoms: C_24  and  N_27
REMARK   10  A    between atoms: C_31  and  C_32
REMARK                            x       y       z     vdW  Elec       q    Type
REMARK                         _______ _______ _______ _____ _____    ______ ____
ROOT
ATOM     10  C   UNL     1      -0.922   2.913  25.085  0.00  0.00    +0.037 C 
ATOM     11  C   UNL     1      -1.242   2.754  24.341  0.00  0.00    -0.034 C 
ATOM     12  C   UNL     1      -0.963   2.115  23.900  0.00  0.00    -0.048 C 
ATOM     13  C   UNL     1      -1.283   1.956  23.156  0.00  0.00    +0.026 C 
ATOM     14  C   UNL     1      -0.364   1.635  24.202  0.00  0.00    +0.027 C 
ATOM     30  C   UNL     1      -0.045   1.793  24.946  0.00  0.00    +0.005 C 
ATOM     31  C   UNL     1      -0.323   2.432  25.388  0.00  0.00    +0.006 C 
ENDROOT
BRANCH  31  32
ATOM     32  C   UNL     1      -0.003   2.590  26.131  0.00  0.00    +0.000 C 
ATOM     33  C   UNL     1      -0.228   2.136  26.782  0.00  0.00    +0.000 C 
ATOM     34  C   UNL     1       0.541   3.203  26.224  0.00  0.00    +0.000 C 
ENDBRANCH  31  32
BRANCH  10   9
ATOM      9  C   UNL     1      -1.200   3.551  25.527  0.00  0.00    +0.076 C 
BRANCH   9   8
ATOM      5  N   UNL     1      -3.628   4.031  25.612  0.00  0.00    -0.268 NA
ATOM      6  C   UNL     1      -3.294   3.492  26.141  0.00  0.00    +0.090 C 
ATOM      7  C   UNL     1      -2.486   3.332  26.112  0.00  0.00    +0.090 C 
ATOM      8  N   UNL     1      -2.010   3.711  25.555  0.00  0.00    -0.270 NA
ATOM     35  C   UNL     1      -2.342   4.250  25.027  0.00  0.00    +0.090 C 
ATOM     36  C   UNL     1      -3.152   4.410  25.055  0.00  0.00    +0.090 C 
BRANCH   5   4
ATOM      4  C   UNL     1      -4.436   4.190  25.641  0.00  0.00    +0.105 C 
BRANCH   4   3
ATOM      3  C   UNL     1      -4.979   3.619  25.397  0.00  0.00    +0.160 C 
BRANCH   3   2
ATOM      1  C   UNL     1      -6.201   2.969  25.752  0.00  0.00    +0.174 C 
ATOM      2  O   UNL     1      -5.763   3.660  25.648  0.00  0.00    -0.350 OA
ENDBRANCH   3   2
ENDBRANCH   4   3
ENDBRANCH   5   4
ENDBRANCH   9   8
ENDBRANCH  10   9
BRANCH  14  15
ATOM     15  C   UNL     1      -0.086   0.997  23.762  0.00  0.00    +0.091 C 
BRANCH  15  16
ATOM     16  C   UNL     1      -0.270   0.225  23.991  0.00  0.00    +0.227 A 
ATOM     17  N   UNL     1       0.271  -0.366  24.183  0.00  0.00    -0.111 NA
ATOM     18  N   UNL     1      -0.153  -1.046  24.379  0.00  0.00    -0.107 NA
ATOM     19  C   UNL     1      -0.956  -0.875  24.307  0.00  0.00    +0.250 A 
ATOM     20  O   UNL     1      -1.029  -0.089  24.067  0.00  0.00    -0.420 OA
BRANCH  19  21
ATOM     21  C   UNL     1      -1.578  -1.399  24.450  0.00  0.00    +0.055 A 
ATOM     22  C   UNL     1      -2.257  -1.137  24.837  0.00  0.00    +0.006 A 
ATOM     23  C   UNL     1      -2.879  -1.660  24.980  0.00  0.00    +0.024 A 
ATOM     24  C   UNL     1      -2.820  -2.446  24.735  0.00  0.00    +0.143 A 
ATOM     25  C   UNL     1      -2.141  -2.708  24.348  0.00  0.00    +0.024 A 
ATOM     26  C   UNL     1      -1.520  -2.184  24.205  0.00  0.00    +0.006 A 
BRANCH  24  27
ATOM     27  N   UNL     1      -3.442  -2.970  24.878  0.00  0.00    +0.058 N 
ATOM     28  O   UNL     1      -3.925  -3.217  24.256  0.00  0.00    -0.126 OA
ATOM     29  O   UNL     1      -3.581  -3.247  25.643  0.00  0.00    -0.126 OA
ENDBRANCH  24  27
ENDBRANCH  19  21
ENDBRANCH  15  16
ENDBRANCH  14  15
TORSDOF 10
ENDMDL
MODEL 3
REMARK VINA RESULT:      -9.2      2.251      3.990
REMARK  Name = 
REMARK  10 active torsions:
REMARK  status: ('A' for Active; 'I' for Inactive)
REMARK    1  A    between atoms: O_2  and  C_3
REMARK    2  A    between atoms: C_3  and  C_4
REMARK    3  A    between atoms: C_4  and  N_5
REMARK    4  A    between atoms: N_8  and  C_9
REMARK    5  A    between atoms: C_9  and  C_10
REMARK    6  A    between atoms: C_14  and  C_15
REMARK    7  A    between atoms: C_15  and  C_16
REMARK    8  A    between atoms: C_19  and  C_21
REMARK    9  A    between atoms: C_24  and  N_27
REMARK   10  A    between atoms: C_31  and  C_32
REMARK                            x       y       z     vdW  Elec       q    Type
REMARK                         _______ _______ _______ _____ _____    ______ ____
ROOT
ATOM     10  C   UNL     1      -0.274   0.470  24.089  0.00  0.00    +0.037 C 
ATOM     11  C   UNL     1       0.053   1.220  23.982  0.00  0.00    -0.034 C 
ATOM     12  C   UNL     1      -0.271   1.871  24.371  0.00  0.00    -0.048 C 
ATOM     13  C   UNL     1       0.056   2.621  24.264  0.00  0.00    +0.026 C 
ATOM     14  C   UNL     1      -0.922   1.773  24.867  0.00  0.00    +0.027 C 
ATOM     30  C   UNL     1      -1.250   1.023  24.974  0.00  0.00    +0.005 C 
ATOM     31  C   UNL     1      -0.926   0.371  24.586  0.00  0.00    +0.006 C 
ENDROOT
BRANCH  31  32
ATOM     32  C   UNL     1      -1.253  -0.377  24.693  0.00  0.00    +0.000 C 
ATOM     33  C   UNL     1      -1.027  -0.838  25.339  0.00  0.00    +0.000 C 
ATOM     34  C   UNL     1      -1.807  -0.667  24.154  0.00  0.00    +0.000 C 
ENDBRANCH  31  32
BRANCH  10   9
ATOM      9  C   UNL     1       0.050  -0.181  23.700  0.00  0.00    +0.076 C 
BRANCH   9   8
ATOM      5  N   UNL     1       2.297  -0.017  22.675  0.00  0.00    -0.268 NA
ATOM      6  C   UNL     1       1.623   0.105  22.214  0.00  0.00    +0.090 C 
ATOM      7  C   UNL     1       0.875   0.050  22.556  0.00  0.00    +0.090 C 
ATOM      8  N   UNL     1       0.799  -0.127  23.358  0.00  0.00    -0.270 NA
ATOM     35  C   UNL     1       1.472  -0.249  23.819  0.00  0.00    +0.090 C 
ATOM     36  C   UNL     1       2.222  -0.194  23.477  0.00  0.00    +0.090 C 
BRANCH   5   4
ATOM      4  C   UNL     1       3.046   0.037  22.333  0.00  0.00    +0.105 C 
BRANCH   4   3
ATOM      3  C   UNL     1       3.641   0.468  22.709  0.00  0.00    +0.160 C 
BRANCH   3   2
ATOM      1  C   UNL     1       5.033   0.450  23.032  0.00  0.00    +0.174 C 
ATOM      2  O   UNL     1       4.426   0.376  22.477  0.00  0.00    -0.350 OA
ENDBRANCH   3   2
ENDBRANCH   4   3
ENDBRANCH   5   4
ENDBRANCH   9   8
ENDBRANCH  10   9
BRANCH  14  15
ATOM     15  C   UNL     1      -1.246   2.423  25.256  0.00  0.00    +0.091 C 
BRANCH  15  16
ATOM     16  C   UNL     1      -2.018   2.664  25.086  0.00  0.00    +0.227 A 
ATOM     17  N   UNL     1      -2.233   3.341  24.667  0.00  0.00    -0.111 NA
ATOM     18  N   UNL     1      -3.057   3.365  24.627  0.00  0.00    -0.107 NA
ATOM     19  C   UNL     1      -3.350   2.702  25.021  0.00  0.00    +0.250 A 
ATOM     20  O   UNL     1      -2.708   2.268  25.304  0.00  0.00    -0.420 OA
BRANCH  19  21
ATOM     21  C   UNL     1      -4.147   2.507  25.114  0.00  0.00    +0.055 A 
ATOM     22  C   UNL     1      -4.624   2.953  25.618  0.00  0.00    +0.006 A 
ATOM     23  C   UNL     1      -5.420   2.758  25.712  0.00  0.00    +0.024 A 
ATOM     24  C   UNL     1      -5.739   2.116  25.301  0.00  0.00    +0.143 A 
ATOM     25  C   UNL     1      -5.261   1.671  24.797  0.00  0.00    +0.024 A 
ATOM     26  C   UNL     1      -4.465   1.866  24.704  0.00  0.00    +0.006 A 
BRANCH  24  27
ATOM     27  N   UNL     1      -6.535   1.921  25.394  0.00  0.00    +0.058 N 
ATOM     28  O   UNL     1      -6.843   1.793  26.150  0.00  0.00    -0.126 OA
ATOM     29  O   UNL     1      -7.024   1.855  24.733  0.00  0.00    -0.126 OA
ENDBRANCH  24  27
ENDBRANCH  19  21
ENDBRANCH  15  16
ENDBRANCH  14  15
TORSDOF 10
ENDMDL
MODEL 4
REMARK VINA RESULT:      -9.0      2.379      5.962
REMARK  Name = 
REMARK  10 active torsions:
REMARK  status: ('A' for Active; 'I' for Inactive)
REMARK    1  A    between atoms: O_2  and  C_3
REMARK    2  A    between atoms: C_3  and  C_4
REMARK    3  A    between atoms: C_4  and  N_5
REMARK    4  A    between atoms: N_8  and  C_9
REMARK    5  A    between atoms: C_9  and  C_10
REMARK    6  A    between atoms: C_14  and  C_15
REMARK    7  A    between atoms: C_15  and  C_16
REMARK    8  A    between atoms: C_19  and  C_21
REMARK    9  A    between atoms: C_24  and  N_27
REMARK   10  A    between atoms: C_31  and  C_32
REMARK                            x       y       z     vdW  Elec       q    Type
REMARK                         _______ _______ _______ _____ _____    ______ ____
ROOT
ATOM     10  C   UNL     1      -1.310   2.154  24.365  0.00  0.00    +0.037 C 
ATOM     11  C   UNL     1      -1.748   1.522  24.066  0.00  0.00    -0.034 C 
ATOM     12  C   UNL     1      -1.371   0.812  23.878  0.00  0.00    -0.048 C 
ATOM     13  C   UNL     1      -1.810   0.180  23.578  0.00  0.00    +0.026 C 
ATOM     14  C   UNL     1      -0.558   0.734  23.991  0.00  0.00    +0.027 C 
ATOM     30  C   UNL     1      -0.121   1.365  24.290  0.00  0.00    +0.005 C 
ATOM     31  C   UNL     1      -0.496   2.076  24.478  0.00  0.00    +0.006 C 
ENDROOT
BRANCH  31  32
ATOM     32  C   UNL     1      -0.059   2.707  24.777  0.00  0.00    +0.000 C 
ATOM     33  C   UNL     1       0.175   3.322  24.278  0.00  0.00    +0.000 C 
ATOM     34  C   UNL     1       0.147   2.725  25.576  0.00  0.00    +0.000 C 
ENDBRANCH  31  32
BRANCH  10   9
ATOM      9  C   UNL     1      -1.685   2.864  24.553  0.00  0.00    +0.076 C 
BRANCH   9   8
ATOM      5  N   UNL     1      -4.144   2.925  24.838  0.00  0.00    -0.268 NA
ATOM      6  C   UNL     1      -3.809   3.087  24.102  0.00  0.00    +0.090 C 
ATOM      7  C   UNL     1      -2.991   3.067  24.006  0.00  0.00    +0.090 C 
ATOM      8  N   UNL     1      -2.505   2.885  24.648  0.00  0.00    -0.270 NA
ATOM     35  C   UNL     1      -2.838   2.723  25.385  0.00  0.00    +0.090 C 
ATOM     36  C   UNL     1      -3.658   2.743  25.480  0.00  0.00    +0.090 C 
BRANCH   5   4
ATOM      4  C   UNL     1      -4.962   2.946  24.934  0.00  0.00    +0.105 C 
BRANCH   4   3
ATOM      3  C   UNL     1      -5.387   2.242  25.012  0.00  0.00    +0.160 C 
BRANCH   3   2
ATOM      1  C   UNL     1      -6.636   1.548  24.987  0.00  0.00    +0.174 C 
ATOM      2  O   UNL     1      -6.211   2.256  25.011  0.00  0.00    -0.350 OA
ENDBRANCH   3   2
ENDBRANCH   4   3
ENDBRANCH   5   4
ENDBRANCH   9   8
ENDBRANCH  10   9
BRANCH  14  15
ATOM     15  C   UNL     1      -0.183   0.024  23.803  0.00  0.00    +0.091 C 
BRANCH  15  16
ATOM     16  C   UNL     1       0.508   0.030  23.351  0.00  0.00    +0.227 A 
ATOM     17  N   UNL     1       0.550  -0.049  22.531  0.00  0.00    -0.111 NA
ATOM     18  N   UNL     1       1.345  -0.012  22.313  0.00  0.00    -0.107 NA
ATOM     19  C   UNL     1       1.794   0.089  22.998  0.00  0.00    +0.250 A 
ATOM     20  O   UNL     1       1.276   0.115  23.640  0.00  0.00    -0.420 OA
BRANCH  19  21
ATOM     21  C   UNL     1       2.616   0.153  23.035  0.00  0.00    +0.055 A 
ATOM     22  C   UNL     1       3.068  -0.488  23.288  0.00  0.00    +0.006 A 
ATOM     23  C   UNL     1       3.890  -0.424  23.325  0.00  0.00    +0.024 A 
ATOM     24  C   UNL     1       4.259   0.282  23.107  0.00  0.00    +0.143 A 
ATOM     25  C   UNL     1       3.806   0.922  22.854  0.00  0.00    +0.024 A 
ATOM     26  C   UNL     1       2.984   0.858  22.818  0.00  0.00    +0.006 A 
BRANCH  24  27
ATOM     27  N   UNL     1       5.081   0.346  23.144  0.00  0.00    +0.058 N 
ATOM     28  O   UNL     1       5.547   0.035  22.537  0.00  0.00    -0.126 OA
ATOM     29  O   UNL     1       5.437   0.721  23.786  0.00  0.00    -0.126 OA
ENDBRANCH  24  27
ENDBRANCH  19  21
ENDBRANCH  15  16
ENDBRANCH  14  15
TORSDOF 10
ENDMDL
MODEL 5
REMARK VINA RESULT:      -8.9      1.976      4.541
REMARK  Name = 
REMARK  10 active torsions:
REMARK  status: ('A' for Active; 'I' for Inactive)
REMARK    1  A    between atoms: O_2  and  C_3
REMARK    2  A    between atoms: C_3  and  C_4
REMARK    3  A    between atoms: C_4  and  N_5
REMARK    4  A    between atoms: N_8  and  C_9
REMARK    5  A    between atoms: C_9  and  C_10
REMARK    6  A    between atoms: C_14  and  C_15
REMARK    7  A    between atoms: C_15  and  C_16
REMARK    8  A    between atoms: C_19  and  C_21
REMARK    9  A    between atoms: C_24  and  N_27
REMARK   10  A    between atoms: C_31  and  C_32
REMARK                            x       y       z     vdW  Elec       q    Type
REMARK                         _______ _______ _______ _____ _____    ______ ____
ROOT
ATOM     10  C   UNL     1      -2.905  -0.908  24.691  0.00  0.00    +0.037 C 
ATOM     11  C   UNL     1      -2.962  -0.437  24.016  0.00  0.00    -0.034 C 
ATOM     12  C   UNL     1      -3.547   0.143  23.967  0.00  0.00    -0.048 C 
ATOM     13  C   UNL     1      -3.604   0.614  23.291  0.00  0.00    +0.026 C 
ATOM     14  C   UNL     1      -4.074   0.252  24.591  0.00  0.00    +0.027 C 
ATOM     30  C   UNL     1      -4.017  -0.220  25.266  0.00  0.00    +0.005 C 
ATOM     31  C   UNL     1      -3.433  -0.800  25.317  0.00  0.00    +0.006 C 
ENDROOT
BRANCH  31  32
ATOM     32  C   UNL     1      -3.375  -1.270  25.991  0.00  0.00    +0.000 C 
ATOM     33  C   UNL     1      -3.569  -2.072  25.952  0.00  0.00    +0.000 C 
ATOM     34  C   UNL     1      -3.125  -0.941  26.704  0.00  0.00    +0.000 C 
ENDBRANCH  31  32
BRANCH  10   9
ATOM      9  C   UNL     1      -2.321  -1.489  24.741  0.00  0.00    +0.076 C 
BRANCH   9   8
ATOM      5  N   UNL     1      -0.021  -0.997  23.966  0.00  0.00    -0.268 NA
ATOM      6  C   UNL     1      -0.496  -1.523  23.543  0.00  0.00    +0.090 C 
ATOM      7  C   UNL     1      -1.262  -1.687  23.801  0.00  0.00    +0.090 C 
ATOM      8  N   UNL     1      -1.554  -1.325  24.483  0.00  0.00    -0.270 NA
ATOM     35  C   UNL     1      -1.080  -0.798  24.906  0.00  0.00    +0.090 C 
ATOM     36  C   UNL     1      -0.313  -0.635  24.647  0.00  0.00    +0.090 C 
BRANCH   5   4
ATOM      4  C   UNL     1       0.744  -0.833  23.708  0.00  0.00    +0.105 C 
BRANCH   4   3
ATOM      3  C   UNL     1       0.870  -0.275  23.113  0.00  0.00    +0.160 C 
BRANCH   3   2
ATOM      1  C   UNL     1       2.008   0.020  22.301  0.00  0.00    +0.174 C 
ATOM      2  O   UNL     1       1.611   0.073  23.023  0.00  0.00    -0.350 OA
ENDBRANCH   3   2
ENDBRANCH   4   3
ENDBRANCH   5   4
ENDBRANCH   9   8
ENDBRANCH  10   9
BRANCH  14  15
ATOM     15  C   UNL     1      -4.658   0.831  24.542  0.00  0.00    +0.091 C 
BRANCH  15  16
ATOM     16  C   UNL     1      -4.519   1.585  24.849  0.00  0.00    +0.227 A 
ATOM     17  N   UNL     1      -5.038   2.019  25.320  0.00  0.00    -0.111 NA
ATOM     18  N   UNL     1      -4.676   2.738  25.501  0.00  0.00    -0.107 NA
ATOM     19  C   UNL     1      -3.934   2.748  25.141  0.00  0.00    +0.250 A 
ATOM     20  O   UNL     1      -3.837   2.035  24.737  0.00  0.00    -0.420 OA
BRANCH  19  21
ATOM     21  C   UNL     1      -3.385   3.364  25.178  0.00  0.00    +0.055 A 
ATOM     22  C   UNL     1      -3.362   3.932  24.581  0.00  0.00    +0.006 A 
ATOM     23  C   UNL     1      -2.813   4.547  24.618  0.00  0.00    +0.024 A 
ATOM     24  C   UNL     1      -2.288   4.593  25.252  0.00  0.00    +0.143 A 
ATOM     25  C   UNL     1      -2.311   4.024  25.849  0.00  0.00    +0.024 A 
ATOM     26  C   UNL     1      -2.860   3.409  25.812  0.00  0.00    +0.006 A 
BRANCH  24  27
ATOM     27  N   UNL     1      -1.739   5.208  25.289  0.00  0.00    +0.058 N 
ATOM     28  O   UNL     1      -0.931   5.045  25.239  0.00  0.00    -0.126 OA
ATOM     29  O   UNL     1      -1.997   5.986  25.376  0.00  0.00    -0.126 OA
ENDBRANCH  24  27
ENDBRANCH  19  21
ENDBRANCH  15  16
ENDBRANCH  14  15
TORSDOF 10
ENDMDL
MODEL 6
REMARK VINA RESULT:      -8.9      1.977      3.987
REMARK  Name = 
REMARK  10 active torsions:
REMARK  status: ('A' for Active; 'I' for Inactive)
REMARK    1  A    between atoms: O_2  and  C_3
REMARK    2  A    between atoms: C_3  and  C_4
REMARK    3  A    between atoms: C_4  and  N_5
REMARK    4  A    between atoms: N_8  and  C_9
REMARK    5  A    between atoms: C_9  and  C_10
REMARK    6  A    between atoms: C_14  and  C_15
REMARK    7  A    between atoms: C_15  and  C_16
REMARK    8  A    between atoms: C_19  and  C_21
REMARK    9  A    between atoms: C_24  and  N_27
REMARK   10  A    between atoms: C_31  and  C_32
REMARK                            x       y       z     vdW  Elec       q    Type
REMARK                         _______ _______ _______ _____ _____    ______ ____
ROOT
ATOM     10  C   UNL     1      -0.661   1.506  24.583  0.00  0.00    +0.037 C 
ATOM     11  C   UNL     1      -1.078   1.425  23.876  0.00  0.00    -0.034 C 
ATOM     12  C   UNL     1      -1.539   2.050  23.596  0.00  0.00    -0.048 C 
ATOM     13  C   UNL     1      -1.957   1.969  22.888  0.00  0.00    +0.026 C 
ATOM     14  C   UNL     1      -1.584   2.753  24.023  0.00  0.00    +0.027 C 
ATOM     30  C   UNL     1      -1.167   2.834  24.730  0.00  0.00    +0.005 C 
ATOM     31  C   UNL     1      -0.705   2.211  25.011  0.00  0.00    +0.006 C 
ENDROOT
BRANCH  31  32
ATOM     32  C   UNL     1      -0.289   2.291  25.717  0.00  0.00    +0.000 C 
ATOM     33  C   UNL     1       0.531   2.393  25.704  0.00  0.00    +0.000 C 
ATOM     34  C   UNL     1      -0.690   2.270  26.437  0.00  0.00    +0.000 C 
ENDBRANCH  31  32
BRANCH  10   9
ATOM      9  C   UNL     1      -0.199   0.883  24.863  0.00  0.00    +0.076 C 
BRANCH   9   8
ATOM      5  N   UNL     1      -1.040  -1.441  24.719  0.00  0.00    -0.268 NA
ATOM      6  C   UNL     1      -1.300  -0.945  25.325  0.00  0.00    +0.090 C 
ATOM      7  C   UNL     1      -1.020  -0.171  25.373  0.00  0.00    +0.090 C 
ATOM      8  N   UNL     1      -0.480   0.108  24.815  0.00  0.00    -0.270 NA
ATOM     35  C   UNL     1      -0.220  -0.388  24.209  0.00  0.00    +0.090 C 
ATOM     36  C   UNL     1      -0.500  -1.163  24.161  0.00  0.00    +0.090 C 
BRANCH   5   4
ATOM      4  C   UNL     1      -1.321  -2.215  24.671  0.00  0.00    +0.105 C 
BRANCH   4   3
ATOM      3  C   UNL     1      -2.132  -2.359  24.623  0.00  0.00    +0.160 C 
BRANCH   3   2
ATOM      1  C   UNL     1      -3.219  -3.263  24.414  0.00  0.00    +0.174 C 
ATOM      2  O   UNL     1      -2.407  -3.116  24.448  0.00  0.00    -0.350 OA
ENDBRANCH   3   2
ENDBRANCH   4   3
ENDBRANCH   5   4
ENDBRANCH   9   8
ENDBRANCH  10   9
BRANCH  14  15
ATOM     15  C   UNL     1      -2.045   3.377  23.743  0.00  0.00    +0.091 C 
BRANCH  15  16
ATOM     16  C   UNL     1      -2.782   3.531  24.084  0.00  0.00    +0.227 A 
ATOM     17  N   UNL     1      -3.128   4.273  24.173  0.00  0.00    -0.111 NA
ATOM     18  N   UNL     1      -3.861   4.170  24.539  0.00  0.00    -0.107 NA
ATOM     19  C   UNL     1      -3.966   3.363  24.676  0.00  0.00    +0.250 A 
ATOM     20  O   UNL     1      -3.298   2.968  24.394  0.00  0.00    -0.420 OA
BRANCH  19  21
ATOM     21  C   UNL     1      -4.623   3.013  25.032  0.00  0.00    +0.055 A 
ATOM     22  C   UNL     1      -4.884   3.280  25.767  0.00  0.00    +0.006 A 
ATOM     23  C   UNL     1      -5.541   2.930  26.124  0.00  0.00    +0.024 A 
ATOM     24  C   UNL     1      -5.937   2.313  25.743  0.00  0.00    +0.143 A 
ATOM     25  C   UNL     1      -5.676   2.048  25.007  0.00  0.00    +0.024 A 
ATOM     26  C   UNL     1      -5.019   2.398  24.651  0.00  0.00    +0.006 A 
BRANCH  24  27
ATOM     27  N   UNL     1      -6.595   1.964  26.099  0.00  0.00    +0.058 N 
ATOM     28  O   UNL     1      -6.679   1.984  26.920  0.00  0.00    -0.126 OA
ATOM     29  O   UNL     1      -7.167   1.594  25.634  0.00  0.00    -0.126 OA
ENDBRANCH  24  27
ENDBRANCH  19  21
ENDBRANCH  15  16
ENDBRANCH  14  15
TORSDOF 10
ENDMDL
MODEL 7
REMARK VINA RESULT:      -8.7      2.187      4.113
REMARK  Name = 
REMARK  10 active torsions:
REMARK  status: ('A' for Active; 'I' for Inactive)
REMARK    1  A    between atoms: O_2  and  C_3
REMARK    2  A    between atoms: C_3  and  C_4
REMARK    3  A    between atoms: C_4  and  N_5
REMARK    4  A    between atoms: N_8  and  C_9
REMARK    5  A    between atoms: C_9  and  C_10
REMARK    6  A    between atoms: C_14  and  C_15
REMARK    7  A    between atoms: C_15  and  C_16
REMARK    8  A    between atoms: C_19  and  C_21
REMARK    9  A    between atoms: C_24  and  N_27
REMARK   10  A    between atoms: C_31  and  C_32
REMARK                            x       y       z     vdW  Elec       q    Type
REMARK                         _______ _______ _______ _____ _____    ______ ____
ROOT
ATOM     10  C   UNL     1      -1.160  -0.114  24.389  0.00  0.00    +0.037 C 
ATOM     11  C   UNL     1      -1.346   0.364  23.743  0.00  0.00    -0.034 C 
ATOM     12  C   UNL     1      -2.132   0.450  23.507  0.00  0.00    -0.048 C 
ATOM     13  C   UNL     1      -2.319   0.929  22.860  0.00  0.00    +0.026 C 
ATOM     14  C   UNL     1      -2.731   0.058  23.915  0.00  0.00    +0.027 C 
ATOM     30  C   UNL     1      -2.545  -0.421  24.561  0.00  0.00    +0.005 C 
ATOM     31  C   UNL     1      -1.760  -0.507  24.798  0.00  0.00    +0.006 C 
ENDROOT
BRANCH  31  32
ATOM     32  C   UNL     1      -1.574  -0.985  25.444  0.00  0.00    +0.000 C 
ATOM     33  C   UNL     1      -1.457  -0.646  26.188  0.00  0.00    +0.000 C 
ATOM     34  C   UNL     1      -1.505  -1.801  25.347  0.00  0.00    +0.000 C 
ENDBRANCH  31  32
BRANCH  10   9
ATOM      9  C   UNL     1      -0.375  -0.200  24.626  0.00  0.00    +0.076 C 
BRANCH   9   8
ATOM      5  N   UNL     1       1.458   0.316  23.044  0.00  0.00    -0.268 NA
ATOM      6  C   UNL     1       1.202   0.888  23.580  0.00  0.00    +0.090 C 
ATOM      7  C   UNL     1       0.591   0.717  24.107  0.00  0.00    +0.090 C 
ATOM      8  N   UNL     1       0.236  -0.028  24.099  0.00  0.00    -0.270 NA
ATOM     35  C   UNL     1       0.492  -0.601  23.563  0.00  0.00    +0.090 C 
ATOM     36  C   UNL     1       1.103  -0.429  23.035  0.00  0.00    +0.090 C 
BRANCH   5   4
ATOM      4  C   UNL     1       2.068   0.487  22.517  0.00  0.00    +0.105 C 
BRANCH   4   3
ATOM      3  C   UNL     1       2.854   0.411  22.756  0.00  0.00    +0.160 C 
BRANCH   3   2
ATOM      1  C   UNL     1       4.237   0.700  22.539  0.00  0.00    +0.174 C 
ATOM      2  O   UNL     1       3.463   0.653  22.256  0.00  0.00    -0.350 OA
ENDBRANCH   3   2
ENDBRANCH   4   3
ENDBRANCH   5   4
ENDBRANCH   9   8
ENDBRANCH  10   9
BRANCH  14  15
ATOM     15  C   UNL     1      -3.516   0.143  23.679  0.00  0.00    +0.091 C 
BRANCH  15  16
ATOM     16  C   UNL     1      -4.055   0.534  24.168  0.00  0.00    +0.227 A 
ATOM     17  N   UNL     1      -4.619   0.176  24.651  0.00  0.00    -0.111 NA
ATOM     18  N   UNL     1      -5.035   0.772  25.041  0.00  0.00    -0.107 NA
ATOM     19  C   UNL     1      -4.728   1.499  24.799  0.00  0.00    +0.250 A 
ATOM     20  O   UNL     1      -4.121   1.352  24.259  0.00  0.00    -0.420 OA
BRANCH  19  21
ATOM     21  C   UNL     1      -4.982   2.242  25.053  0.00  0.00    +0.055 A 
ATOM     22  C   UNL     1      -4.504   2.903  24.936  0.00  0.00    +0.006 A 
ATOM     23  C   UNL     1      -4.758   3.646  25.189  0.00  0.00    +0.024 A 
ATOM     24  C   UNL     1      -5.492   3.726  25.560  0.00  0.00    +0.143 A 
ATOM     25  C   UNL     1      -5.969   3.065  25.676  0.00  0.00    +0.024 A 
ATOM     26  C   UNL     1      -5.715   2.322  25.423  0.00  0.00    +0.006 A 
BRANCH  24  27
ATOM     27  N   UNL     1      -5.746   4.470  25.813  0.00  0.00    +0.058 N 
ATOM     28  O   UNL     1      -5.207   5.001  26.142  0.00  0.00    -0.126 OA
ATOM     29  O   UNL     1      -6.540   4.682  25.737  0.00  0.00    -0.126 OA
ENDBRANCH  24  27
ENDBRANCH  19  21
ENDBRANCH  15  16
ENDBRANCH  14  15
TORSDOF 10
ENDMDL
MODEL 8
REMARK VINA RESULT:      -8.7      2.502      6.586
REMARK  Name = 
REMARK  10 active torsions:
REMARK  status: ('A' for Active; 'I' for Inactive)
REMARK    1  A    between atoms: O_2  and  C_3
REMARK    2  A    between atoms: C_3  and  C_4
REMARK    3  A    between atoms: C_4  and  N_5
REMARK    4  A    between atoms: N_8  and  C_9
REMARK    5  A    between atoms: C_9  and  C_10
REMARK    6  A    between atoms: C_14  and  C_15
REMARK    7  A    between atoms: C_15  and  C_16
REMARK    8  A    between atoms: C_19  and  C_21
REMARK    9  A    between atoms: C_24  and  N_27
REMARK   10  A    between atoms: C_31  and  C_32
REMARK                            x       y       z     vdW  Elec       q    Type
REMARK                         _______ _______ _______ _____ _____    ______ ____
ROOT
ATOM     10  C   UNL     1      -1.617  -0.258  24.339  0.00  0.00    +0.037 C 
ATOM     11  C   UNL     1      -1.741   0.487  24.008  0.00  0.00    -0.034 C 
ATOM     12  C   UNL     1      -1.099   0.934  23.747  0.00  0.00    -0.048 C 
ATOM     13  C   UNL     1      -1.224   1.681  23.416  0.00  0.00    +0.026 C 
ATOM     14  C   UNL     1      -0.333   0.637  23.816  0.00  0.00    +0.027 C 
ATOM     30  C   UNL     1      -0.209  -0.108  24.147  0.00  0.00    +0.005 C 
ATOM     31  C   UNL     1      -0.850  -0.556  24.409  0.00  0.00    +0.006 C 
ENDROOT
BRANCH  31  32
ATOM     32  C   UNL     1      -0.725  -1.301  24.739  0.00  0.00    +0.000 C 
ATOM     33  C   UNL     1      -0.484  -1.368  25.526  0.00  0.00    +0.000 C 
ATOM     34  C   UNL     1      -0.842  -1.979  24.284  0.00  0.00    +0.000 C 
ENDBRANCH  31  32
BRANCH  10   9
ATOM      9  C   UNL     1      -2.258  -0.707  24.600  0.00  0.00    +0.076 C 
BRANCH   9   8
ATOM      5  N   UNL     1      -4.457   0.373  24.956  0.00  0.00    -0.268 NA
ATOM      6  C   UNL     1      -3.896   0.369  25.562  0.00  0.00    +0.090 C 
ATOM      7  C   UNL     1      -3.164   0.010  25.443  0.00  0.00    +0.090 C 
ATOM      8  N   UNL     1      -2.991  -0.346  24.719  0.00  0.00    -0.270 NA
ATOM     35  C   UNL     1      -3.551  -0.343  24.114  0.00  0.00    +0.090 C 
ATOM     36  C   UNL     1      -4.285   0.017  24.232  0.00  0.00    +0.090 C 
BRANCH   5   4
ATOM      4  C   UNL     1      -5.190   0.733  25.075  0.00  0.00    +0.105 C 
BRANCH   4   3
ATOM      3  C   UNL     1      -5.242   1.554  25.137  0.00  0.00    +0.160 C 
BRANCH   3   2
ATOM      1  C   UNL     1      -6.004   2.704  25.508  0.00  0.00    +0.174 C 
ATOM      2  O   UNL     1      -5.970   1.912  25.281  0.00  0.00    -0.350 OA
ENDBRANCH   3   2
ENDBRANCH   4   3
ENDBRANCH   5   4
ENDBRANCH   9   8
ENDBRANCH  10   9
BRANCH  14  15
ATOM     15  C   UNL     1       0.308   1.085  23.555  0.00  0.00    +0.091 C 
BRANCH  15  16
ATOM     16  C   UNL     1       0.968   0.709  23.230  0.00  0.00    +0.227 A 
ATOM     17  N   UNL     1       0.965   0.198  22.584  0.00  0.00    -0.111 NA
ATOM     18  N   UNL     1       1.741  -0.048  22.450  0.00  0.00    -0.107 NA
ATOM     19  C   UNL     1       2.224   0.313  23.013  0.00  0.00    +0.250 A 
ATOM     20  O   UNL     1       1.746   0.781  23.496  0.00  0.00    -0.420 OA
BRANCH  19  21
ATOM     21  C   UNL     1       3.042   0.222  23.082  0.00  0.00    +0.055 A 
ATOM     22  C   UNL     1       3.545   0.836  22.861  0.00  0.00    +0.006 A 
ATOM     23  C   UNL     1       4.362   0.745  22.929  0.00  0.00    +0.024 A 
ATOM     24  C   UNL     1       4.675   0.038  23.219  0.00  0.00    +0.143 A 
ATOM     25  C   UNL     1       4.171  -0.576  23.440  0.00  0.00    +0.024 A 
ATOM     26  C   UNL     1       3.354  -0.484  23.371  0.00  0.00    +0.006 A 
BRANCH  24  27
ATOM     27  N   UNL     1       5.492  -0.053  23.288  0.00  0.00    +0.058 N 
ATOM     28  O   UNL     1       5.948  -0.211  22.617  0.00  0.00    -0.126 OA
ATOM     29  O   UNL     1       5.854   0.012  24.026  0.00  0.00    -0.126 OA
ENDBRANCH  24  27
ENDBRANCH  19  21
ENDBRANCH  15  16
ENDBRANCH  14  15
TORSDOF 10
ENDMDL
MODEL 9
REMARK VINA RESULT:      -8.5      2.155      3.865
REMARK  Name = 
REMARK  10 active torsions:
REMARK  status: ('A' for Active; 'I' for Inactive)
REMARK    1  A    between atoms: O_2  and  C_3
REMARK    2  A    between atoms: C_3  and  C_4
REMARK    3  A    between atoms: C_4  and  N_5
REMARK    4  A    between atoms: N_8  and  C_9
REMARK    5  A    between atoms: C_9  and  C_10
REMARK    6  A    between atoms: C_14  and  C_15
REMARK    7  A    between atoms: C_15  and  C_16
REMARK    8  A    between atoms: C_19  and  C_21
REMARK    9  A    between atoms: C_24  and  N_27
REMARK   10  A    between atoms: C_31  and  C_32
REMARK                            x       y       z     vdW  Elec       q    Type
REMARK                         _______ _______ _______ _____ _____    ______ ____
ROOT
ATOM     10  C   UNL     1      -0.023   0.576  23.666  0.00  0.00    +0.037 C 
ATOM     11  C   UNL     1       0.092  -0.219  23.856  0.00  0.00    -0.034 C 
ATOM     12  C   UNL     1      -0.416  -0.593  24.387  0.00  0.00    -0.048 C 
ATOM     13  C   UNL     1      -0.300  -1.389  24.577  0.00  0.00    +0.026 C 
ATOM     14  C   UNL     1      -1.039  -0.175  24.728  0.00  0.00    +0.027 C 
ATOM     30  C   UNL     1      -1.154   0.620  24.538  0.00  0.00    +0.005 C 
ATOM     31  C   UNL     1      -0.647   0.996  24.007  0.00  0.00    +0.006 C 
ENDROOT
BRANCH  31  32
ATOM     32  C   UNL     1      -0.762   1.789  23.817  0.00  0.00    +0.000 C 
ATOM     33  C   UNL     1      -1.166   1.994  23.127  0.00  0.00    +0.000 C 
ATOM     34  C   UNL     1      -0.475   2.379  24.317  0.00  0.00    +0.000 C 
ENDBRANCH  31  32
BRANCH  10   9
ATOM      9  C   UNL     1       0.484   0.952  23.135  0.00  0.00    +0.076 C 
BRANCH   9   8
ATOM      5  N   UNL     1       2.800   0.126  22.844  0.00  0.00    -0.268 NA
ATOM      6  C   UNL     1       2.640   0.725  23.389  0.00  0.00    +0.090 C 
ATOM      7  C   UNL     1       1.869   1.000  23.486  0.00  0.00    +0.090 C 
ATOM      8  N   UNL     1       1.256   0.676  23.038  0.00  0.00    -0.270 NA
ATOM     35  C   UNL     1       1.415   0.078  22.493  0.00  0.00    +0.090 C 
ATOM     36  C   UNL     1       2.187  -0.197  22.396  0.00  0.00    +0.090 C 
BRANCH   5   4
ATOM      4  C   UNL     1       3.571  -0.149  22.747  0.00  0.00    +0.105 C 
BRANCH   4   3
ATOM      3  C   UNL     1       4.198   0.239  23.118  0.00  0.00    +0.160 C 
BRANCH   3   2
ATOM      1  C   UNL     1       5.574   0.113  23.481  0.00  0.00    +0.174 C 
ATOM      2  O   UNL     1       4.975   0.054  22.916  0.00  0.00    -0.350 OA
ENDBRANCH   3   2
ENDBRANCH   4   3
ENDBRANCH   5   4
ENDBRANCH   9   8
ENDBRANCH  10   9
BRANCH  14  15
ATOM     15  C   UNL     1      -1.546  -0.549  25.259  0.00  0.00    +0.091 C 
BRANCH  15  16
ATOM     16  C   UNL     1      -2.364  -0.492  25.158  0.00  0.00    +0.227 A 
ATOM     17  N   UNL     1      -2.873  -1.113  24.972  0.00  0.00    -0.111 NA
ATOM     18  N   UNL     1      -3.639  -0.809  24.925  0.00  0.00    -0.107 NA
ATOM     19  C   UNL     1      -3.602   0.000  25.082  0.00  0.00    +0.250 A 
ATOM     20  O   UNL     1      -2.813   0.196  25.226  0.00  0.00    -0.420 OA
BRANCH  19  21
ATOM     21  C   UNL     1      -4.242   0.522  25.093  0.00  0.00    +0.055 A 
ATOM     22  C   UNL     1      -4.318   1.093  24.503  0.00  0.00    +0.006 A 
ATOM     23  C   UNL     1      -4.958   1.614  24.515  0.00  0.00    +0.024 A 
ATOM     24  C   UNL     1      -5.520   1.564  25.117  0.00  0.00    +0.143 A 
ATOM     25  C   UNL     1      -5.443   0.993  25.706  0.00  0.00    +0.024 A 
ATOM     26  C   UNL     1      -4.804   0.471  25.695  0.00  0.00    +0.006 A 
BRANCH  24  27
ATOM     27  N   UNL     1      -6.160   2.085  25.128  0.00  0.00    +0.058 N 
ATOM     28  O   UNL     1      -6.859   1.890  24.734  0.00  0.00    -0.126 OA
ATOM     29  O   UNL     1      -6.101   2.802  25.532  0.00  0.00    -0.126 OA
ENDBRANCH  24  27
ENDBRANCH  19  21
ENDBRANCH  15  16
ENDBRANCH  14  15
TORSDOF 10
ENDMDL
MODEL 10
REMARK VINA RESULT:      -8.4      2.034      3.352
REMARK  Name = 
REMARK  10 active torsions:
REMARK  status: ('A' for Active; 'I' for Inactive)
REMARK    1  A    between atoms: O_2  and  C_3
REMARK    2  A    between atoms: C_3  and  C_4
REMARK    3  A    between atoms: C_4  and  N_5
REMARK    4  A    between atoms: N_8  and  C_9
REMARK    5  A    between atoms: C_9  and  C_10
REMARK    6  A    between atoms: C_14  and  C_15
REMARK    7  A    between atoms: C_15  and  C_16
REMARK    8  A    between atoms: C_19  and  C_21
REMARK    9  A    between atoms: C_24  and  N_27
REMARK   10  A    between atoms: C_31  and  C_32
REMARK                            x       y       z     vdW  Elec       q    Type
REMARK                         _______ _______ _______ _____ _____    ______ ____
ROOT
ATOM     10  C   UNL     1      -4.675   2.258  24.844  0.00  0.00    +0.037 C 
ATOM     11  C   UNL     1      -4.090   2.116  24.279  0.00  0.00    -0.034 C 
ATOM     12  C   UNL     1      -4.004   1.362  23.955  0.00  0.00    -0.048 C 
ATOM     13  C   UNL     1      -3.418   1.220  23.390  0.00  0.00    +0.026 C 
ATOM     14  C   UNL     1      -4.501   0.750  24.196  0.00  0.00    +0.027 C 
ATOM     30  C   UNL     1      -5.085   0.892  24.761  0.00  0.00    +0.005 C 
ATOM     31  C   UNL     1      -5.173   1.645  25.085  0.00  0.00    +0.006 C 
ENDROOT
BRANCH  31  32
ATOM     32  C   UNL     1      -5.757   1.786  25.649  0.00  0.00    +0.000 C 
ATOM     33  C   UNL     1      -5.613   1.614  26.444  0.00  0.00    +0.000 C 
ATOM     34  C   UNL     1      -6.484   2.100  25.420  0.00  0.00    +0.000 C 
ENDBRANCH  31  32
BRANCH  10   9
ATOM      9  C   UNL     1      -4.762   3.011  25.168  0.00  0.00    +0.076 C 
BRANCH   9   8
ATOM      5  N   UNL     1      -2.806   4.519  25.334  0.00  0.00    -0.268 NA
ATOM      6  C   UNL     1      -3.284   4.536  24.662  0.00  0.00    +0.090 C 
ATOM      7  C   UNL     1      -3.935   4.034  24.606  0.00  0.00    +0.090 C 
ATOM      8  N   UNL     1      -4.110   3.514  25.223  0.00  0.00    -0.270 NA
ATOM     35  C   UNL     1      -3.632   3.497  25.895  0.00  0.00    +0.090 C 
ATOM     36  C   UNL     1      -2.980   4.000  25.951  0.00  0.00    +0.090 C 
BRANCH   5   4
ATOM      4  C   UNL     1      -2.154   5.022  25.389  0.00  0.00    +0.105 C 
BRANCH   4   3
ATOM      3  C   UNL     1      -1.447   4.824  25.013  0.00  0.00    +0.160 C 
BRANCH   3   2
ATOM      1  C   UNL     1      -0.121   5.171  24.609  0.00  0.00    +0.174 C 
ATOM      2  O   UNL     1      -0.821   5.361  25.002  0.00  0.00    -0.350 OA
ENDBRANCH   3   2
ENDBRANCH   4   3
ENDBRANCH   5   4
ENDBRANCH   9   8
ENDBRANCH  10   9
BRANCH  14  15
ATOM     15  C   UNL     1      -4.414  -0.003  23.873  0.00  0.00    +0.091 C 
BRANCH  15  16
ATOM     16  C   UNL     1      -3.962  -0.572  24.266  0.00  0.00    +0.227 A 
ATOM     17  N   UNL     1      -4.254  -1.200  24.712  0.00  0.00    -0.111 NA
ATOM     18  N   UNL     1      -3.611  -1.627  25.003  0.00  0.00    -0.107 NA
ATOM     19  C   UNL     1      -2.921  -1.262  24.736  0.00  0.00    +0.250 A 
ATOM     20  O   UNL     1      -3.138  -0.609  24.280  0.00  0.00    -0.420 OA
BRANCH  19  21
ATOM     21  C   UNL     1      -2.149  -1.507  24.897  0.00  0.00    +0.055 A 
ATOM     22  C   UNL     1      -1.852  -2.191  24.544  0.00  0.00    +0.006 A 
ATOM     23  C   UNL     1      -1.081  -2.436  24.704  0.00  0.00    +0.024 A 
ATOM     24  C   UNL     1      -0.607  -1.997  25.218  0.00  0.00    +0.143 A 
ATOM     25  C   UNL     1      -0.905  -1.313  25.571  0.00  0.00    +0.024 A 
ATOM     26  C   UNL     1      -1.676  -1.068  25.410  0.00  0.00    +0.006 A 
BRANCH  24  27
ATOM     27  N   UNL     1       0.164  -2.242  25.379  0.00  0.00    +0.058 N 
ATOM     28  O   UNL     1       0.799  -1.894  24.982  0.00  0.00    -0.126 OA
ATOM     29  O   UNL     1       0.301  -2.834  25.937  0.00  0.00    -0.126 OA
ENDBRANCH  24  27
ENDBRANCH  19  21
ENDBRANCH  15  16
ENDBRANCH  14  15
TORSDOF 10
ENDMDL
