MODEL 1
REMARK VINA RESULT:     -11.1      0.000      0.000
REMARK  Name = 
REMARK  12 active torsions:
REMARK  status: ('A' for Active; 'I' for Inactive)
REMARK    1  A    between atoms: O_2  and  C_3
REMARK    2  A    between atoms: C_3  and  C_5
REMARK    3  A    between atoms: C_5  and  C_6
REMARK    4  A    between atoms: C_6  and  C_9
REMARK    5  A    between atoms: C_9  and  C_10
REMARK    6  A    between atoms: N_12  and  C_13
REMARK    7  A    between atoms: C_13  and  C_14
REMARK    8  A    between atoms: C_16  and  C_17
REMARK    9  A    between atoms: C_17  and  C_18
REMARK   10  A    between atoms: C_20  and  C_23
REMARK   11  A    between atoms: C_26  and  O_27
REMARK   12  A    between atoms: O_27  and  C_28
REMARK                            x       y       z     vdW  Elec       q    Type
REMARK                         _______ _______ _______ _____ _____    ______ ____
ROOT
ATOM     14  C   UNL     1      -2.849  -1.267  24.625  0.00  0.00    +0.170 C 
ATOM     15  O   UNL     1      -2.175  -0.800  24.705  0.00  0.00    -0.351 OA
ATOM     16  C   UNL     1      -1.517  -1.298  24.706  0.00  0.00    +0.157 C 
ATOM     34  C   UNL     1      -1.786  -2.075  24.627  0.00  0.00    +0.212 C 
ATOM     35  O   UNL     1      -1.315  -2.751  24.602  0.00  0.00    -0.218 OA
ATOM     36  C   UNL     1      -2.610  -2.054  24.576  0.00  0.00    +0.213 C 
ATOM     37  O   UNL     1      -3.105  -2.709  24.492  0.00  0.00    -0.218 OA
ENDROOT
BRANCH  14  13
ATOM     13  C   UNL     1      -3.628  -0.994  24.598  0.00  0.00    +0.147 C 
BRANCH  13  12
ATOM     10  C   UNL     1      -4.458   0.134  24.875  0.00  0.00    +0.241 C 
ATOM     11  O   UNL     1      -4.796   0.070  24.126  0.00  0.00    -0.273 OA
ATOM     12  N   UNL     1      -3.873  -0.398  25.111  0.00  0.00    -0.203 NA
BRANCH  10   9
ATOM      9  C   UNL     1      -4.704   0.731  25.390  0.00  0.00    +0.087 C 
BRANCH   9   6
ATOM      6  C   UNL     1      -4.917   1.470  25.091  0.00  0.00    +0.019 C 
ATOM      7  C   UNL     1      -4.128   1.710  25.121  0.00  0.00    +0.001 C 
ATOM      8  C   UNL     1      -5.706   1.230  25.062  0.00  0.00    +0.001 C 
BRANCH   6   5
ATOM      5  C   UNL     1      -5.131   2.210  24.792  0.00  0.00    +0.110 C 
BRANCH   5   3
ATOM      3  C   UNL     1      -5.220   2.850  25.304  0.00  0.00    +0.317 C 
ATOM      4  O   UNL     1      -5.669   2.770  25.992  0.00  0.00    -0.250 OA
BRANCH   3   2
ATOM      1  C   UNL     1      -5.204   4.277  25.386  0.00  0.00    +0.256 C 
ATOM      2  O   UNL     1      -4.862   3.572  25.127  0.00  0.00    -0.444 OA
ENDBRANCH   3   2
ENDBRANCH   5   3
ENDBRANCH   6   5
ENDBRANCH   9   6
ENDBRANCH  10   9
ENDBRANCH  13  12
ENDBRANCH  14  13
BRANCH  16  17
ATOM     17  C   UNL     1      -0.730  -1.064  24.775  0.00  0.00    +0.120 C 
BRANCH  17  18
ATOM     18  C   UNL     1      -0.507  -0.297  24.567  0.00  0.00    +0.239 A 
ATOM     19  N   UNL     1      -0.705   0.394  24.973  0.00  0.00    -0.191 NA
ATOM     20  C   UNL     1      -0.367   1.031  24.573  0.00  0.00    +0.203 A 
ATOM     21  N   UNL     1       0.038   0.735  23.919  0.00  0.00    -0.056 NA
ATOM     22  O   UNL     1      -0.048  -0.085  23.915  0.00  0.00    -0.337 OA
BRANCH  20  23
ATOM     23  C   UNL     1      -0.426   1.825  24.789  0.00  0.00    +0.039 A 
ATOM     24  C   UNL     1      -0.617   2.395  24.223  0.00  0.00    +0.006 A 
ATOM     25  C   UNL     1      -0.675   3.188  24.440  0.00  0.00    +0.037 A 
ATOM     26  C   UNL     1      -0.543   3.413  25.223  0.00  0.00    +0.147 A 
ATOM     32  C   UNL     1      -0.352   2.844  25.789  0.00  0.00    +0.037 A 
ATOM     33  C   UNL     1      -0.294   2.050  25.572  0.00  0.00    +0.006 A 
BRANCH  26  27
ATOM     27  O   UNL     1      -0.601   4.207  25.440  0.00  0.00    -0.404 OA
BRANCH  27  28
ATOM     28  C   UNL     1      -1.272   4.641  25.235  0.00  0.00    +0.575 C 
ATOM     29  F   UNL     1      -1.944   5.075  25.031  0.00  0.00    -0.133 F 
ATOM     30  F   UNL     1      -1.696   4.268  25.837  0.00  0.00    -0.133 F 
ATOM     31  F   UNL     1      -0.849   5.013  24.634  0.00  0.00    -0.133 F 
ENDBRANCH  27  28
ENDBRANCH  26  27
ENDBRANCH  20  23
ENDBRANCH  17  18
ENDBRANCH  16  17
TORSDOF 12
ENDMDL
MODEL 2
REMARK VINA RESULT:     -11.0      1.248      3.866
REMARK  Name = 
REMARK  12 active torsions:
REMARK  status: ('A' for Active; 'I' for Inactive)
REMARK    1  A    between atoms: O_2  and  C_3
REMARK    2  A    between atoms: C_3  and  C_5
REMARK    3  A    between atoms: C_5  and  C_6
REMARK    4  A    between atoms: C_6  and  C_9
REMARK    5  A    between atoms: C_9  and  C_10
REMARK    6  A    between atoms: N_12  and  C_13
REMARK    7  A    between atoms: C_13  and  C_14
REMARK    8  A    between atoms: C_16  and  C_17
REMARK    9  A    between atoms: C_17  and  C_18
REMARK   10  A    between atoms: C_20  and  C_23
REMARK   11  A    between atoms: C_26  and  O_27
REMARK   12  A    between atoms: O_27  and  C_28
REMARK                            x       y       z     vdW  Elec       q    Type
REMARK                         _______ _______ _______ _____ _____    ______ ____
ROOT
ATOM     14  C   UNL     1      -0.932  -0.520  24.823  0.00  0.00    +0.170 C 
ATOM     15  O   UNL     1      -1.748  -0.473  24.930  0.00  0.00    -0.351 OA
ATOM     16  C   UNL     1      -2.043  -1.242  24.986  0.00  0.00    +0.157 C 
ATOM     34  C   UNL     1      -1.408  -1.764  24.914  0.00  0.00    +0.212 C 
ATOM     35  O   UNL     1      -1.452  -2.587  24.938  0.00  0.00    -0.218 OA
ATOM     36  C   UNL     1      -0.722  -1.317  24.813  0.00  0.00    +0.213 C 
ATOM     37  O   UNL     1       0.041  -1.617  24.719  0.00  0.00    -0.218 OA
ENDROOT
BRANCH  14  13
ATOM     13  C   UNL     1      -0.416   0.119  24.741  0.00  0.00    +0.147 C 
BRANCH  13  12
ATOM     10  C   UNL     1      -0.187   1.512  24.958  0.00  0.00    +0.241 C 
ATOM     11  O   UNL     1       0.261   1.546  24.267  0.00  0.00    -0.273 OA
ATOM     12  N   UNL     1      -0.526   0.799  25.195  0.00  0.00    -0.203 NA
BRANCH  10   9
ATOM      9  C   UNL     1      -0.298   2.192  25.412  0.00  0.00    +0.087 C 
BRANCH   9   6
ATOM      6  C   UNL     1      -0.773   2.804  25.129  0.00  0.00    +0.019 C 
ATOM      7  C   UNL     1      -1.323   2.654  25.726  0.00  0.00    +0.001 C 
ATOM      8  C   UNL     1      -0.224   2.955  24.532  0.00  0.00    +0.001 C 
BRANCH   6   5
ATOM      5  C   UNL     1      -1.249   3.417  24.846  0.00  0.00    +0.110 C 
BRANCH   5   3
ATOM      3  C   UNL     1      -1.355   4.099  25.297  0.00  0.00    +0.317 C 
ATOM      4  O   UNL     1      -1.751   4.059  26.020  0.00  0.00    -0.250 OA
BRANCH   3   2
ATOM      1  C   UNL     1      -1.538   5.497  25.069  0.00  0.00    +0.256 C 
ATOM      2  O   UNL     1      -1.066   4.822  25.025  0.00  0.00    -0.444 OA
ENDBRANCH   3   2
ENDBRANCH   5   3
ENDBRANCH   6   5
ENDBRANCH   9   6
ENDBRANCH  10   9
ENDBRANCH  13  12
ENDBRANCH  14  13
BRANCH  16  17
ATOM     17  C   UNL     1      -2.833  -1.452  25.094  0.00  0.00    +0.120 C 
BRANCH  17  18
ATOM     18  C   UNL     1      -3.434  -0.954  24.828  0.00  0.00    +0.239 A 
ATOM     19  N   UNL     1      -3.593  -0.193  25.103  0.00  0.00    -0.191 NA
ATOM     20  C   UNL     1      -4.239   0.101  24.684  0.00  0.00    +0.203 A 
ATOM     21  N   UNL     1      -4.480  -0.478  24.149  0.00  0.00    -0.056 NA
ATOM     22  O   UNL     1      -3.983  -1.130  24.237  0.00  0.00    -0.337 OA
BRANCH  20  23
ATOM     23  C   UNL     1      -4.584   0.845  24.783  0.00  0.00    +0.039 A 
ATOM     24  C   UNL     1      -5.167   0.956  25.356  0.00  0.00    +0.006 A 
ATOM     25  C   UNL     1      -5.511   1.700  25.454  0.00  0.00    +0.037 A 
ATOM     26  C   UNL     1      -5.272   2.331  24.980  0.00  0.00    +0.147 A 
ATOM     32  C   UNL     1      -4.688   2.220  24.407  0.00  0.00    +0.037 A 
ATOM     33  C   UNL     1      -4.344   1.476  24.309  0.00  0.00    +0.006 A 
BRANCH  26  27
ATOM     27  O   UNL     1      -5.616   3.075  25.078  0.00  0.00    -0.404 OA
BRANCH  27  28
ATOM     28  C   UNL     1      -5.237   3.645  25.539  0.00  0.00    +0.575 C 
ATOM     29  F   UNL     1      -4.859   4.216  26.000  0.00  0.00    -0.133 F 
ATOM     30  F   UNL     1      -5.639   3.371  26.206  0.00  0.00    -0.133 F 
ATOM     31  F   UNL     1      -4.836   3.919  24.872  0.00  0.00    -0.133 F 
ENDBRANCH  27  28
ENDBRANCH  26  27
ENDBRANCH  20  23
ENDBRANCH  17  18
ENDBRANCH  16  17
TORSDOF 12
ENDMDL
MODEL 3
REMARK VINA RESULT:     -10.7      2.420      5.818
REMARK  Name = 
REMARK  12 active torsions:
REMARK  status: ('A' for Active; 'I' for Inactive)
REMARK    1  A    between atoms: O_2  and  C_3
REMARK    2  A    between atoms: C_3  and  C_5
REMARK    3  A    between atoms: C_5  and  C_6
REMARK    4  A    between atoms: C_6  and  C_9
REMARK    5  A    between atoms: C_9  and  C_10
REMARK    6  A    between atoms: N_12  and  C_13
REMARK    7  A    between atoms: C_13  and  C_14
REMARK    8  A    between atoms: C_16  and  C_17
REMARK    9  A    between atoms: C_17  and  C_18
REMARK   10  A    between atoms: C_20  and  C_23
REMARK   11  A    between atoms: C_26  and  O_27
REMARK   12  A    between atoms: O_27  and  C_28
REMARK                            x       y       z     vdW  Elec       q    Type
REMARK                         _______ _______ _______ _____ _____    ______ ____
ROOT
ATOM     14  C   UNL     1      -2.680   3.307  25.465  0.00  0.00    +0.170 C 
ATOM     15  O   UNL     1      -3.160   2.766  25.069  0.00  0.00    -0.351 OA
ATOM     16  C   UNL     1      -3.943   3.016  25.144  0.00  0.00    +0.157 C 
ATOM     34  C   UNL     1      -3.945   3.713  25.587  0.00  0.00    +0.212 C 
ATOM     35  O   UNL     1      -4.611   4.153  25.795  0.00  0.00    -0.218 OA
ATOM     36  C   UNL     1      -3.164   3.892  25.784  0.00  0.00    +0.213 C 
ATOM     37  O   UNL     1      -2.914   4.543  26.225  0.00  0.00    -0.218 OA
ENDROOT
BRANCH  14  13
ATOM     13  C   UNL     1      -1.857   3.269  25.529  0.00  0.00    +0.147 C 
BRANCH  13  12
ATOM     10  C   UNL     1      -0.673   2.501  25.309  0.00  0.00    +0.241 C 
ATOM     11  O   UNL     1      -0.255   3.193  25.148  0.00  0.00    -0.273 OA
ATOM     12  N   UNL     1      -1.475   2.539  25.500  0.00  0.00    -0.203 NA
BRANCH  10   9
ATOM      9  C   UNL     1      -0.291   1.771  25.280  0.00  0.00    +0.087 C 
BRANCH   9   6
ATOM      6  C   UNL     1      -0.274   1.343  24.575  0.00  0.00    +0.019 C 
ATOM      7  C   UNL     1       0.171   1.941  24.222  0.00  0.00    +0.001 C 
ATOM      8  C   UNL     1      -0.718   0.744  24.928  0.00  0.00    +0.001 C 
BRANCH   6   5
ATOM      5  C   UNL     1      -0.256   0.914  23.869  0.00  0.00    +0.110 C 
BRANCH   5   3
ATOM      3  C   UNL     1       0.261   0.277  23.786  0.00  0.00    +0.317 C 
ATOM      4  O   UNL     1       0.117  -0.427  24.191  0.00  0.00    -0.250 OA
BRANCH   3   2
ATOM      1  C   UNL     1       1.119  -0.270  22.783  0.00  0.00    +0.256 C 
ATOM      2  O   UNL     1       0.923   0.344  23.299  0.00  0.00    -0.444 OA
ENDBRANCH   3   2
ENDBRANCH   5   3
ENDBRANCH   6   5
ENDBRANCH   9   6
ENDBRANCH  10   9
ENDBRANCH  13  12
ENDBRANCH  14  13
BRANCH  16  17
ATOM     17  C   UNL     1      -4.605   2.638  24.833  0.00  0.00    +0.120 C 
BRANCH  17  18
ATOM     18  C   UNL     1      -4.723   1.832  24.966  0.00  0.00    +0.239 A 
ATOM     19  N   UNL     1      -4.246   1.219  24.687  0.00  0.00    -0.191 NA
ATOM     20  C   UNL     1      -4.567   0.506  24.951  0.00  0.00    +0.203 A 
ATOM     21  N   UNL     1      -5.241   0.679  25.393  0.00  0.00    -0.056 NA
ATOM     22  O   UNL     1      -5.337   1.497  25.403  0.00  0.00    -0.337 OA
BRANCH  20  23
ATOM     23  C   UNL     1      -4.265  -0.247  24.798  0.00  0.00    +0.039 A 
ATOM     24  C   UNL     1      -3.918  -0.684  25.406  0.00  0.00    +0.006 A 
ATOM     25  C   UNL     1      -3.617  -1.436  25.253  0.00  0.00    +0.037 A 
ATOM     26  C   UNL     1      -3.662  -1.752  24.492  0.00  0.00    +0.147 A 
ATOM     32  C   UNL     1      -4.008  -1.315  23.884  0.00  0.00    +0.037 A 
ATOM     33  C   UNL     1      -4.310  -0.562  24.037  0.00  0.00    +0.006 A 
BRANCH  26  27
ATOM     27  O   UNL     1      -3.361  -2.504  24.339  0.00  0.00    -0.404 OA
BRANCH  27  28
ATOM     28  C   UNL     1      -2.589  -2.691  24.562  0.00  0.00    +0.575 C 
ATOM     29  F   UNL     1      -1.817  -2.879  24.787  0.00  0.00    -0.133 F 
ATOM     30  F   UNL     1      -2.875  -3.045  25.251  0.00  0.00    -0.133 F 
ATOM     31  F   UNL     1      -2.302  -2.339  23.874  0.00  0.00    -0.133 F 
ENDBRANCH  27  28
ENDBRANCH  26  27
ENDBRANCH  20  23
ENDBRANCH  17  18
ENDBRANCH  16  17
TORSDOF 12
ENDMDL
MODEL 4
REMARK VINA RESULT:     -10.7      2.582      4.632
REMARK  Name = 
REMARK  12 active torsions:
REMARK  status: ('A' for Active; 'I' for Inactive)
REMARK    1  A    between atoms: O_2  and  C_3
REMARK    2  A    between atoms: C_3  and  C_5
REMARK    3  A    between atoms: C_5  and  C_6
REMARK    4  A    between atoms: C_6  and  C_9
REMARK    5  A    between atoms: C_9  and  C_10
REMARK    6  A    between atoms: N_12  and  C_13
REMARK    7  A    between atoms: C_13  and  C_14
REMARK    8  A    between atoms: C_16  and  C_17
REMARK    9  A    between atoms: C_17  and  C_18
REMARK   10  A    between atoms: C_20  and  C_23
REMARK   11  A    between atoms: C_26  and  O_27
REMARK   12  A    between atoms: O_27  and  C_28
REMARK                            x       y       z     vdW  Elec       q    Type
REMARK                         _______ _______ _______ _____ _____    ______ ____
ROOT
ATOM     14  C   UNL     1      -0.929   2.963  24.794  0.00  0.00    +0.170 C 
ATOM     15  O   UNL     1      -0.977   2.162  24.985  0.00  0.00    -0.351 OA
ATOM     16  C   UNL     1      -0.286   1.796  24.722  0.00  0.00    +0.157 C 
ATOM     34  C   UNL     1       0.189   2.372  24.369  0.00  0.00    +0.212 C 
ATOM     35  O   UNL     1       0.930   2.247  24.031  0.00  0.00    -0.218 OA
ATOM     36  C   UNL     1      -0.210   3.093  24.414  0.00  0.00    +0.213 C 
ATOM     37  O   UNL     1       0.065   3.816  24.128  0.00  0.00    -0.218 OA
ENDROOT
BRANCH  14  13
ATOM     13  C   UNL     1      -1.503   3.535  24.956  0.00  0.00    +0.147 C 
BRANCH  13  12
ATOM     10  C   UNL     1      -2.899   3.821  25.044  0.00  0.00    +0.241 C 
ATOM     11  O   UNL     1      -2.760   4.294  25.706  0.00  0.00    -0.273 OA
ATOM     12  N   UNL     1      -2.270   3.442  24.669  0.00  0.00    -0.203 NA
BRANCH  10   9
ATOM      9  C   UNL     1      -3.667   3.728  24.757  0.00  0.00    +0.087 C 
BRANCH   9   6
ATOM      6  C   UNL     1      -4.165   3.159  25.089  0.00  0.00    +0.019 C 
ATOM      7  C   UNL     1      -4.125   2.718  24.393  0.00  0.00    +0.001 C 
ATOM      8  C   UNL     1      -4.204   3.600  25.785  0.00  0.00    +0.001 C 
BRANCH   6   5
ATOM      5  C   UNL     1      -4.663   2.590  25.421  0.00  0.00    +0.110 C 
BRANCH   5   3
ATOM      3  C   UNL     1      -5.466   2.588  25.237  0.00  0.00    +0.317 C 
ATOM      4  O   UNL     1      -5.938   3.235  25.435  0.00  0.00    -0.250 OA
BRANCH   3   2
ATOM      1  C   UNL     1      -6.527   1.640  25.103  0.00  0.00    +0.256 C 
ATOM      2  O   UNL     1      -5.799   1.938  24.853  0.00  0.00    -0.444 OA
ENDBRANCH   3   2
ENDBRANCH   5   3
ENDBRANCH   6   5
ENDBRANCH   9   6
ENDBRANCH  10   9
ENDBRANCH  13  12
ENDBRANCH  14  13
BRANCH  16  17
ATOM     17  C   UNL     1      -0.101   0.996  24.798  0.00  0.00    +0.120 C 
BRANCH  17  18
ATOM     18  C   UNL     1      -0.641   0.479  25.147  0.00  0.00    +0.239 A 
ATOM     19  N   UNL     1      -1.215   0.037  24.752  0.00  0.00    -0.191 NA
ATOM     20  C   UNL     1      -1.630  -0.403  25.313  0.00  0.00    +0.203 A 
ATOM     21  N   UNL     1      -1.313  -0.233  26.055  0.00  0.00    -0.056 NA
ATOM     22  O   UNL     1      -0.702   0.312  25.952  0.00  0.00    -0.337 OA
BRANCH  20  23
ATOM     23  C   UNL     1      -2.253  -0.922  25.158  0.00  0.00    +0.039 A 
ATOM     24  C   UNL     1      -2.099  -1.671  24.849  0.00  0.00    +0.006 A 
ATOM     25  C   UNL     1      -2.723  -2.189  24.695  0.00  0.00    +0.037 A 
ATOM     26  C   UNL     1      -3.499  -1.958  24.849  0.00  0.00    +0.147 A 
ATOM     32  C   UNL     1      -3.653  -1.208  25.158  0.00  0.00    +0.037 A 
ATOM     33  C   UNL     1      -3.030  -0.690  25.312  0.00  0.00    +0.006 A 
BRANCH  26  27
ATOM     27  O   UNL     1      -4.123  -2.476  24.695  0.00  0.00    -0.404 OA
BRANCH  27  28
ATOM     28  C   UNL     1      -4.351  -2.624  23.916  0.00  0.00    +0.575 C 
ATOM     29  F   UNL     1      -4.580  -2.771  23.137  0.00  0.00    -0.133 F 
ATOM     30  F   UNL     1      -4.798  -1.930  23.916  0.00  0.00    -0.133 F 
ATOM     31  F   UNL     1      -3.905  -3.317  23.916  0.00  0.00    -0.133 F 
ENDBRANCH  27  28
ENDBRANCH  26  27
ENDBRANCH  20  23
ENDBRANCH  17  18
ENDBRANCH  16  17
TORSDOF 12
ENDMDL
MODEL 5
REMARK VINA RESULT:     -10.5      1.779      4.382
REMARK  Name = 
REMARK  12 active torsions:
REMARK  status: ('A' for Active; 'I' for Inactive)
REMARK    1  A    between atoms: O_2  and  C_3
REMARK    2  A    between atoms: C_3  and  C_5
REMARK    3  A    between atoms: C_5  and  C_6
REMARK    4  A    between atoms: C_6  and  C_9
REMARK    5  A    between atoms: C_9  and  C_10
REMARK    6  A    between atoms: N_12  and  C_13
REMARK    7  A    between atoms: C_13  and  C_14
REMARK    8  A    between atoms: C_16  and  C_17
REMARK    9  A    between atoms: C_17  and  C_18
REMARK   10  A    between atoms: C_20  and  C_23
REMARK   11  A    between atoms: C_26  and  O_27
REMARK   12  A    between atoms: O_27  and  C_28
REMARK                            x       y       z     vdW  Elec       q    Type
REMARK                         _______ _______ _______ _____ _____    ______ ____
ROOT
ATOM     14  C   UNL     1      -5.064   1.988  25.130  0.00  0.00    +0.170 C 
ATOM     15  O   UNL     1      -4.404   2.472  25.035  0.00  0.00    -0.351 OA
ATOM     16  C   UNL     1      -4.615   3.239  25.255  0.00  0.00    +0.157 C 
ATOM     34  C   UNL     1      -5.408   3.227  25.486  0.00  0.00    +0.212 C 
ATOM     35  O   UNL     1      -5.845   3.875  25.748  0.00  0.00    -0.218 OA
ATOM     36  C   UNL     1      -5.684   2.454  25.409  0.00  0.00    +0.213 C 
ATOM     37  O   UNL     1      -6.448   2.193  25.580  0.00  0.00    -0.218 OA
ENDROOT
BRANCH  14  13
ATOM     13  C   UNL     1      -5.098   1.178  24.973  0.00  0.00    +0.147 C 
BRANCH  13  12
ATOM     10  C   UNL     1      -4.371  -0.052  24.944  0.00  0.00    +0.241 C 
ATOM     11  O   UNL     1      -4.760  -0.265  24.249  0.00  0.00    -0.273 OA
ATOM     12  N   UNL     1      -4.541   0.670  25.307  0.00  0.00    -0.203 NA
BRANCH  10   9
ATOM      9  C   UNL     1      -3.814  -0.560  25.279  0.00  0.00    +0.087 C 
BRANCH   9   6
ATOM      6  C   UNL     1      -3.263  -0.941  24.797  0.00  0.00    +0.019 C 
ATOM      7  C   UNL     1      -3.831  -1.505  24.595  0.00  0.00    +0.001 C 
ATOM      8  C   UNL     1      -2.696  -0.377  24.999  0.00  0.00    +0.001 C 
BRANCH   6   5
ATOM      5  C   UNL     1      -2.712  -1.323  24.315  0.00  0.00    +0.110 C 
BRANCH   5   3
ATOM      3  C   UNL     1      -2.147  -1.821  24.650  0.00  0.00    +0.317 C 
ATOM      4  O   UNL     1      -2.378  -2.531  25.001  0.00  0.00    -0.250 OA
BRANCH   3   2
ATOM      1  C   UNL     1      -0.769  -2.196  24.623  0.00  0.00    +0.256 C 
ATOM      2  O   UNL     1      -1.350  -1.611  24.633  0.00  0.00    -0.444 OA
ENDBRANCH   3   2
ENDBRANCH   5   3
ENDBRANCH   6   5
ENDBRANCH   9   6
ENDBRANCH  10   9
ENDBRANCH  13  12
ENDBRANCH  14  13
BRANCH  16  17
ATOM     17  C   UNL     1      -4.123   3.900  25.246  0.00  0.00    +0.120 C 
BRANCH  17  18
ATOM     18  C   UNL     1      -3.333   3.830  25.471  0.00  0.00    +0.239 A 
ATOM     19  N   UNL     1      -2.764   3.355  25.107  0.00  0.00    -0.191 NA
ATOM     20  C   UNL     1      -2.052   3.455  25.511  0.00  0.00    +0.203 A 
ATOM     21  N   UNL     1      -2.180   3.991  26.124  0.00  0.00    -0.056 NA
ATOM     22  O   UNL     1      -2.971   4.223  26.100  0.00  0.00    -0.337 OA
BRANCH  20  23
ATOM     23  C   UNL     1      -1.337   3.083  25.333  0.00  0.00    +0.039 A 
ATOM     24  C   UNL     1      -0.970   2.602  25.894  0.00  0.00    +0.006 A 
ATOM     25  C   UNL     1      -0.256   2.230  25.714  0.00  0.00    +0.037 A 
ATOM     26  C   UNL     1       0.092   2.340  24.974  0.00  0.00    +0.147 A 
ATOM     32  C   UNL     1      -0.275   2.822  24.413  0.00  0.00    +0.037 A 
ATOM     33  C   UNL     1      -0.989   3.193  24.593  0.00  0.00    +0.006 A 
BRANCH  26  27
ATOM     27  O   UNL     1       0.806   1.969  24.795  0.00  0.00    -0.404 OA
BRANCH  27  28
ATOM     28  C   UNL     1       0.844   1.429  24.172  0.00  0.00    +0.575 C 
ATOM     29  F   UNL     1       0.883   0.890  23.548  0.00  0.00    -0.133 F 
ATOM     30  F   UNL     1       1.274   1.975  23.726  0.00  0.00    -0.133 F 
ATOM     31  F   UNL     1       0.415   0.884  24.617  0.00  0.00    -0.133 F 
ENDBRANCH  27  28
ENDBRANCH  26  27
ENDBRANCH  20  23
ENDBRANCH  17  18
ENDBRANCH  16  17
TORSDOF 12
ENDMDL
MODEL 6
REMARK VINA RESULT:     -10.1      2.024      4.697
REMARK  Name = 
REMARK  12 active torsions:
REMARK  status: ('A' for Active; 'I' for Inactive)
REMARK    1  A    between atoms: O_2  and  C_3
REMARK    2  A    between atoms: C_3  and  C_5
REMARK    3  A    between atoms: C_5  and  C_6
REMARK    4  A    between atoms: C_6  and  C_9
REMARK    5  A    between atoms: C_9  and  C_10
REMARK    6  A    between atoms: N_12  and  C_13
REMARK    7  A    between atoms: C_13  and  C_14
REMARK    8  A    between atoms: C_16  and  C_17
REMARK    9  A    between atoms: C_17  and  C_18
REMARK   10  A    between atoms: C_20  and  C_23
REMARK   11  A    between atoms: C_26  and  O_27
REMARK   12  A    between atoms: O_27  and  C_28
REMARK                            x       y       z     vdW  Elec       q    Type
REMARK                         _______ _______ _______ _____ _____    ______ ____
ROOT
ATOM     14  C   UNL     1      -0.203   1.197  24.709  0.00  0.00    +0.170 C 
ATOM     15  O   UNL     1      -0.681   1.692  25.163  0.00  0.00    -0.351 OA
ATOM     16  C   UNL     1      -0.389   2.461  25.096  0.00  0.00    +0.157 C 
ATOM     34  C   UNL     1       0.270   2.440  24.599  0.00  0.00    +0.212 C 
ATOM     35  O   UNL     1       0.732   3.087  24.380  0.00  0.00    -0.218 OA
ATOM     36  C   UNL     1       0.385   1.658  24.360  0.00  0.00    +0.213 C 
ATOM     37  O   UNL     1       0.983   1.388  23.861  0.00  0.00    -0.218 OA
ENDROOT
BRANCH  14  13
ATOM     13  C   UNL     1      -0.296   0.381  24.619  0.00  0.00    +0.147 C 
BRANCH  13  12
ATOM     10  C   UNL     1      -1.060  -0.806  24.833  0.00  0.00    +0.241 C 
ATOM     11  O   UNL     1      -0.537  -1.229  24.357  0.00  0.00    -0.273 OA
ATOM     12  N   UNL     1      -0.940  -0.000  24.964  0.00  0.00    -0.203 NA
BRANCH  10   9
ATOM      9  C   UNL     1      -1.705  -1.188  25.179  0.00  0.00    +0.087 C 
BRANCH   9   6
ATOM      6  C   UNL     1      -2.191  -1.673  24.721  0.00  0.00    +0.019 C 
ATOM      7  C   UNL     1      -2.711  -1.043  24.606  0.00  0.00    +0.001 C 
ATOM      8  C   UNL     1      -1.671  -2.303  24.837  0.00  0.00    +0.001 C 
BRANCH   6   5
ATOM      5  C   UNL     1      -2.677  -2.158  24.263  0.00  0.00    +0.110 C 
BRANCH   5   3
ATOM      3  C   UNL     1      -3.440  -2.336  24.519  0.00  0.00    +0.317 C 
ATOM      4  O   UNL     1      -3.556  -2.710  25.245  0.00  0.00    -0.250 OA
BRANCH   3   2
ATOM      1  C   UNL     1      -4.597  -2.733  23.780  0.00  0.00    +0.256 C 
ATOM      2  O   UNL     1      -4.089  -2.141  24.049  0.00  0.00    -0.444 OA
ENDBRANCH   3   2
ENDBRANCH   5   3
ENDBRANCH   6   5
ENDBRANCH   9   6
ENDBRANCH  10   9
ENDBRANCH  13  12
ENDBRANCH  14  13
BRANCH  16  17
ATOM     17  C   UNL     1      -0.700   3.131  25.459  0.00  0.00    +0.120 C 
BRANCH  17  18
ATOM     18  C   UNL     1      -1.456   3.397  25.260  0.00  0.00    +0.239 A 
ATOM     19  N   UNL     1      -2.168   3.030  25.456  0.00  0.00    -0.191 NA
ATOM     20  C   UNL     1      -2.783   3.484  25.146  0.00  0.00    +0.203 A 
ATOM     21  N   UNL     1      -2.451   4.131  24.758  0.00  0.00    -0.056 NA
ATOM     22  O   UNL     1      -1.631   4.078  24.828  0.00  0.00    -0.337 OA
BRANCH  20  23
ATOM     23  C   UNL     1      -3.589   3.318  25.213  0.00  0.00    +0.039 A 
ATOM     24  C   UNL     1      -3.945   2.784  24.694  0.00  0.00    +0.006 A 
ATOM     25  C   UNL     1      -4.751   2.619  24.762  0.00  0.00    +0.037 A 
ATOM     26  C   UNL     1      -5.200   2.988  25.348  0.00  0.00    +0.147 A 
ATOM     32  C   UNL     1      -4.843   3.522  25.867  0.00  0.00    +0.037 A 
ATOM     33  C   UNL     1      -4.038   3.687  25.799  0.00  0.00    +0.006 A 
BRANCH  26  27
ATOM     27  O   UNL     1      -6.005   2.823  25.415  0.00  0.00    -0.404 OA
BRANCH  27  28
ATOM     28  C   UNL     1      -6.252   2.094  25.713  0.00  0.00    +0.575 C 
ATOM     29  F   UNL     1      -6.499   1.365  26.011  0.00  0.00    -0.133 F 
ATOM     30  F   UNL     1      -6.389   1.827  24.945  0.00  0.00    -0.133 F 
ATOM     31  F   UNL     1      -6.115   2.360  26.482  0.00  0.00    -0.133 F 
ENDBRANCH  27  28
ENDBRANCH  26  27
ENDBRANCH  20  23
ENDBRANCH  17  18
ENDBRANCH  16  17
TORSDOF 12
ENDMDL
