MODEL 1
REMARK VINA RESULT:     -10.3      0.000      0.000
REMARK  Name = 
REMARK  4 active torsions:
REMARK  status: ('A' for Active; 'I' for Inactive)
REMARK    1  A    between atoms: C_7  and  C_8
REMARK    2  A    between atoms: N_10  and  C_11
REMARK    3  A    between atoms: C_14  and  C_17
REMARK    4  A    between atoms: C_24  and  C_25
REMARK                            x       y       z     vdW  Elec       q    Type
REMARK                         _______ _______ _______ _____ _____    ______ ____
ROOT
ATOM     11  C   UNL     1      -2.919   1.762  24.483  0.00  0.00    +0.074 A 
ATOM     12  C   UNL     1      -3.673   1.519  24.715  0.00  0.00    +0.016 A 
ATOM     13  C   UNL     1      -3.888   0.725  24.653  0.00  0.00    -0.001 A 
ATOM     14  C   UNL     1      -3.349   0.174  24.358  0.00  0.00    +0.006 A 
ATOM     15  C   UNL     1      -2.596   0.416  24.126  0.00  0.00    -0.001 A 
ATOM     16  C   UNL     1      -2.380   1.211  24.188  0.00  0.00    +0.016 A 
ENDROOT
BRANCH  14  17
ATOM     17  C   UNL     1      -3.564  -0.621  24.296  0.00  0.00    +0.159 C 
ATOM     18  O   UNL     1      -3.985  -0.884  23.637  0.00  0.00    -0.341 OA
ATOM     19  C   UNL     1      -4.200  -1.677  23.576  0.00  0.00    +0.227 C 
ATOM     20  C   UNL     1      -3.994  -2.209  24.172  0.00  0.00    +0.256 C 
ATOM     21  O   UNL     1      -4.209  -3.003  24.110  0.00  0.00    -0.272 OA
ATOM     22  N   UNL     1      -3.573  -1.946  24.831  0.00  0.00    -0.272 N 
ATOM     23  C   UNL     1      -3.366  -2.476  25.428  0.00  0.00    +0.115 C 
ATOM     24  C   UNL     1      -3.358  -1.151  24.893  0.00  0.00    +0.140 C 
BRANCH  24  25
ATOM     25  C   UNL     1      -2.936  -0.888  25.552  0.00  0.00    +0.205 C 
ATOM     26  O   UNL     1      -3.052  -1.247  26.285  0.00  0.00    -0.218 OA
ENDBRANCH  24  25
ENDBRANCH  14  17
BRANCH  11  10
ATOM      8  C   UNL     1      -2.267   2.815  25.195  0.00  0.00    +0.286 C 
ATOM      9  O   UNL     1      -2.045   2.280  25.782  0.00  0.00    -0.266 OA
ATOM     10  N   UNL     1      -2.704   2.556  24.545  0.00  0.00    -0.174 NA
BRANCH   8   7
ATOM      1  C   UNL     1      -3.057   4.043  26.239  0.00  0.00    +0.154 C 
ATOM      2  N   UNL     1      -2.415   4.174  25.737  0.00  0.00    -0.245 N 
ATOM      3  N   UNL     1      -2.024   4.891  25.626  0.00  0.00    -0.173 NA
ATOM      4  C   UNL     1      -1.419   4.771  25.078  0.00  0.00    +0.081 A 
ATOM      5  C   UNL     1      -0.890   5.342  24.806  0.00  0.00    +0.054 C 
ATOM      6  C   UNL     1      -1.436   3.978  24.849  0.00  0.00    +0.040 A 
ATOM      7  C   UNL     1      -2.052   3.609  25.256  0.00  0.00    +0.134 A 
ENDBRANCH   8   7
ENDBRANCH  11  10
TORSDOF 4
ENDMDL
MODEL 2
REMARK VINA RESULT:      -9.8      1.262      5.434
REMARK  Name = 
REMARK  4 active torsions:
REMARK  status: ('A' for Active; 'I' for Inactive)
REMARK    1  A    between atoms: C_7  and  C_8
REMARK    2  A    between atoms: N_10  and  C_11
REMARK    3  A    between atoms: C_14  and  C_17
REMARK    4  A    between atoms: C_24  and  C_25
REMARK                            x       y       z     vdW  Elec       q    Type
REMARK                         _______ _______ _______ _____ _____    ______ ____
ROOT
ATOM     11  C   UNL     1      -2.268   0.775  24.476  0.00  0.00    +0.074 A 
ATOM     12  C   UNL     1      -1.754   0.980  25.088  0.00  0.00    +0.016 A 
ATOM     13  C   UNL     1      -1.494   1.760  25.165  0.00  0.00    -0.001 A 
ATOM     14  C   UNL     1      -1.748   2.333  24.629  0.00  0.00    +0.006 A 
ATOM     15  C   UNL     1      -2.262   2.129  24.018  0.00  0.00    -0.001 A 
ATOM     16  C   UNL     1      -2.523   1.349  23.941  0.00  0.00    +0.016 A 
ENDROOT
BRANCH  14  17
ATOM     17  C   UNL     1      -1.488   3.113  24.706  0.00  0.00    +0.159 C 
ATOM     18  O   UNL     1      -0.749   3.332  24.412  0.00  0.00    -0.341 OA
ATOM     19  C   UNL     1      -0.490   4.111  24.489  0.00  0.00    +0.227 C 
ATOM     20  C   UNL     1      -0.968   4.671  24.860  0.00  0.00    +0.256 C 
ATOM     21  O   UNL     1      -0.708   5.451  24.937  0.00  0.00    -0.272 OA
ATOM     22  N   UNL     1      -1.707   4.452  25.154  0.00  0.00    -0.272 N 
ATOM     23  C   UNL     1      -2.186   5.012  25.526  0.00  0.00    +0.115 C 
ATOM     24  C   UNL     1      -1.967   3.672  25.078  0.00  0.00    +0.140 C 
BRANCH  24  25
ATOM     25  C   UNL     1      -2.706   3.453  25.372  0.00  0.00    +0.205 C 
ATOM     26  O   UNL     1      -3.040   3.872  25.998  0.00  0.00    -0.218 OA
ENDBRANCH  24  25
ENDBRANCH  14  17
BRANCH  11  10
ATOM      8  C   UNL     1      -3.225  -0.245  24.770  0.00  0.00    +0.286 C 
ATOM      9  O   UNL     1      -3.661   0.293  25.219  0.00  0.00    -0.266 OA
ATOM     10  N   UNL     1      -2.529  -0.004  24.399  0.00  0.00    -0.174 NA
BRANCH   8   7
ATOM      1  C   UNL     1      -3.298  -1.467  26.083  0.00  0.00    +0.154 C 
ATOM      2  N   UNL     1      -3.518  -1.586  25.297  0.00  0.00    -0.245 N 
ATOM      3  N   UNL     1      -3.811  -2.287  24.976  0.00  0.00    -0.173 NA
ATOM      4  C   UNL     1      -3.958  -2.159  24.174  0.00  0.00    +0.081 A 
ATOM      5  C   UNL     1      -4.254  -2.714  23.641  0.00  0.00    +0.054 C 
ATOM      6  C   UNL     1      -3.756  -1.378  23.999  0.00  0.00    +0.040 A 
ATOM      7  C   UNL     1      -3.484  -1.024  24.693  0.00  0.00    +0.134 A 
ENDBRANCH   8   7
ENDBRANCH  11  10
TORSDOF 4
ENDMDL
MODEL 3
REMARK VINA RESULT:      -9.4      2.641      4.376
REMARK  Name = 
REMARK  4 active torsions:
REMARK  status: ('A' for Active; 'I' for Inactive)
REMARK    1  A    between atoms: C_7  and  C_8
REMARK    2  A    between atoms: N_10  and  C_11
REMARK    3  A    between atoms: C_14  and  C_17
REMARK    4  A    between atoms: C_24  and  C_25
REMARK                            x       y       z     vdW  Elec       q    Type
REMARK                         _______ _______ _______ _____ _____    ______ ____
ROOT
ATOM     11  C   UNL     1      -1.770   1.718  24.248  0.00  0.00    +0.074 A 
ATOM     12  C   UNL     1      -2.363   1.878  23.696  0.00  0.00    +0.016 A 
ATOM     13  C   UNL     1      -3.066   2.236  23.939  0.00  0.00    -0.001 A 
ATOM     14  C   UNL     1      -3.176   2.433  24.732  0.00  0.00    +0.006 A 
ATOM     15  C   UNL     1      -2.583   2.274  25.283  0.00  0.00    -0.001 A 
ATOM     16  C   UNL     1      -1.880   1.916  25.041  0.00  0.00    +0.016 A 
ENDROOT
BRANCH  14  17
ATOM     17  C   UNL     1      -3.879   2.791  24.974  0.00  0.00    +0.159 C 
ATOM     18  O   UNL     1      -3.906   3.606  25.097  0.00  0.00    -0.341 OA
ATOM     19  C   UNL     1      -4.609   3.964  25.339  0.00  0.00    +0.227 C 
ATOM     20  C   UNL     1      -5.285   3.506  25.458  0.00  0.00    +0.256 C 
ATOM     21  O   UNL     1      -5.988   3.864  25.700  0.00  0.00    -0.272 OA
ATOM     22  N   UNL     1      -5.258   2.691  25.336  0.00  0.00    -0.272 N 
ATOM     23  C   UNL     1      -5.933   2.233  25.455  0.00  0.00    +0.115 C 
ATOM     24  C   UNL     1      -4.555   2.333  25.093  0.00  0.00    +0.140 C 
BRANCH  24  25
ATOM     25  C   UNL     1      -4.527   1.518  24.971  0.00  0.00    +0.205 C 
ATOM     26  O   UNL     1      -5.017   1.019  25.408  0.00  0.00    -0.218 OA
ENDBRANCH  24  25
ENDBRANCH  14  17
BRANCH  11  10
ATOM      8  C   UNL     1      -0.997   0.539  24.017  0.00  0.00    +0.286 C 
ATOM      9  O   UNL     1      -1.630   0.074  24.270  0.00  0.00    -0.266 OA
ATOM     10  N   UNL     1      -1.067   1.360  24.005  0.00  0.00    -0.174 NA
BRANCH   8   7
ATOM      1  C   UNL     1      -0.402  -1.074  24.532  0.00  0.00    +0.154 C 
ATOM      2  N   UNL     1      -0.021  -0.560  24.012  0.00  0.00    -0.245 N 
ATOM      3  N   UNL     1       0.701  -0.697  23.637  0.00  0.00    -0.173 NA
ATOM      4  C   UNL     1       0.874  -0.040  23.168  0.00  0.00    +0.081 A 
ATOM      5  C   UNL     1       1.544   0.056  22.697  0.00  0.00    +0.054 C 
ATOM      6  C   UNL     1       0.259   0.503  23.253  0.00  0.00    +0.040 A 
ATOM      7  C   UNL     1      -0.294   0.181  23.775  0.00  0.00    +0.134 A 
ENDBRANCH   8   7
ENDBRANCH  11  10
TORSDOF 4
ENDMDL
MODEL 4
REMARK VINA RESULT:      -9.1      1.572      2.171
REMARK  Name = 
REMARK  4 active torsions:
REMARK  status: ('A' for Active; 'I' for Inactive)
REMARK    1  A    between atoms: C_7  and  C_8
REMARK    2  A    between atoms: N_10  and  C_11
REMARK    3  A    between atoms: C_14  and  C_17
REMARK    4  A    between atoms: C_24  and  C_25
REMARK                            x       y       z     vdW  Elec       q    Type
REMARK                         _______ _______ _______ _____ _____    ______ ____
ROOT
ATOM     11  C   UNL     1      -4.398   0.904  24.736  0.00  0.00    +0.074 A 
ATOM     12  C   UNL     1      -4.424   0.372  25.366  0.00  0.00    +0.016 A 
ATOM     13  C   UNL     1      -4.122  -0.390  25.275  0.00  0.00    -0.001 A 
ATOM     14  C   UNL     1      -3.794  -0.620  24.553  0.00  0.00    +0.006 A 
ATOM     15  C   UNL     1      -3.767  -0.088  23.924  0.00  0.00    -0.001 A 
ATOM     16  C   UNL     1      -4.070   0.675  24.015  0.00  0.00    +0.016 A 
ENDROOT
BRANCH  14  17
ATOM     17  C   UNL     1      -3.491  -1.382  24.462  0.00  0.00    +0.159 C 
ATOM     18  O   UNL     1      -3.995  -2.005  24.263  0.00  0.00    -0.341 OA
ATOM     19  C   UNL     1      -3.693  -2.766  24.172  0.00  0.00    +0.227 C 
ATOM     20  C   UNL     1      -2.887  -2.907  24.280  0.00  0.00    +0.256 C 
ATOM     21  O   UNL     1      -2.585  -3.669  24.188  0.00  0.00    -0.272 OA
ATOM     22  N   UNL     1      -2.383  -2.285  24.479  0.00  0.00    -0.272 N 
ATOM     23  C   UNL     1      -1.577  -2.424  24.587  0.00  0.00    +0.115 C 
ATOM     24  C   UNL     1      -2.686  -1.522  24.570  0.00  0.00    +0.140 C 
BRANCH  24  25
ATOM     25  C   UNL     1      -2.182  -0.900  24.770  0.00  0.00    +0.205 C 
ATOM     26  O   UNL     1      -1.474  -1.053  25.163  0.00  0.00    -0.218 OA
ENDBRANCH  24  25
ENDBRANCH  14  17
BRANCH  11  10
ATOM      8  C   UNL     1      -4.211   2.275  25.094  0.00  0.00    +0.286 C 
ATOM      9  O   UNL     1      -3.419   2.121  25.269  0.00  0.00    -0.266 OA
ATOM     10  N   UNL     1      -4.700   1.667  24.827  0.00  0.00    -0.174 NA
BRANCH   8   7
ATOM      1  C   UNL     1      -3.329   3.805  24.771  0.00  0.00    +0.154 C 
ATOM      2  N   UNL     1      -4.108   3.741  25.037  0.00  0.00    -0.245 N 
ATOM      3  N   UNL     1      -4.618   4.368  25.200  0.00  0.00    -0.173 NA
ATOM      4  C   UNL     1      -5.339   4.052  25.450  0.00  0.00    +0.081 A 
ATOM      5  C   UNL     1      -6.006   4.484  25.670  0.00  0.00    +0.054 C 
ATOM      6  C   UNL     1      -5.274   3.230  25.440  0.00  0.00    +0.040 A 
ATOM      7  C   UNL     1      -4.513   3.037  25.185  0.00  0.00    +0.134 A 
ENDBRANCH   8   7
ENDBRANCH  11  10
TORSDOF 4
ENDMDL
