MODEL 1
REMARK VINA RESULT:     -11.4      0.000      0.000
REMARK  Name = 
REMARK  6 active torsions:
REMARK  status: ('A' for Active; 'I' for Inactive)
REMARK    1  A    between atoms: C_2  and  C_4
REMARK    2  A    between atoms: C_4  and  C_5
REMARK    3  A    between atoms: C_7  and  C_18
REMARK    4  A    between atoms: N_20  and  C_21
REMARK    5  A    between atoms: C_21  and  C_22
REMARK    6  A    between atoms: C_22  and  N_23
REMARK                            x       y       z     vdW  Elec       q    Type
REMARK                         _______ _______ _______ _____ _____    ______ ____
ROOT
ATOM      5  C   UNL     1      -2.997   3.169  25.052  0.00  0.00    +0.095 C 
ATOM      6  N   UNL     1      -3.162   2.426  24.734  0.00  0.00    -0.207 NA
ATOM      7  C   UNL     1      -2.658   1.918  24.324  0.00  0.00    +0.155 C 
ATOM      8  C   UNL     1      -1.863   2.027  24.132  0.00  0.00    +0.055 C 
ATOM      9  C   UNL     1      -1.377   2.672  24.301  0.00  0.00    +0.000 A 
ATOM     10  C   UNL     1      -0.584   2.715  24.076  0.00  0.00    +0.095 A 
ATOM     11  N   UNL     1      -0.282   3.436  24.341  0.00  0.00    -0.244 NA
ATOM     12  C   UNL     1      -0.888   3.839  24.729  0.00  0.00    +0.081 A 
ATOM     13  C   UNL     1      -1.565   3.366  24.705  0.00  0.00    +0.013 A 
ATOM     14  C   UNL     1      -2.287   3.587  25.039  0.00  0.00    -0.005 A 
ATOM     15  C   UNL     1      -2.288   4.365  25.426  0.00  0.00    -0.003 A 
ATOM     16  C   UNL     1      -1.612   4.837  25.451  0.00  0.00    +0.001 A 
ATOM     17  C   UNL     1      -0.912   4.574  25.102  0.00  0.00    +0.019 A 
ENDROOT
BRANCH   7  18
ATOM     18  C   UNL     1      -2.992   1.206  24.074  0.00  0.00    +0.258 C 
ATOM     19  O   UNL     1      -3.260   1.127  23.297  0.00  0.00    -0.272 OA
ATOM     20  N   UNL     1      -3.059   0.575  24.601  0.00  0.00    -0.203 NA
BRANCH  20  21
ATOM     21  C   UNL     1      -3.394  -0.137  24.350  0.00  0.00    +0.132 C 
BRANCH  21  22
ATOM     22  C   UNL     1      -3.593  -0.716  24.903  0.00  0.00    +0.096 C 
BRANCH  22  23
ATOM     23  N   UNL     1      -3.671  -1.503  24.666  0.00  0.00    -0.271 NA
ATOM     24  C   UNL     1      -4.179  -1.786  24.081  0.00  0.00    +0.072 C 
ATOM     25  C   UNL     1      -4.076  -2.602  24.028  0.00  0.00    +0.019 C 
ATOM     26  C   UNL     1      -3.505  -2.824  24.579  0.00  0.00    +0.019 C 
ATOM     27  C   UNL     1      -3.254  -2.145  24.975  0.00  0.00    +0.072 C 
ENDBRANCH  22  23
ENDBRANCH  21  22
ENDBRANCH  20  21
ENDBRANCH   7  18
BRANCH   5   4
ATOM      4  C   UNL     1      -3.626   3.543  25.433  0.00  0.00    +0.022 C 
BRANCH   4   2
ATOM      1  C   UNL     1      -4.629   3.781  24.443  0.00  0.00    +0.000 C 
ATOM      2  C   UNL     1      -4.396   3.438  25.156  0.00  0.00    +0.002 C 
ATOM      3  C   UNL     1      -4.934   2.990  25.594  0.00  0.00    +0.000 C 
ENDBRANCH   4   2
ENDBRANCH   5   4
TORSDOF 6
ENDMDL
MODEL 2
REMARK VINA RESULT:     -11.2      1.290      4.956
REMARK  Name = 
REMARK  6 active torsions:
REMARK  status: ('A' for Active; 'I' for Inactive)
REMARK    1  A    between atoms: C_2  and  C_4
REMARK    2  A    between atoms: C_4  and  C_5
REMARK    3  A    between atoms: C_7  and  C_18
REMARK    4  A    between atoms: N_20  and  C_21
REMARK    5  A    between atoms: C_21  and  C_22
REMARK    6  A    between atoms: C_22  and  N_23
REMARK                            x       y       z     vdW  Elec       q    Type
REMARK                         _______ _______ _______ _____ _____    ______ ____
ROOT
ATOM      5  C   UNL     1      -3.396  -0.201  24.383  0.00  0.00    +0.095 C 
ATOM      6  N   UNL     1      -2.887   0.446  24.325  0.00  0.00    -0.207 NA
ATOM      7  C   UNL     1      -2.063   0.457  24.368  0.00  0.00    +0.155 C 
ATOM      8  C   UNL     1      -1.545  -0.175  24.480  0.00  0.00    +0.055 C 
ATOM      9  C   UNL     1      -1.723  -0.975  24.576  0.00  0.00    +0.000 A 
ATOM     10  C   UNL     1      -1.150  -1.558  24.684  0.00  0.00    +0.095 A 
ATOM     11  N   UNL     1      -1.535  -2.284  24.760  0.00  0.00    -0.244 NA
ATOM     12  C   UNL     1      -2.347  -2.149  24.698  0.00  0.00    +0.081 A 
ATOM     13  C   UNL     1      -2.463  -1.340  24.584  0.00  0.00    +0.013 A 
ATOM     14  C   UNL     1      -3.208  -0.994  24.498  0.00  0.00    -0.005 A 
ATOM     15  C   UNL     1      -3.875  -1.549  24.535  0.00  0.00    -0.003 A 
ATOM     16  C   UNL     1      -3.760  -2.358  24.649  0.00  0.00    +0.001 A 
ATOM     17  C   UNL     1      -2.995  -2.658  24.730  0.00  0.00    +0.019 A 
ENDROOT
BRANCH   7  18
ATOM     18  C   UNL     1      -1.711   1.199  24.289  0.00  0.00    +0.258 C 
ATOM     19  O   UNL     1      -1.434   1.448  23.552  0.00  0.00    -0.272 OA
ATOM     20  N   UNL     1      -1.635   1.692  24.946  0.00  0.00    -0.203 NA
BRANCH  20  21
ATOM     21  C   UNL     1      -1.283   2.434  24.866  0.00  0.00    +0.132 C 
BRANCH  21  22
ATOM     22  C   UNL     1      -1.294   2.966  25.496  0.00  0.00    +0.096 C 
BRANCH  22  23
ATOM     23  N   UNL     1      -1.317   3.778  25.351  0.00  0.00    -0.271 NA
ATOM     24  C   UNL     1      -0.702   4.234  25.045  0.00  0.00    +0.072 C 
ATOM     25  C   UNL     1      -0.965   5.014  24.992  0.00  0.00    +0.019 C 
ATOM     26  C   UNL     1      -1.743   5.040  25.266  0.00  0.00    +0.019 C 
ATOM     27  C   UNL     1      -1.961   4.276  25.488  0.00  0.00    +0.072 C 
ENDBRANCH  22  23
ENDBRANCH  21  22
ENDBRANCH  20  21
ENDBRANCH   7  18
BRANCH   5   4
ATOM      4  C   UNL     1      -4.200  -0.029  24.316  0.00  0.00    +0.022 C 
BRANCH   4   2
ATOM      1  C   UNL     1      -4.652   0.656  25.486  0.00  0.00    +0.000 C 
ATOM      2  C   UNL     1      -4.508   0.648  24.674  0.00  0.00    +0.002 C 
ATOM      3  C   UNL     1      -4.672   1.317  24.219  0.00  0.00    +0.000 C 
ENDBRANCH   4   2
ENDBRANCH   5   4
TORSDOF 6
ENDMDL
MODEL 3
REMARK VINA RESULT:     -11.1      1.407      5.458
REMARK  Name = 
REMARK  6 active torsions:
REMARK  status: ('A' for Active; 'I' for Inactive)
REMARK    1  A    between atoms: C_2  and  C_4
REMARK    2  A    between atoms: C_4  and  C_5
REMARK    3  A    between atoms: C_7  and  C_18
REMARK    4  A    between atoms: N_20  and  C_21
REMARK    5  A    between atoms: C_21  and  C_22
REMARK    6  A    between atoms: C_22  and  N_23
REMARK                            x       y       z     vdW  Elec       q    Type
REMARK                         _______ _______ _______ _____ _____    ______ ____
ROOT
ATOM      5  C   UNL     1      -1.991  -1.024  24.452  0.00  0.00    +0.095 C 
ATOM      6  N   UNL     1      -1.873  -0.214  24.353  0.00  0.00    -0.207 NA
ATOM      7  C   UNL     1      -2.435   0.375  24.212  0.00  0.00    +0.155 C 
ATOM      8  C   UNL     1      -3.252   0.297  24.136  0.00  0.00    +0.055 C 
ATOM      9  C   UNL     1      -3.711  -0.388  24.182  0.00  0.00    +0.000 A 
ATOM     10  C   UNL     1      -4.531  -0.392  24.095  0.00  0.00    +0.095 A 
ATOM     11  N   UNL     1      -4.792  -1.171  24.175  0.00  0.00    -0.244 NA
ATOM     12  C   UNL     1      -4.133  -1.648  24.311  0.00  0.00    +0.081 A 
ATOM     13  C   UNL     1      -3.464  -1.164  24.315  0.00  0.00    +0.013 A 
ATOM     14  C   UNL     1      -2.698  -1.446  24.435  0.00  0.00    -0.005 A 
ATOM     15  C   UNL     1      -2.640  -2.304  24.560  0.00  0.00    -0.003 A 
ATOM     16  C   UNL     1      -3.307  -2.789  24.556  0.00  0.00    +0.001 A 
ATOM     17  C   UNL     1      -4.054  -2.460  24.431  0.00  0.00    +0.019 A 
ENDROOT
BRANCH   7  18
ATOM     18  C   UNL     1      -2.139   1.142  24.138  0.00  0.00    +0.258 C 
ATOM     19  O   UNL     1      -1.845   1.401  23.411  0.00  0.00    -0.272 OA
ATOM     20  N   UNL     1      -2.138   1.648  24.789  0.00  0.00    -0.203 NA
BRANCH  20  21
ATOM     21  C   UNL     1      -1.842   2.414  24.713  0.00  0.00    +0.132 C 
BRANCH  21  22
ATOM     22  C   UNL     1      -1.766   2.894  25.380  0.00  0.00    +0.096 C 
BRANCH  22  23
ATOM     23  N   UNL     1      -1.600   3.698  25.294  0.00  0.00    -0.271 NA
ATOM     24  C   UNL     1      -0.873   4.023  25.078  0.00  0.00    +0.072 C 
ATOM     25  C   UNL     1      -0.957   4.843  25.060  0.00  0.00    +0.019 C 
ATOM     26  C   UNL     1      -1.734   5.025  25.265  0.00  0.00    +0.019 C 
ATOM     27  C   UNL     1      -2.133   4.318  25.410  0.00  0.00    +0.072 C 
ENDBRANCH  22  23
ENDBRANCH  21  22
ENDBRANCH  20  21
ENDBRANCH   7  18
BRANCH   5   4
ATOM      4  C   UNL     1      -1.310  -1.470  24.586  0.00  0.00    +0.022 C 
BRANCH   4   2
ATOM      1  C   UNL     1      -0.672  -1.024  25.785  0.00  0.00    +0.000 C 
ATOM      2  C   UNL     1      -0.662  -1.129  24.966  0.00  0.00    +0.002 C 
ATOM      3  C   UNL     1      -0.004  -0.892  24.527  0.00  0.00    +0.000 C 
ENDBRANCH   4   2
ENDBRANCH   5   4
TORSDOF 6
ENDMDL
MODEL 4
REMARK VINA RESULT:     -10.9      1.719      3.789
REMARK  Name = 
REMARK  6 active torsions:
REMARK  status: ('A' for Active; 'I' for Inactive)
REMARK    1  A    between atoms: C_2  and  C_4
REMARK    2  A    between atoms: C_4  and  C_5
REMARK    3  A    between atoms: C_7  and  C_18
REMARK    4  A    between atoms: N_20  and  C_21
REMARK    5  A    between atoms: C_21  and  C_22
REMARK    6  A    between atoms: C_22  and  N_23
REMARK                            x       y       z     vdW  Elec       q    Type
REMARK                         _______ _______ _______ _____ _____    ______ ____
ROOT
ATOM      5  C   UNL     1      -4.284   1.060  24.609  0.00  0.00    +0.095 C 
ATOM      6  N   UNL     1      -3.556   1.072  24.221  0.00  0.00    -0.207 NA
ATOM      7  C   UNL     1      -3.057   1.714  24.083  0.00  0.00    +0.155 C 
ATOM      8  C   UNL     1      -3.162   2.503  24.300  0.00  0.00    +0.055 C 
ATOM      9  C   UNL     1      -3.793   2.845  24.708  0.00  0.00    +0.000 A 
ATOM     10  C   UNL     1      -3.834   3.648  24.892  0.00  0.00    +0.095 A 
ATOM     11  N   UNL     1      -4.539   3.782  25.298  0.00  0.00    -0.244 NA
ATOM     12  C   UNL     1      -4.936   3.061  25.365  0.00  0.00    +0.081 A 
ATOM     13  C   UNL     1      -4.474   2.482  24.999  0.00  0.00    +0.013 A 
ATOM     14  C   UNL     1      -4.692   1.687  24.955  0.00  0.00    -0.005 A 
ATOM     15  C   UNL     1      -5.454   1.495  25.325  0.00  0.00    -0.003 A 
ATOM     16  C   UNL     1      -5.916   2.073  25.690  0.00  0.00    +0.001 A 
ATOM     17  C   UNL     1      -5.656   2.856  25.710  0.00  0.00    +0.019 A 
ENDROOT
BRANCH   7  18
ATOM     18  C   UNL     1      -2.360   1.545  23.675  0.00  0.00    +0.258 C 
ATOM     19  O   UNL     1      -2.337   1.613  22.852  0.00  0.00    -0.272 OA
ATOM     20  N   UNL     1      -1.687   1.308  24.088  0.00  0.00    -0.203 NA
BRANCH  20  21
ATOM     21  C   UNL     1      -0.991   1.138  23.679  0.00  0.00    +0.132 C 
BRANCH  21  22
ATOM     22  C   UNL     1      -0.346   0.814  24.079  0.00  0.00    +0.096 C 
BRANCH  22  23
ATOM     23  N   UNL     1       0.294   0.512  23.655  0.00  0.00    -0.271 NA
ATOM     24  C   UNL     1       0.359  -0.253  23.352  0.00  0.00    +0.072 C 
ATOM     25  C   UNL     1       1.087  -0.314  22.969  0.00  0.00    +0.019 C 
ATOM     26  C   UNL     1       1.471   0.412  23.035  0.00  0.00    +0.019 C 
ATOM     27  C   UNL     1       0.982   0.923  23.459  0.00  0.00    +0.072 C 
ENDBRANCH  22  23
ENDBRANCH  21  22
ENDBRANCH  20  21
ENDBRANCH   7  18
BRANCH   5   4
ATOM      4  C   UNL     1      -4.651   0.323  24.657  0.00  0.00    +0.022 C 
BRANCH   4   2
ATOM      1  C   UNL     1      -4.104  -0.849  24.049  0.00  0.00    +0.000 C 
ATOM      2  C   UNL     1      -4.195  -0.363  24.709  0.00  0.00    +0.002 C 
ATOM      3  C   UNL     1      -3.829  -0.561  25.423  0.00  0.00    +0.000 C 
ENDBRANCH   4   2
ENDBRANCH   5   4
TORSDOF 6
ENDMDL
MODEL 5
REMARK VINA RESULT:     -10.9      0.753      2.174
REMARK  Name = 
REMARK  6 active torsions:
REMARK  status: ('A' for Active; 'I' for Inactive)
REMARK    1  A    between atoms: C_2  and  C_4
REMARK    2  A    between atoms: C_4  and  C_5
REMARK    3  A    between atoms: C_7  and  C_18
REMARK    4  A    between atoms: N_20  and  C_21
REMARK    5  A    between atoms: C_21  and  C_22
REMARK    6  A    between atoms: C_22  and  N_23
REMARK                            x       y       z     vdW  Elec       q    Type
REMARK                         _______ _______ _______ _____ _____    ______ ____
ROOT
ATOM      5  C   UNL     1      -1.424   2.630  24.478  0.00  0.00    +0.095 C 
ATOM      6  N   UNL     1      -1.876   1.981  24.243  0.00  0.00    -0.207 NA
ATOM      7  C   UNL     1      -2.698   1.900  24.243  0.00  0.00    +0.155 C 
ATOM      8  C   UNL     1      -3.269   2.446  24.479  0.00  0.00    +0.055 C 
ATOM      9  C   UNL     1      -3.160   3.209  24.773  0.00  0.00    +0.000 A 
ATOM     10  C   UNL     1      -3.782   3.705  24.991  0.00  0.00    +0.095 A 
ATOM     11  N   UNL     1      -3.460   4.417  25.257  0.00  0.00    -0.244 NA
ATOM     12  C   UNL     1      -2.638   4.361  25.202  0.00  0.00    +0.081 A 
ATOM     13  C   UNL     1      -2.453   3.614  24.903  0.00  0.00    +0.013 A 
ATOM     14  C   UNL     1      -1.680   3.356  24.772  0.00  0.00    -0.005 A 
ATOM     15  C   UNL     1      -1.062   3.932  24.973  0.00  0.00    -0.003 A 
ATOM     16  C   UNL     1      -1.247   4.678  25.272  0.00  0.00    +0.001 A 
ATOM     17  C   UNL     1      -2.035   4.892  25.387  0.00  0.00    +0.019 A 
ENDROOT
BRANCH   7  18
ATOM     18  C   UNL     1      -2.985   1.175  23.971  0.00  0.00    +0.258 C 
ATOM     19  O   UNL     1      -3.044   1.033  23.160  0.00  0.00    -0.272 OA
ATOM     20  N   UNL     1      -3.214   0.594  24.510  0.00  0.00    -0.203 NA
BRANCH  20  21
ATOM     21  C   UNL     1      -3.502  -0.130  24.237  0.00  0.00    +0.132 C 
BRANCH  21  22
ATOM     22  C   UNL     1      -3.829  -0.669  24.768  0.00  0.00    +0.096 C 
BRANCH  22  23
ATOM     23  N   UNL     1      -3.833  -1.475  24.589  0.00  0.00    -0.271 NA
ATOM     24  C   UNL     1      -4.235  -1.831  23.962  0.00  0.00    +0.072 C 
ATOM     25  C   UNL     1      -4.084  -2.642  23.992  0.00  0.00    +0.019 C 
ATOM     26  C   UNL     1      -3.590  -2.786  24.636  0.00  0.00    +0.019 C 
ATOM     27  C   UNL     1      -3.434  -2.065  25.006  0.00  0.00    +0.072 C 
ENDBRANCH  22  23
ENDBRANCH  21  22
ENDBRANCH  20  21
ENDBRANCH   7  18
BRANCH   5   4
ATOM      4  C   UNL     1      -0.607   2.538  24.411  0.00  0.00    +0.022 C 
BRANCH   4   2
ATOM      1  C   UNL     1       0.048   1.329  24.024  0.00  0.00    +0.000 C 
ATOM      2  C   UNL     1      -0.254   1.820  24.614  0.00  0.00    +0.002 C 
ATOM      3  C   UNL     1      -0.204   1.595  25.406  0.00  0.00    +0.000 C 
ENDBRANCH   4   2
ENDBRANCH   5   4
TORSDOF 6
ENDMDL
MODEL 6
REMARK VINA RESULT:     -10.3      1.876      3.595
REMARK  Name = 
REMARK  6 active torsions:
REMARK  status: ('A' for Active; 'I' for Inactive)
REMARK    1  A    between atoms: C_2  and  C_4
REMARK    2  A    between atoms: C_4  and  C_5
REMARK    3  A    between atoms: C_7  and  C_18
REMARK    4  A    between atoms: N_20  and  C_21
REMARK    5  A    between atoms: C_21  and  C_22
REMARK    6  A    between atoms: C_22  and  N_23
REMARK                            x       y       z     vdW  Elec       q    Type
REMARK                         _______ _______ _______ _____ _____    ______ ____
ROOT
ATOM      5  C   UNL     1      -3.362   3.243  24.928  0.00  0.00    +0.095 C 
ATOM      6  N   UNL     1      -2.792   2.836  24.491  0.00  0.00    -0.207 NA
ATOM      7  C   UNL     1      -2.835   2.076  24.172  0.00  0.00    +0.155 C 
ATOM      8  C   UNL     1      -3.456   1.536  24.212  0.00  0.00    +0.055 C 
ATOM      9  C   UNL     1      -4.189   1.621  24.581  0.00  0.00    +0.000 A 
ATOM     10  C   UNL     1      -4.769   1.034  24.582  0.00  0.00    +0.095 A 
ATOM     11  N   UNL     1      -5.420   1.319  25.002  0.00  0.00    -0.244 NA
ATOM     12  C   UNL     1      -5.243   2.082  25.261  0.00  0.00    +0.081 A 
ATOM     13  C   UNL     1      -4.482   2.269  25.001  0.00  0.00    +0.013 A 
ATOM     14  C   UNL     1      -4.112   2.991  25.155  0.00  0.00    -0.005 A 
ATOM     15  C   UNL     1      -4.586   3.552  25.618  0.00  0.00    -0.003 A 
ATOM     16  C   UNL     1      -5.346   3.366  25.879  0.00  0.00    +0.001 A 
ATOM     17  C   UNL     1      -5.674   2.630  25.700  0.00  0.00    +0.019 A 
ENDROOT
BRANCH   7  18
ATOM     18  C   UNL     1      -2.166   1.824  23.758  0.00  0.00    +0.258 C 
ATOM     19  O   UNL     1      -2.071   2.031  22.965  0.00  0.00    -0.272 OA
ATOM     20  N   UNL     1      -1.595   1.366  24.138  0.00  0.00    -0.203 NA
BRANCH  20  21
ATOM     21  C   UNL     1      -0.927   1.115  23.723  0.00  0.00    +0.132 C 
BRANCH  21  22
ATOM     22  C   UNL     1      -0.331   0.700  24.115  0.00  0.00    +0.096 C 
BRANCH  22  23
ATOM     23  N   UNL     1       0.321   0.419  23.695  0.00  0.00    -0.271 NA
ATOM     24  C   UNL     1       1.031   0.822  23.575  0.00  0.00    +0.072 C 
ATOM     25  C   UNL     1       1.526   0.337  23.127  0.00  0.00    +0.019 C 
ATOM     26  C   UNL     1       1.122  -0.364  22.970  0.00  0.00    +0.019 C 
ATOM     27  C   UNL     1       0.377  -0.314  23.321  0.00  0.00    +0.072 C 
ENDBRANCH  22  23
ENDBRANCH  21  22
ENDBRANCH  20  21
ENDBRANCH   7  18
BRANCH   5   4
ATOM      4  C   UNL     1      -3.150   4.002  25.171  0.00  0.00    +0.022 C 
BRANCH   4   2
ATOM      1  C   UNL     1      -2.083   3.828  26.105  0.00  0.00    +0.000 C 
ATOM      2  C   UNL     1      -2.375   4.159  25.409  0.00  0.00    +0.002 C 
ATOM      3  C   UNL     1      -1.893   4.646  24.949  0.00  0.00    +0.000 C 
ENDBRANCH   4   2
ENDBRANCH   5   4
TORSDOF 6
ENDMDL
