MODEL 1
REMARK VINA RESULT:     -13.9      0.000      0.000
REMARK  Name = 
REMARK  2 active torsions:
REMARK  status: ('A' for Active; 'I' for Inactive)
REMARK    1  A    between atoms: C_2  and  C_4
REMARK    2  A    between atoms: C_18  and  C_21
REMARK                            x       y       z     vdW  Elec       q    Type
REMARK                         _______ _______ _______ _____ _____    ______ ____
ROOT
ATOM      4  C   UNL     1      -1.127   4.346  25.026  0.00  0.00    +0.306 C 
ATOM      5  O   UNL     1      -0.308   4.432  24.977  0.00  0.00    -0.265 OA
ATOM      6  N   UNL     1      -1.468   3.598  24.965  0.00  0.00    -0.268 N 
ATOM      7  C   UNL     1      -0.991   2.934  24.855  0.00  0.00    +0.115 C 
ATOM      8  C   UNL     1      -1.331   2.185  24.794  0.00  0.00    +0.116 C 
ATOM      9  N   UNL     1      -2.151   2.100  24.843  0.00  0.00    -0.266 N 
ATOM     10  C   UNL     1      -2.629   2.764  24.953  0.00  0.00    +0.174 C 
ATOM     11  C   UNL     1      -2.288   3.512  25.014  0.00  0.00    +0.123 C 
ATOM     12  C   UNL     1      -3.451   2.801  25.016  0.00  0.00    +0.265 C 
ATOM     13  O   UNL     1      -3.767   3.555  25.125  0.00  0.00    -0.271 OA
ATOM     14  N   UNL     1      -3.998   2.184  24.985  0.00  0.00    -0.178 NA
ATOM     15  C   UNL     1      -3.857   1.377  24.883  0.00  0.00    +0.078 A 
ATOM     16  C   UNL     1      -3.137   0.988  24.787  0.00  0.00    +0.069 A 
ATOM     17  C   UNL     1      -3.118   0.169  24.692  0.00  0.00    +0.006 A 
ATOM     18  C   UNL     1      -3.823  -0.261  24.693  0.00  0.00    +0.000 A 
ATOM     19  C   UNL     1      -4.544   0.128  24.790  0.00  0.00    +0.001 A 
ATOM     20  C   UNL     1      -4.562   0.946  24.884  0.00  0.00    +0.017 A 
ATOM     28  C   UNL     1      -2.377   1.311  24.769  0.00  0.00    +0.251 C 
ATOM     29  O   UNL     1      -1.762   0.771  24.663  0.00  0.00    -0.270 OA
ENDROOT
BRANCH  18  21
ATOM     21  C   UNL     1      -3.806  -1.081  24.599  0.00  0.00    +0.000 A 
ATOM     22  C   UNL     1      -4.101  -1.423  23.909  0.00  0.00    +0.001 A 
ATOM     23  C   UNL     1      -4.084  -2.242  23.814  0.00  0.00    +0.011 A 
ATOM     24  C   UNL     1      -3.771  -2.720  24.411  0.00  0.00    +0.058 A 
ATOM     25 CL   UNL     1      -3.753  -3.539  24.316  0.00  0.00    -0.082 Cl
ATOM     26  C   UNL     1      -3.475  -2.378  25.100  0.00  0.00    +0.011 A 
ATOM     27  C   UNL     1      -3.492  -1.558  25.195  0.00  0.00    +0.001 A 
ENDBRANCH  18  21
BRANCH   4   2
ATOM      1  N   UNL     1      -1.753   5.521  24.506  0.00  0.00    -0.080 NA
ATOM      2  C   UNL     1      -1.606   5.010  25.136  0.00  0.00    +0.338 C 
ATOM      3  O   UNL     1      -1.935   5.162  25.876  0.00  0.00    -0.262 OA
ENDBRANCH   4   2
TORSDOF 2
ENDMDL
MODEL 2
REMARK VINA RESULT:     -13.6      2.621      5.585
REMARK  Name = 
REMARK  2 active torsions:
REMARK  status: ('A' for Active; 'I' for Inactive)
REMARK    1  A    between atoms: C_2  and  C_4
REMARK    2  A    between atoms: C_18  and  C_21
REMARK                            x       y       z     vdW  Elec       q    Type
REMARK                         _______ _______ _______ _____ _____    ______ ____
ROOT
ATOM      4  C   UNL     1      -3.800  -1.918  24.279  0.00  0.00    +0.306 C 
ATOM      5  O   UNL     1      -4.516  -2.009  23.880  0.00  0.00    -0.265 OA
ATOM      6  N   UNL     1      -3.484  -1.165  24.394  0.00  0.00    -0.268 N 
ATOM      7  C   UNL     1      -3.884  -0.502  24.109  0.00  0.00    +0.115 C 
ATOM      8  C   UNL     1      -3.569   0.252  24.223  0.00  0.00    +0.116 C 
ATOM      9  N   UNL     1      -2.853   0.343  24.623  0.00  0.00    -0.266 N 
ATOM     10  C   UNL     1      -2.453  -0.320  24.908  0.00  0.00    +0.174 C 
ATOM     11  C   UNL     1      -2.768  -1.073  24.794  0.00  0.00    +0.123 C 
ATOM     12  C   UNL     1      -1.737  -0.351  25.318  0.00  0.00    +0.265 C 
ATOM     13  O   UNL     1      -1.480  -1.106  25.530  0.00  0.00    -0.271 OA
ATOM     14  N   UNL     1      -1.246   0.271  25.544  0.00  0.00    -0.178 NA
ATOM     15  C   UNL     1      -1.348   1.080  25.416  0.00  0.00    +0.078 A 
ATOM     16  C   UNL     1      -1.967   1.465  25.030  0.00  0.00    +0.069 A 
ATOM     17  C   UNL     1      -1.963   2.287  24.961  0.00  0.00    +0.006 A 
ATOM     18  C   UNL     1      -1.338   2.724  25.279  0.00  0.00    +0.000 A 
ATOM     19  C   UNL     1      -0.720   2.338  25.665  0.00  0.00    +0.001 A 
ATOM     20  C   UNL     1      -0.724   1.517  25.733  0.00  0.00    +0.017 A 
ATOM     28  C   UNL     1      -2.637   1.137  24.677  0.00  0.00    +0.251 C 
ATOM     29  O   UNL     1      -3.160   1.674  24.333  0.00  0.00    -0.270 OA
ENDROOT
BRANCH  18  21
ATOM     21  C   UNL     1      -1.333   3.546  25.211  0.00  0.00    +0.000 A 
ATOM     22  C   UNL     1      -0.736   3.921  24.783  0.00  0.00    +0.001 A 
ATOM     23  C   UNL     1      -0.731   4.743  24.715  0.00  0.00    +0.011 A 
ATOM     24  C   UNL     1      -1.325   5.191  25.075  0.00  0.00    +0.058 A 
ATOM     25 CL   UNL     1      -1.320   6.013  25.007  0.00  0.00    -0.082 Cl
ATOM     26  C   UNL     1      -1.922   4.816  25.503  0.00  0.00    +0.011 A 
ATOM     27  C   UNL     1      -1.927   3.994  25.571  0.00  0.00    +0.001 A 
ENDBRANCH  18  21
BRANCH   4   2
ATOM      1  N   UNL     1      -2.879  -2.991  24.074  0.00  0.00    -0.080 NA
ATOM      2  C   UNL     1      -3.399  -2.581  24.565  0.00  0.00    +0.338 C 
ATOM      3  O   UNL     1      -3.521  -2.834  25.341  0.00  0.00    -0.262 OA
ENDBRANCH   4   2
TORSDOF 2
ENDMDL
MODEL 3
REMARK VINA RESULT:     -10.1      2.490      3.967
REMARK  Name = 
REMARK  2 active torsions:
REMARK  status: ('A' for Active; 'I' for Inactive)
REMARK    1  A    between atoms: C_2  and  C_4
REMARK    2  A    between atoms: C_18  and  C_21
REMARK                            x       y       z     vdW  Elec       q    Type
REMARK                         _______ _______ _______ _____ _____    ______ ____
ROOT
ATOM      4  C   UNL     1      -5.133   2.919  25.140  0.00  0.00    +0.306 C 
ATOM      5  O   UNL     1      -5.278   3.717  24.989  0.00  0.00    -0.265 OA
ATOM      6  N   UNL     1      -4.411   2.583  24.927  0.00  0.00    -0.268 N 
ATOM      7  C   UNL     1      -3.832   3.044  24.562  0.00  0.00    +0.115 C 
ATOM      8  C   UNL     1      -3.110   2.709  24.349  0.00  0.00    +0.116 C 
ATOM      9  N   UNL     1      -2.965   1.910  24.500  0.00  0.00    -0.266 N 
ATOM     10  C   UNL     1      -3.543   1.449  24.865  0.00  0.00    +0.174 C 
ATOM     11  C   UNL     1      -4.266   1.785  25.078  0.00  0.00    +0.123 C 
ATOM     12  C   UNL     1      -3.512   0.648  25.064  0.00  0.00    +0.265 C 
ATOM     13  O   UNL     1      -4.187   0.344  25.428  0.00  0.00    -0.271 OA
ATOM     14  N   UNL     1      -2.895   0.113  24.948  0.00  0.00    -0.178 NA
ATOM     15  C   UNL     1      -2.157   0.245  24.604  0.00  0.00    +0.078 A 
ATOM     16  C   UNL     1      -1.854   0.945  24.291  0.00  0.00    +0.069 A 
ATOM     17  C   UNL     1      -1.094   0.959  23.969  0.00  0.00    +0.006 A 
ATOM     18  C   UNL     1      -0.638   0.271  23.961  0.00  0.00    +0.000 A 
ATOM     19  C   UNL     1      -0.942  -0.429  24.274  0.00  0.00    +0.001 A 
ATOM     20  C   UNL     1      -1.701  -0.442  24.596  0.00  0.00    +0.017 A 
ATOM     28  C   UNL     1      -2.214   1.687  24.245  0.00  0.00    +0.251 C 
ATOM     29  O   UNL     1      -1.761   2.283  23.897  0.00  0.00    -0.270 OA
ENDROOT
BRANCH  18  21
ATOM     21  C   UNL     1       0.122   0.284  23.640  0.00  0.00    +0.000 A 
ATOM     22  C   UNL     1       0.342  -0.280  23.079  0.00  0.00    +0.001 A 
ATOM     23  C   UNL     1       1.102  -0.267  22.758  0.00  0.00    +0.011 A 
ATOM     24  C   UNL     1       1.642   0.310  22.998  0.00  0.00    +0.058 A 
ATOM     25 CL   UNL     1       2.401   0.323  22.676  0.00  0.00    -0.082 Cl
ATOM     26  C   UNL     1       1.421   0.874  23.558  0.00  0.00    +0.011 A 
ATOM     27  C   UNL     1       0.662   0.861  23.880  0.00  0.00    +0.001 A 
ENDBRANCH  18  21
BRANCH   4   2
ATOM      1  N   UNL     1      -5.802   2.479  26.325  0.00  0.00    -0.080 NA
ATOM      2  C   UNL     1      -5.712   2.456  25.505  0.00  0.00    +0.338 C 
ATOM      3  O   UNL     1      -6.200   1.972  25.050  0.00  0.00    -0.262 OA
ENDBRANCH   4   2
TORSDOF 2
ENDMDL
MODEL 4
REMARK VINA RESULT:     -10.1      2.740      4.024
REMARK  Name = 
REMARK  2 active torsions:
REMARK  status: ('A' for Active; 'I' for Inactive)
REMARK    1  A    between atoms: C_2  and  C_4
REMARK    2  A    between atoms: C_18  and  C_21
REMARK                            x       y       z     vdW  Elec       q    Type
REMARK                         _______ _______ _______ _____ _____    ______ ____
ROOT
ATOM      4  C   UNL     1       0.560  -0.343  23.684  0.00  0.00    +0.306 C 
ATOM      5  O   UNL     1       0.831  -1.030  24.051  0.00  0.00    -0.265 OA
ATOM      6  N   UNL     1      -0.172  -0.025  23.892  0.00  0.00    -0.268 N 
ATOM      7  C   UNL     1      -0.634  -0.394  24.467  0.00  0.00    +0.115 C 
ATOM      8  C   UNL     1      -1.366  -0.076  24.676  0.00  0.00    +0.116 C 
ATOM      9  N   UNL     1      -1.636   0.612  24.308  0.00  0.00    -0.266 N 
ATOM     10  C   UNL     1      -1.174   0.980  23.732  0.00  0.00    +0.174 C 
ATOM     11  C   UNL     1      -0.442   0.663  23.524  0.00  0.00    +0.123 C 
ATOM     12  C   UNL     1      -1.340   1.665  23.302  0.00  0.00    +0.265 C 
ATOM     13  O   UNL     1      -0.761   1.895  22.761  0.00  0.00    -0.271 OA
ATOM     14  N   UNL     1      -2.007   2.149  23.340  0.00  0.00    -0.178 NA
ATOM     15  C   UNL     1      -2.674   2.068  23.818  0.00  0.00    +0.078 A 
ATOM     16  C   UNL     1      -2.839   1.484  24.377  0.00  0.00    +0.069 A 
ATOM     17  C   UNL     1      -3.546   1.504  24.801  0.00  0.00    +0.006 A 
ATOM     18  C   UNL     1      -4.089   2.112  24.665  0.00  0.00    +0.000 A 
ATOM     19  C   UNL     1      -3.924   2.696  24.107  0.00  0.00    +0.001 A 
ATOM     20  C   UNL     1      -3.217   2.674  23.684  0.00  0.00    +0.017 A 
ATOM     28  C   UNL     1      -2.377   0.835  24.594  0.00  0.00    +0.251 C 
ATOM     29  O   UNL     1      -2.698   0.346  25.176  0.00  0.00    -0.270 OA
ENDROOT
BRANCH  18  21
ATOM     21  C   UNL     1      -4.797   2.134  25.089  0.00  0.00    +0.000 A 
ATOM     22  C   UNL     1      -5.399   1.599  24.914  0.00  0.00    +0.001 A 
ATOM     23  C   UNL     1      -6.107   1.621  25.337  0.00  0.00    +0.011 A 
ATOM     24  C   UNL     1      -6.212   2.179  25.937  0.00  0.00    +0.058 A 
ATOM     25 CL   UNL     1      -6.920   2.201  26.360  0.00  0.00    -0.082 Cl
ATOM     26  C   UNL     1      -5.610   2.714  26.112  0.00  0.00    +0.011 A 
ATOM     27  C   UNL     1      -4.902   2.692  25.688  0.00  0.00    +0.001 A 
ENDBRANCH  18  21
BRANCH   4   2
ATOM      1  N   UNL     1       1.002  -0.241  22.328  0.00  0.00    -0.080 NA
ATOM      2  C   UNL     1       1.023   0.027  23.108  0.00  0.00    +0.338 C 
ATOM      3  O   UNL     1       1.505   0.664  23.313  0.00  0.00    -0.262 OA
ENDBRANCH   4   2
TORSDOF 2
ENDMDL
MODEL 5
REMARK VINA RESULT:     -10.0      1.089      1.862
REMARK  Name = 
REMARK  2 active torsions:
REMARK  status: ('A' for Active; 'I' for Inactive)
REMARK    1  A    between atoms: C_2  and  C_4
REMARK    2  A    between atoms: C_18  and  C_21
REMARK                            x       y       z     vdW  Elec       q    Type
REMARK                         _______ _______ _______ _____ _____    ______ ____
ROOT
ATOM      4  C   UNL     1      -3.226   4.212  25.513  0.00  0.00    +0.306 C 
ATOM      5  O   UNL     1      -3.928   4.627  25.638  0.00  0.00    -0.265 OA
ATOM      6  N   UNL     1      -3.248   3.401  25.362  0.00  0.00    -0.268 N 
ATOM      7  C   UNL     1      -3.971   3.006  25.335  0.00  0.00    +0.115 C 
ATOM      8  C   UNL     1      -3.993   2.195  25.183  0.00  0.00    +0.116 C 
ATOM      9  N   UNL     1      -3.291   1.780  25.058  0.00  0.00    -0.266 N 
ATOM     10  C   UNL     1      -2.568   2.176  25.085  0.00  0.00    +0.174 C 
ATOM     11  C   UNL     1      -2.546   2.986  25.237  0.00  0.00    +0.123 C 
ATOM     12  C   UNL     1      -1.809   1.868  24.977  0.00  0.00    +0.265 C 
ATOM     13  O   UNL     1      -1.191   2.411  25.039  0.00  0.00    -0.271 OA
ATOM     14  N   UNL     1      -1.587   1.090  24.816  0.00  0.00    -0.178 NA
ATOM     15  C   UNL     1      -2.069   0.427  24.722  0.00  0.00    +0.078 A 
ATOM     16  C   UNL     1      -2.891   0.377  24.767  0.00  0.00    +0.069 A 
ATOM     17  C   UNL     1      -3.269  -0.347  24.655  0.00  0.00    +0.006 A 
ATOM     18  C   UNL     1      -2.822  -1.024  24.498  0.00  0.00    +0.000 A 
ATOM     19  C   UNL     1      -2.000  -0.974  24.453  0.00  0.00    +0.001 A 
ATOM     20  C   UNL     1      -1.623  -0.250  24.565  0.00  0.00    +0.017 A 
ATOM     28  C   UNL     1      -3.435   0.980  24.917  0.00  0.00    +0.251 C 
ATOM     29  O   UNL     1      -4.228   0.752  24.926  0.00  0.00    -0.270 OA
ENDROOT
BRANCH  18  21
ATOM     21  C   UNL     1      -3.198  -1.750  24.386  0.00  0.00    +0.000 A 
ATOM     22  C   UNL     1      -3.768  -1.832  23.796  0.00  0.00    +0.001 A 
ATOM     23  C   UNL     1      -4.145  -2.558  23.684  0.00  0.00    +0.011 A 
ATOM     24  C   UNL     1      -3.951  -3.201  24.163  0.00  0.00    +0.058 A 
ATOM     25 CL   UNL     1      -4.327  -3.927  24.051  0.00  0.00    -0.082 Cl
ATOM     26  C   UNL     1      -3.381  -3.119  24.753  0.00  0.00    +0.011 A 
ATOM     27  C   UNL     1      -3.004  -2.393  24.865  0.00  0.00    +0.001 A 
ENDBRANCH  18  21
BRANCH   4   2
ATOM      1  N   UNL     1      -2.128   4.736  26.264  0.00  0.00    -0.080 NA
ATOM      2  C   UNL     1      -2.502   4.608  25.540  0.00  0.00    +0.338 C 
ATOM      3  O   UNL     1      -2.152   4.875  24.842  0.00  0.00    -0.262 OA
ENDBRANCH   4   2
TORSDOF 2
ENDMDL
