MODEL 1
REMARK VINA RESULT:      -9.1      0.000      0.000
REMARK  Name = 
REMARK  7 active torsions:
REMARK  status: ('A' for Active; 'I' for Inactive)
REMARK    1  A    between atoms: O_2  and  C_3
REMARK    2  A    between atoms: C_3  and  C_4
REMARK    3  A    between atoms: N_6  and  C_7
REMARK    4  A    between atoms: C_7  and  C_8
REMARK    5  A    between atoms: C_15  and  C_16
REMARK    6  A    between atoms: C_18  and  C_22
REMARK    7  A    between atoms: C_25  and  O_26
REMARK                            x       y       z     vdW  Elec       q    Type
REMARK                         _______ _______ _______ _____ _____    ______ ____
ROOT
ATOM      8  C   UNL     1       0.956   0.626  23.410  0.00  0.00    +0.079 C 
ATOM      9  C   UNL     1       0.566   1.147  23.837  0.00  0.00    +0.018 C 
ATOM     10  C   UNL     1      -0.163   1.033  24.170  0.00  0.00    +0.010 C 
ATOM     11  C   UNL     1      -0.440   1.755  24.624  0.00  0.00    +0.018 C 
ATOM     12  C   UNL     1      -0.028   1.404  24.258  0.00  0.00    +0.072 C 
ATOM     13  N   UNL     1       0.213   0.517  23.753  0.00  0.00    -0.272 NA
ATOM     14  C   UNL     1      -0.362  -0.191  23.751  0.00  0.00    +0.078 C 
ATOM     15  C   UNL     1      -0.711   0.347  24.164  0.00  0.00    +0.056 C 
ENDROOT
BRANCH  15  16
ATOM     16  C   UNL     1      -1.450   0.295  24.529  0.00  0.00    +0.058 A 
ATOM     17  C   UNL     1      -2.118   0.739  24.335  0.00  0.00    +0.035 A 
ATOM     18  C   UNL     1      -2.730   0.509  24.837  0.00  0.00    +0.102 A 
ATOM     19  N   UNL     1      -2.442  -0.076  25.341  0.00  0.00    -0.170 NA
ATOM     20  N   UNL     1      -1.649  -0.209  25.151  0.00  0.00    -0.253 N 
ATOM     21  C   UNL     1      -1.145  -0.749  25.517  0.00  0.00    +0.153 C 
BRANCH  18  22
ATOM     22  C   UNL     1      -3.498   0.811  24.836  0.00  0.00    +0.020 A 
ATOM     23  C   UNL     1      -4.144   0.298  24.870  0.00  0.00    +0.005 A 
ATOM     24  C   UNL     1      -4.911   0.600  24.869  0.00  0.00    +0.037 A 
ATOM     25  C   UNL     1      -5.035   1.415  24.834  0.00  0.00    +0.139 A 
ATOM     28  C   UNL     1      -4.389   1.928  24.800  0.00  0.00    +0.037 A 
ATOM     29  C   UNL     1      -3.621   1.626  24.801  0.00  0.00    +0.005 A 
BRANCH  25  26
ATOM     26  O   UNL     1      -5.803   1.716  24.833  0.00  0.00    -0.471 OA
ATOM     27  C   UNL     1      -6.099   2.091  25.505  0.00  0.00    +0.252 C 
ENDBRANCH  25  26
ENDBRANCH  18  22
ENDBRANCH  15  16
BRANCH   8   7
ATOM      7  C   UNL     1       1.604   0.378  22.965  0.00  0.00    +0.131 C 
BRANCH   7   6
ATOM      4  C   UNL     1       2.998   0.454  22.662  0.00  0.00    +0.272 C 
ATOM      5  O   UNL     1       2.882  -0.028  22.003  0.00  0.00    -0.271 OA
ATOM      6  N   UNL     1       2.359   0.657  23.144  0.00  0.00    -0.202 NA
BRANCH   4   3
ATOM      3  C   UNL     1       3.753   0.733  22.841  0.00  0.00    +0.229 C 
BRANCH   3   2
ATOM      1  C   UNL     1       5.069   0.401  23.287  0.00  0.00    +0.175 C 
ATOM      2  O   UNL     1       4.393   0.213  22.853  0.00  0.00    -0.342 OA
ENDBRANCH   3   2
ENDBRANCH   4   3
ENDBRANCH   7   6
ENDBRANCH   8   7
TORSDOF 7
ENDMDL
MODEL 2
REMARK VINA RESULT:      -9.1      0.756      1.102
REMARK  Name = 
REMARK  7 active torsions:
REMARK  status: ('A' for Active; 'I' for Inactive)
REMARK    1  A    between atoms: O_2  and  C_3
REMARK    2  A    between atoms: C_3  and  C_4
REMARK    3  A    between atoms: N_6  and  C_7
REMARK    4  A    between atoms: C_7  and  C_8
REMARK    5  A    between atoms: C_15  and  C_16
REMARK    6  A    between atoms: C_18  and  C_22
REMARK    7  A    between atoms: C_25  and  O_26
REMARK                            x       y       z     vdW  Elec       q    Type
REMARK                         _______ _______ _______ _____ _____    ______ ____
ROOT
ATOM      8  C   UNL     1       1.005   0.109  23.146  0.00  0.00    +0.079 C 
ATOM      9  C   UNL     1       0.443  -0.284  23.515  0.00  0.00    +0.018 C 
ATOM     10  C   UNL     1      -0.188   0.045  23.899  0.00  0.00    +0.010 C 
ATOM     11  C   UNL     1      -0.722  -0.578  24.260  0.00  0.00    +0.018 C 
ATOM     12  C   UNL     1      -0.206  -0.358  23.926  0.00  0.00    +0.072 C 
ATOM     13  N   UNL     1       0.358   0.437  23.540  0.00  0.00    -0.272 NA
ATOM     14  C   UNL     1       0.097   1.302  23.669  0.00  0.00    +0.078 C 
ATOM     15  C   UNL     1      -0.434   0.879  24.020  0.00  0.00    +0.056 C 
ENDROOT
BRANCH  15  16
ATOM     16  C   UNL     1      -1.098   1.150  24.428  0.00  0.00    +0.058 A 
ATOM     17  C   UNL     1      -1.882   1.067  24.186  0.00  0.00    +0.035 A 
ATOM     18  C   UNL     1      -2.363   1.417  24.756  0.00  0.00    +0.102 A 
ATOM     19  N   UNL     1      -1.877   1.717  25.351  0.00  0.00    -0.170 NA
ATOM     20  N   UNL     1      -1.094   1.552  25.148  0.00  0.00    -0.253 N 
ATOM     21  C   UNL     1      -0.426   1.754  25.588  0.00  0.00    +0.153 C 
BRANCH  18  22
ATOM     22  C   UNL     1      -3.187   1.460  24.737  0.00  0.00    +0.020 A 
ATOM     23  C   UNL     1      -3.640   0.826  25.011  0.00  0.00    +0.005 A 
ATOM     24  C   UNL     1      -4.464   0.869  24.992  0.00  0.00    +0.037 A 
ATOM     25  C   UNL     1      -4.835   1.545  24.698  0.00  0.00    +0.139 A 
ATOM     28  C   UNL     1      -4.382   2.178  24.424  0.00  0.00    +0.037 A 
ATOM     29  C   UNL     1      -3.558   2.135  24.443  0.00  0.00    +0.005 A 
BRANCH  25  26
ATOM     26  O   UNL     1      -5.659   1.587  24.679  0.00  0.00    -0.471 OA
ATOM     27  C   UNL     1      -6.067   1.954  25.295  0.00  0.00    +0.252 C 
ENDBRANCH  25  26
ENDBRANCH  18  22
ENDBRANCH  15  16
BRANCH   8   7
ATOM      7  C   UNL     1       1.700   0.159  22.706  0.00  0.00    +0.131 C 
BRANCH   7   6
ATOM      4  C   UNL     1       3.128   0.134  22.665  0.00  0.00    +0.272 C 
ATOM      5  O   UNL     1       3.115   0.528  21.941  0.00  0.00    -0.271 OA
ATOM      6  N   UNL     1       2.421  -0.051  23.048  0.00  0.00    -0.202 NA
BRANCH   4   3
ATOM      3  C   UNL     1       3.849  -0.077  23.007  0.00  0.00    +0.229 C 
BRANCH   3   2
ATOM      1  C   UNL     1       5.198   0.249  23.345  0.00  0.00    +0.175 C 
ATOM      2  O   UNL     1       4.492   0.438  22.963  0.00  0.00    -0.342 OA
ENDBRANCH   3   2
ENDBRANCH   4   3
ENDBRANCH   7   6
ENDBRANCH   8   7
TORSDOF 7
ENDMDL
MODEL 3
REMARK VINA RESULT:      -7.5      1.355      6.335
REMARK  Name = 
REMARK  7 active torsions:
REMARK  status: ('A' for Active; 'I' for Inactive)
REMARK    1  A    between atoms: O_2  and  C_3
REMARK    2  A    between atoms: C_3  and  C_4
REMARK    3  A    between atoms: N_6  and  C_7
REMARK    4  A    between atoms: C_7  and  C_8
REMARK    5  A    between atoms: C_15  and  C_16
REMARK    6  A    between atoms: C_18  and  C_22
REMARK    7  A    between atoms: C_25  and  O_26
REMARK                            x       y       z     vdW  Elec       q    Type
REMARK                         _______ _______ _______ _____ _____    ______ ____
ROOT
ATOM      8  C   UNL     1      -3.308   2.589  24.266  0.00  0.00    +0.079 C 
ATOM      9  C   UNL     1      -2.982   2.302  23.620  0.00  0.00    +0.018 C 
ATOM     10  C   UNL     1      -2.338   1.812  23.594  0.00  0.00    +0.010 C 
ATOM     11  C   UNL     1      -2.118   1.593  22.753  0.00  0.00    +0.018 C 
ATOM     12  C   UNL     1      -2.469   1.888  23.219  0.00  0.00    +0.072 C 
ATOM     13  N   UNL     1      -2.652   2.090  24.231  0.00  0.00    -0.272 NA
ATOM     14  C   UNL     1      -2.124   1.730  24.883  0.00  0.00    +0.078 C 
ATOM     15  C   UNL     1      -1.835   1.470  24.226  0.00  0.00    +0.056 C 
ENDROOT
BRANCH  15  16
ATOM     16  C   UNL     1      -1.184   0.970  24.131  0.00  0.00    +0.058 A 
ATOM     17  C   UNL     1      -0.503   1.140  23.699  0.00  0.00    +0.035 A 
ATOM     18  C   UNL     1       0.001   0.490  23.751  0.00  0.00    +0.102 A 
ATOM     19  N   UNL     1      -0.369  -0.083  24.216  0.00  0.00    -0.170 NA
ATOM     20  N   UNL     1      -1.103   0.214  24.450  0.00  0.00    -0.253 N 
ATOM     21  C   UNL     1      -1.657  -0.175  24.922  0.00  0.00    +0.153 C 
BRANCH  18  22
ATOM     22  C   UNL     1       0.745   0.422  23.401  0.00  0.00    +0.020 A 
ATOM     23  C   UNL     1       1.344   0.954  23.600  0.00  0.00    +0.005 A 
ATOM     24  C   UNL     1       2.088   0.886  23.250  0.00  0.00    +0.037 A 
ATOM     25  C   UNL     1       2.234   0.287  22.701  0.00  0.00    +0.139 A 
ATOM     28  C   UNL     1       1.634  -0.245  22.503  0.00  0.00    +0.037 A 
ATOM     29  C   UNL     1       0.890  -0.177  22.853  0.00  0.00    +0.005 A 
BRANCH  25  26
ATOM     26  O   UNL     1       2.978   0.220  22.352  0.00  0.00    -0.471 OA
ATOM     27  C   UNL     1       3.621   0.627  22.670  0.00  0.00    +0.252 C 
ENDBRANCH  25  26
ENDBRANCH  18  22
ENDBRANCH  15  16
BRANCH   8   7
ATOM      7  C   UNL     1      -3.869   3.040  24.669  0.00  0.00    +0.131 C 
BRANCH   7   6
ATOM      4  C   UNL     1      -5.089   3.097  25.410  0.00  0.00    +0.272 C 
ATOM      5  O   UNL     1      -4.861   3.822  25.729  0.00  0.00    -0.271 OA
ATOM      6  N   UNL     1      -4.593   2.705  24.880  0.00  0.00    -0.202 NA
BRANCH   4   3
ATOM      3  C   UNL     1      -5.813   2.762  25.622  0.00  0.00    +0.229 C 
BRANCH   3   2
ATOM      1  C   UNL     1      -6.533   1.965  26.563  0.00  0.00    +0.175 C 
ATOM      2  O   UNL     1      -5.943   2.517  26.398  0.00  0.00    -0.342 OA
ENDBRANCH   3   2
ENDBRANCH   4   3
ENDBRANCH   7   6
ENDBRANCH   8   7
TORSDOF 7
ENDMDL
