MODEL 1
REMARK VINA RESULT:     -12.3      0.000      0.000
REMARK  Name = 
REMARK  8 active torsions:
REMARK  status: ('A' for Active; 'I' for Inactive)
REMARK    1  A    between atoms: C_2  and  C_5
REMARK    2  A    between atoms: C_9  and  N_10
REMARK    3  A    between atoms: C_11  and  O_13
REMARK    4  A    between atoms: O_13  and  C_14
REMARK    5  A    between atoms: C_18  and  N_22
REMARK    6  A    between atoms: C_26  and  S_27
REMARK    7  A    between atoms: S_27  and  C_28
REMARK    8  A    between atoms: C_28  and  C_29
REMARK                            x       y       z     vdW  Elec       q    Type
REMARK                         _______ _______ _______ _____ _____    ______ ____
ROOT
ATOM     14  C   UNL     1      -0.519   1.008  24.811  0.00  0.00    +0.229 C 
ATOM     15  C   UNL     1      -0.575   1.317  24.049  0.00  0.00    +0.188 C 
ATOM     16  O   UNL     1      -0.727   2.125  24.113  0.00  0.00    -0.348 OA
ATOM     17  C   UNL     1      -0.765   2.315  24.914  0.00  0.00    +0.171 C 
ATOM     18  C   UNL     1      -0.883   2.932  25.449  0.00  0.00    +0.168 C 
ATOM     19  C   UNL     1      -0.827   2.622  26.212  0.00  0.00    +0.169 C 
ATOM     20  O   UNL     1      -0.674   1.814  26.148  0.00  0.00    -0.348 OA
ATOM     21  C   UNL     1      -0.636   1.624  25.345  0.00  0.00    +0.187 C 
ENDROOT
BRANCH  18  22
ATOM     22  N   UNL     1      -1.030   3.720  25.256  0.00  0.00    -0.205 N 
ATOM     23  N   UNL     1      -0.466   4.279  25.031  0.00  0.00    -0.042 NA
ATOM     24  N   UNL     1      -0.855   4.992  24.890  0.00  0.00    -0.022 NA
ATOM     25  N   UNL     1      -1.659   4.874  25.026  0.00  0.00    -0.101 NA
ATOM     26  C   UNL     1      -1.768   4.089  25.253  0.00  0.00    +0.211 A 
BRANCH  26  27
ATOM     27  S   UNL     1      -2.488   3.733  25.442  0.00  0.00    -0.066 S 
BRANCH  27  28
ATOM     28  C   UNL     1      -3.197   4.080  25.198  0.00  0.00    +0.129 C 
BRANCH  28  29
ATOM     29  C   UNL     1      -3.907   3.670  25.284  0.00  0.00    +0.134 A 
ATOM     30  C   UNL     1      -4.307   3.264  24.687  0.00  0.00    +0.037 A 
ATOM     31  C   UNL     1      -4.990   2.937  25.017  0.00  0.00    +0.043 A 
ATOM     32  C   UNL     1      -5.012   3.141  25.815  0.00  0.00    +0.179 A 
ATOM     33  O   UNL     1      -4.342   3.594  25.980  0.00  0.00    -0.454 OA
ENDBRANCH  28  29
ENDBRANCH  27  28
ENDBRANCH  26  27
ENDBRANCH  18  22
BRANCH  14  13
ATOM     13  O   UNL     1      -0.371   0.219  25.005  0.00  0.00    -0.432 OA
BRANCH  13  11
ATOM     10  N   UNL     1      -1.401  -0.752  25.202  0.00  0.00    -0.142 NA
ATOM     11  C   UNL     1      -0.858  -0.377  24.707  0.00  0.00    +0.425 C 
ATOM     12  O   UNL     1      -0.800  -0.599  23.914  0.00  0.00    -0.224 OA
BRANCH  10   9
ATOM      5  C   UNL     1      -3.171  -1.791  24.458  0.00  0.00    +0.073 A 
ATOM      6  C   UNL     1      -2.860  -2.541  24.310  0.00  0.00    +0.004 A 
ATOM      7  C   UNL     1      -2.063  -2.695  24.459  0.00  0.00    +0.001 A 
ATOM      8  C   UNL     1      -1.577  -2.098  24.756  0.00  0.00    +0.017 A 
ATOM      9  C   UNL     1      -1.888  -1.348  24.904  0.00  0.00    +0.077 A 
ATOM     34  C   UNL     1      -2.684  -1.195  24.755  0.00  0.00    +0.021 A 
BRANCH   5   2
ATOM      1  F   UNL     1      -4.764  -1.485  24.160  0.00  0.00    -0.166 F 
ATOM      2  C   UNL     1      -3.967  -1.638  24.309  0.00  0.00    +0.419 C 
ATOM      3  F   UNL     1      -4.144  -1.792  25.099  0.00  0.00    -0.166 F 
ATOM      4  F   UNL     1      -3.791  -1.484  23.518  0.00  0.00    -0.166 F 
ENDBRANCH   5   2
ENDBRANCH  10   9
ENDBRANCH  13  11
ENDBRANCH  14  13
TORSDOF 8
ENDMDL
MODEL 2
REMARK VINA RESULT:     -11.3      1.988      4.638
REMARK  Name = 
REMARK  8 active torsions:
REMARK  status: ('A' for Active; 'I' for Inactive)
REMARK    1  A    between atoms: C_2  and  C_5
REMARK    2  A    between atoms: C_9  and  N_10
REMARK    3  A    between atoms: C_11  and  O_13
REMARK    4  A    between atoms: O_13  and  C_14
REMARK    5  A    between atoms: C_18  and  N_22
REMARK    6  A    between atoms: C_26  and  S_27
REMARK    7  A    between atoms: S_27  and  C_28
REMARK    8  A    between atoms: C_28  and  C_29
REMARK                            x       y       z     vdW  Elec       q    Type
REMARK                         _______ _______ _______ _____ _____    ______ ____
ROOT
ATOM     14  C   UNL     1      -1.833   2.582  24.436  0.00  0.00    +0.229 C 
ATOM     15  C   UNL     1      -1.888   2.399  23.634  0.00  0.00    +0.188 C 
ATOM     16  O   UNL     1      -1.444   1.718  23.497  0.00  0.00    -0.348 OA
ATOM     17  C   UNL     1      -1.113   1.480  24.214  0.00  0.00    +0.171 C 
ATOM     18  C   UNL     1      -0.635   0.913  24.574  0.00  0.00    +0.168 C 
ATOM     19  C   UNL     1      -0.579   1.096  25.376  0.00  0.00    +0.169 C 
ATOM     20  O   UNL     1      -1.024   1.777  25.513  0.00  0.00    -0.348 OA
ATOM     21  C   UNL     1      -1.354   2.015  24.794  0.00  0.00    +0.187 C 
ENDROOT
BRANCH  18  22
ATOM     22  N   UNL     1      -0.274   0.273  24.197  0.00  0.00    -0.205 N 
ATOM     23  N   UNL     1       0.394   0.309  23.713  0.00  0.00    -0.042 NA
ATOM     24  N   UNL     1       0.562  -0.456  23.455  0.00  0.00    -0.022 NA
ATOM     25  N   UNL     1      -0.001  -0.964  23.778  0.00  0.00    -0.101 NA
ATOM     26  C   UNL     1      -0.518  -0.513  24.237  0.00  0.00    +0.211 A 
BRANCH  26  27
ATOM     27  S   UNL     1      -1.165  -0.800  24.661  0.00  0.00    -0.066 S 
BRANCH  27  28
ATOM     28  C   UNL     1      -1.389  -1.591  24.589  0.00  0.00    +0.129 C 
BRANCH  28  29
ATOM     29  C   UNL     1      -2.147  -1.826  24.810  0.00  0.00    +0.134 A 
ATOM     30  C   UNL     1      -2.605  -2.403  24.437  0.00  0.00    +0.037 A 
ATOM     31  C   UNL     1      -3.322  -2.459  24.841  0.00  0.00    +0.043 A 
ATOM     32  C   UNL     1      -3.309  -1.919  25.463  0.00  0.00    +0.179 A 
ATOM     33  O   UNL     1      -2.582  -1.527  25.445  0.00  0.00    -0.454 OA
ENDBRANCH  28  29
ENDBRANCH  27  28
ENDBRANCH  26  27
ENDBRANCH  18  22
BRANCH  14  13
ATOM     13  O   UNL     1      -2.194   3.221  24.813  0.00  0.00    -0.432 OA
BRANCH  13  11
ATOM     10  N   UNL     1      -3.452   3.138  25.484  0.00  0.00    -0.142 NA
ATOM     11  C   UNL     1      -3.015   3.297  24.803  0.00  0.00    +0.425 C 
ATOM     12  O   UNL     1      -3.399   3.531  24.111  0.00  0.00    -0.224 OA
BRANCH  10   9
ATOM      5  C   UNL     1      -5.570   2.621  25.373  0.00  0.00    +0.073 A 
ATOM      6  C   UNL     1      -5.917   3.365  25.455  0.00  0.00    +0.004 A 
ATOM      7  C   UNL     1      -5.442   4.034  25.546  0.00  0.00    +0.001 A 
ATOM      8  C   UNL     1      -4.621   3.957  25.556  0.00  0.00    +0.017 A 
ATOM      9  C   UNL     1      -4.274   3.213  25.474  0.00  0.00    +0.077 A 
ATOM     34  C   UNL     1      -4.749   2.545  25.383  0.00  0.00    +0.021 A 
BRANCH   5   2
ATOM      1  F   UNL     1      -6.520   1.284  25.191  0.00  0.00    -0.166 F 
ATOM      2  C   UNL     1      -6.045   1.953  25.282  0.00  0.00    +0.419 C 
ATOM      3  F   UNL     1      -6.040   2.061  24.465  0.00  0.00    -0.166 F 
ATOM      4  F   UNL     1      -6.051   1.844  26.100  0.00  0.00    -0.166 F 
ENDBRANCH   5   2
ENDBRANCH  10   9
ENDBRANCH  13  11
ENDBRANCH  14  13
TORSDOF 8
ENDMDL
MODEL 3
REMARK VINA RESULT:     -11.0      2.272      3.406
REMARK  Name = 
REMARK  8 active torsions:
REMARK  status: ('A' for Active; 'I' for Inactive)
REMARK    1  A    between atoms: C_2  and  C_5
REMARK    2  A    between atoms: C_9  and  N_10
REMARK    3  A    between atoms: C_11  and  O_13
REMARK    4  A    between atoms: O_13  and  C_14
REMARK    5  A    between atoms: C_18  and  N_22
REMARK    6  A    between atoms: C_26  and  S_27
REMARK    7  A    between atoms: S_27  and  C_28
REMARK    8  A    between atoms: C_28  and  C_29
REMARK                            x       y       z     vdW  Elec       q    Type
REMARK                         _______ _______ _______ _____ _____    ______ ____
ROOT
ATOM     14  C   UNL     1      -4.652   0.430  24.708  0.00  0.00    +0.229 C 
ATOM     15  C   UNL     1      -4.954   0.467  25.475  0.00  0.00    +0.188 C 
ATOM     16  O   UNL     1      -5.015   1.262  25.686  0.00  0.00    -0.348 OA
ATOM     17  C   UNL     1      -4.751   1.716  25.050  0.00  0.00    +0.171 C 
ATOM     18  C   UNL     1      -4.624   2.488  24.787  0.00  0.00    +0.168 C 
ATOM     19  C   UNL     1      -4.323   2.451  24.021  0.00  0.00    +0.169 C 
ATOM     20  O   UNL     1      -4.262   1.656  23.809  0.00  0.00    -0.348 OA
ATOM     21  C   UNL     1      -4.526   1.202  24.446  0.00  0.00    +0.187 C 
ENDROOT
BRANCH  18  22
ATOM     22  N   UNL     1      -4.775   3.177  25.216  0.00  0.00    -0.205 N 
ATOM     23  N   UNL     1      -5.515   3.440  25.469  0.00  0.00    -0.042 NA
ATOM     24  N   UNL     1      -5.408   4.148  25.877  0.00  0.00    -0.022 NA
ATOM     25  N   UNL     1      -4.603   4.324  25.876  0.00  0.00    -0.101 NA
ATOM     26  C   UNL     1      -4.211   3.724  25.468  0.00  0.00    +0.211 A 
BRANCH  26  27
ATOM     27  S   UNL     1      -3.398   3.679  25.334  0.00  0.00    -0.066 S 
BRANCH  27  28
ATOM     28  C   UNL     1      -2.888   4.208  25.711  0.00  0.00    +0.129 C 
BRANCH  28  29
ATOM     29  C   UNL     1      -2.086   4.212  25.521  0.00  0.00    +0.134 A 
ATOM     30  C   UNL     1      -1.679   4.826  25.149  0.00  0.00    +0.037 A 
ATOM     31  C   UNL     1      -0.891   4.597  25.067  0.00  0.00    +0.043 A 
ATOM     32  C   UNL     1      -0.810   3.842  25.388  0.00  0.00    +0.179 A 
ATOM     33  O   UNL     1      -1.548   3.604  25.669  0.00  0.00    -0.454 OA
ENDBRANCH  28  29
ENDBRANCH  27  28
ENDBRANCH  26  27
ENDBRANCH  18  22
BRANCH  14  13
ATOM     13  O   UNL     1      -4.502  -0.259  24.279  0.00  0.00    -0.432 OA
BRANCH  13  11
ATOM     10  N   UNL     1      -3.332  -1.041  24.029  0.00  0.00    -0.142 NA
ATOM     11  C   UNL     1      -3.929  -0.791  24.540  0.00  0.00    +0.425 C 
ATOM     12  O   UNL     1      -3.953  -1.075  25.316  0.00  0.00    -0.224 OA
BRANCH  10   9
ATOM      5  C   UNL     1      -1.431  -1.839  24.745  0.00  0.00    +0.073 A 
ATOM      6  C   UNL     1      -1.614  -2.640  24.814  0.00  0.00    +0.004 A 
ATOM      7  C   UNL     1      -2.370  -2.909  24.621  0.00  0.00    +0.001 A 
ATOM      8  C   UNL     1      -2.943  -2.375  24.359  0.00  0.00    +0.017 A 
ATOM      9  C   UNL     1      -2.759  -1.574  24.290  0.00  0.00    +0.077 A 
ATOM     34  C   UNL     1      -2.004  -1.306  24.483  0.00  0.00    +0.021 A 
BRANCH   5   2
ATOM      1  F   UNL     1       0.081  -1.303  25.131  0.00  0.00    -0.166 F 
ATOM      2  C   UNL     1      -0.675  -1.571  24.938  0.00  0.00    +0.419 C 
ATOM      3  F   UNL     1      -0.844  -1.670  25.738  0.00  0.00    -0.166 F 
ATOM      4  F   UNL     1      -0.505  -1.471  24.137  0.00  0.00    -0.166 F 
ENDBRANCH   5   2
ENDBRANCH  10   9
ENDBRANCH  13  11
ENDBRANCH  14  13
TORSDOF 8
ENDMDL
MODEL 4
REMARK VINA RESULT:     -11.0      1.824      3.278
REMARK  Name = 
REMARK  8 active torsions:
REMARK  status: ('A' for Active; 'I' for Inactive)
REMARK    1  A    between atoms: C_2  and  C_5
REMARK    2  A    between atoms: C_9  and  N_10
REMARK    3  A    between atoms: C_11  and  O_13
REMARK    4  A    between atoms: O_13  and  C_14
REMARK    5  A    between atoms: C_18  and  N_22
REMARK    6  A    between atoms: C_26  and  S_27
REMARK    7  A    between atoms: S_27  and  C_28
REMARK    8  A    between atoms: C_28  and  C_29
REMARK                            x       y       z     vdW  Elec       q    Type
REMARK                         _______ _______ _______ _____ _____    ______ ____
ROOT
ATOM     14  C   UNL     1      -4.581   1.022  24.605  0.00  0.00    +0.229 C 
ATOM     15  C   UNL     1      -4.790   1.141  25.394  0.00  0.00    +0.188 C 
ATOM     16  O   UNL     1      -4.509   1.882  25.622  0.00  0.00    -0.348 OA
ATOM     17  C   UNL     1      -4.127   2.221  24.975  0.00  0.00    +0.171 C 
ATOM     18  C   UNL     1      -3.717   2.888  24.715  0.00  0.00    +0.168 C 
ATOM     19  C   UNL     1      -3.508   2.769  23.926  0.00  0.00    +0.169 C 
ATOM     20  O   UNL     1      -3.789   2.028  23.698  0.00  0.00    -0.348 OA
ATOM     21  C   UNL     1      -4.172   1.689  24.346  0.00  0.00    +0.187 C 
ENDROOT
BRANCH  18  22
ATOM     22  N   UNL     1      -3.546   3.558  25.166  0.00  0.00    -0.205 N 
ATOM     23  N   UNL     1      -4.093   4.114  25.436  0.00  0.00    -0.042 NA
ATOM     24  N   UNL     1      -3.683   4.688  25.863  0.00  0.00    -0.022 NA
ATOM     25  N   UNL     1      -2.883   4.487  25.857  0.00  0.00    -0.101 NA
ATOM     26  C   UNL     1      -2.799   3.789  25.427  0.00  0.00    +0.211 A 
BRANCH  26  27
ATOM     27  S   UNL     1      -2.090   3.391  25.282  0.00  0.00    -0.066 S 
BRANCH  27  28
ATOM     28  C   UNL     1      -1.414   3.580  25.717  0.00  0.00    +0.129 C 
BRANCH  28  29
ATOM     29  C   UNL     1      -0.751   3.092  25.681  0.00  0.00    +0.134 A 
ATOM     30  C   UNL     1      -0.427   2.666  26.309  0.00  0.00    +0.037 A 
ATOM     31  C   UNL     1       0.229   2.254  26.026  0.00  0.00    +0.043 A 
ATOM     32  C   UNL     1       0.312   2.425  25.224  0.00  0.00    +0.179 A 
ATOM     33  O   UNL     1      -0.294   2.943  25.010  0.00  0.00    -0.454 OA
ENDBRANCH  28  29
ENDBRANCH  27  28
ENDBRANCH  26  27
ENDBRANCH  18  22
BRANCH  14  13
ATOM     13  O   UNL     1      -4.752   0.353  24.154  0.00  0.00    -0.432 OA
BRANCH  13  11
ATOM     10  N   UNL     1      -4.036  -0.837  23.817  0.00  0.00    -0.142 NA
ATOM     11  C   UNL     1      -4.444  -0.381  24.370  0.00  0.00    +0.425 C 
ATOM     12  O   UNL     1      -4.543  -0.659  25.142  0.00  0.00    -0.224 OA
BRANCH  10   9
ATOM      5  C   UNL     1      -2.625  -2.373  24.461  0.00  0.00    +0.073 A 
ATOM      6  C   UNL     1      -3.111  -3.039  24.467  0.00  0.00    +0.004 A 
ATOM      7  C   UNL     1      -3.906  -2.972  24.256  0.00  0.00    +0.001 A 
ATOM      8  C   UNL     1      -4.214  -2.238  24.040  0.00  0.00    +0.017 A 
ATOM      9  C   UNL     1      -3.727  -1.571  24.034  0.00  0.00    +0.077 A 
ATOM     34  C   UNL     1      -2.933  -1.639  24.245  0.00  0.00    +0.021 A 
BRANCH   5   2
ATOM      1  F   UNL     1      -1.035  -2.509  24.883  0.00  0.00    -0.166 F 
ATOM      2  C   UNL     1      -1.830  -2.441  24.672  0.00  0.00    +0.419 C 
ATOM      3  F   UNL     1      -1.647  -2.678  23.904  0.00  0.00    -0.166 F 
ATOM      4  F   UNL     1      -2.013  -2.204  25.441  0.00  0.00    -0.166 F 
ENDBRANCH   5   2
ENDBRANCH  10   9
ENDBRANCH  13  11
ENDBRANCH  14  13
TORSDOF 8
ENDMDL
MODEL 5
REMARK VINA RESULT:     -10.9      2.401      4.861
REMARK  Name = 
REMARK  8 active torsions:
REMARK  status: ('A' for Active; 'I' for Inactive)
REMARK    1  A    between atoms: C_2  and  C_5
REMARK    2  A    between atoms: C_9  and  N_10
REMARK    3  A    between atoms: C_11  and  O_13
REMARK    4  A    between atoms: O_13  and  C_14
REMARK    5  A    between atoms: C_18  and  N_22
REMARK    6  A    between atoms: C_26  and  S_27
REMARK    7  A    between atoms: S_27  and  C_28
REMARK    8  A    between atoms: C_28  and  C_29
REMARK                            x       y       z     vdW  Elec       q    Type
REMARK                         _______ _______ _______ _____ _____    ______ ____
ROOT
ATOM     14  C   UNL     1      -0.260   1.046  24.485  0.00  0.00    +0.229 C 
ATOM     15  C   UNL     1      -0.393   0.811  23.706  0.00  0.00    +0.188 C 
ATOM     16  O   UNL     1      -0.762   0.074  23.722  0.00  0.00    -0.348 OA
ATOM     17  C   UNL     1      -0.856  -0.148  24.510  0.00  0.00    +0.171 C 
ATOM     18  C   UNL     1      -1.142  -0.740  25.008  0.00  0.00    +0.168 C 
ATOM     19  C   UNL     1      -1.008  -0.506  25.788  0.00  0.00    +0.169 C 
ATOM     20  O   UNL     1      -0.640   0.232  25.772  0.00  0.00    -0.348 OA
ATOM     21  C   UNL     1      -0.546   0.453  24.982  0.00  0.00    +0.187 C 
ENDROOT
BRANCH  18  22
ATOM     22  N   UNL     1      -1.499  -1.444  24.768  0.00  0.00    -0.205 N 
ATOM     23  N   UNL     1      -1.115  -2.095  24.437  0.00  0.00    -0.042 NA
ATOM     24  N   UNL     1      -1.682  -2.674  24.282  0.00  0.00    -0.022 NA
ATOM     25  N   UNL     1      -2.416  -2.381  24.516  0.00  0.00    -0.101 NA
ATOM     26  C   UNL     1      -2.303  -1.621  24.817  0.00  0.00    +0.211 A 
BRANCH  26  27
ATOM     27  S   UNL     1      -2.892  -1.125  25.115  0.00  0.00    -0.066 S 
BRANCH  27  28
ATOM     28  C   UNL     1      -3.641  -1.119  24.768  0.00  0.00    +0.129 C 
BRANCH  28  29
ATOM     29  C   UNL     1      -4.125  -0.456  24.844  0.00  0.00    +0.134 A 
ATOM     30  C   UNL     1      -4.433  -0.006  24.224  0.00  0.00    +0.037 A 
ATOM     31  C   UNL     1      -4.884   0.602  24.551  0.00  0.00    +0.043 A 
ATOM     32  C   UNL     1      -4.855   0.530  25.372  0.00  0.00    +0.179 A 
ATOM     33  O   UNL     1      -4.386  -0.124  25.553  0.00  0.00    -0.454 OA
ENDBRANCH  28  29
ENDBRANCH  27  28
ENDBRANCH  26  27
ENDBRANCH  18  22
BRANCH  14  13
ATOM     13  O   UNL     1       0.098   1.750  24.725  0.00  0.00    -0.432 OA
BRANCH  13  11
ATOM     10  N   UNL     1      -0.512   2.871  25.369  0.00  0.00    -0.142 NA
ATOM     11  C   UNL     1      -0.319   2.461  24.680  0.00  0.00    +0.425 C 
ATOM     12  O   UNL     1      -0.543   2.761  23.944  0.00  0.00    -0.224 OA
BRANCH  10   9
ATOM      5  C   UNL     1      -2.136   4.322  25.506  0.00  0.00    +0.073 A 
ATOM      6  C   UNL     1      -1.761   5.004  25.232  0.00  0.00    +0.004 A 
ATOM      7  C   UNL     1      -0.968   4.974  25.003  0.00  0.00    +0.001 A 
ATOM      8  C   UNL     1      -0.552   4.263  25.049  0.00  0.00    +0.017 A 
ATOM      9  C   UNL     1      -0.928   3.582  25.323  0.00  0.00    +0.077 A 
ATOM     34  C   UNL     1      -1.720   3.612  25.552  0.00  0.00    +0.021 A 
BRANCH   5   2
ATOM      1  F   UNL     1      -3.720   4.382  25.964  0.00  0.00    -0.166 F 
ATOM      2  C   UNL     1      -2.928   4.352  25.735  0.00  0.00    +0.419 C 
ATOM      3  F   UNL     1      -2.698   4.477  26.517  0.00  0.00    -0.166 F 
ATOM      4  F   UNL     1      -3.160   4.228  24.953  0.00  0.00    -0.166 F 
ENDBRANCH   5   2
ENDBRANCH  10   9
ENDBRANCH  13  11
ENDBRANCH  14  13
TORSDOF 8
ENDMDL
MODEL 6
REMARK VINA RESULT:     -10.9      3.089      5.881
REMARK  Name = 
REMARK  8 active torsions:
REMARK  status: ('A' for Active; 'I' for Inactive)
REMARK    1  A    between atoms: C_2  and  C_5
REMARK    2  A    between atoms: C_9  and  N_10
REMARK    3  A    between atoms: C_11  and  O_13
REMARK    4  A    between atoms: O_13  and  C_14
REMARK    5  A    between atoms: C_18  and  N_22
REMARK    6  A    between atoms: C_26  and  S_27
REMARK    7  A    between atoms: S_27  and  C_28
REMARK    8  A    between atoms: C_28  and  C_29
REMARK                            x       y       z     vdW  Elec       q    Type
REMARK                         _______ _______ _______ _____ _____    ______ ____
ROOT
ATOM     14  C   UNL     1      -3.738   1.405  24.227  0.00  0.00    +0.229 C 
ATOM     15  C   UNL     1      -3.555   1.171  23.457  0.00  0.00    +0.188 C 
ATOM     16  O   UNL     1      -3.635   0.351  23.415  0.00  0.00    -0.348 OA
ATOM     17  C   UNL     1      -3.866   0.078  24.158  0.00  0.00    +0.171 C 
ATOM     18  C   UNL     1      -4.059  -0.597  24.592  0.00  0.00    +0.168 C 
ATOM     19  C   UNL     1      -4.242  -0.363  25.361  0.00  0.00    +0.169 C 
ATOM     20  O   UNL     1      -4.163   0.457  25.403  0.00  0.00    -0.348 OA
ATOM     21  C   UNL     1      -3.930   0.730  24.660  0.00  0.00    +0.187 C 
ENDROOT
BRANCH  18  22
ATOM     22  N   UNL     1      -4.067  -1.371  24.305  0.00  0.00    -0.205 N 
ATOM     23  N   UNL     1      -4.678  -1.724  23.877  0.00  0.00    -0.042 NA
ATOM     24  N   UNL     1      -4.454  -2.498  23.704  0.00  0.00    -0.022 NA
ATOM     25  N   UNL     1      -3.705  -2.624  24.026  0.00  0.00    -0.101 NA
ATOM     26  C   UNL     1      -3.466  -1.928  24.397  0.00  0.00    +0.211 A 
BRANCH  26  27
ATOM     27  S   UNL     1      -2.751  -1.809  24.791  0.00  0.00    -0.066 S 
BRANCH  27  28
ATOM     28  C   UNL     1      -2.084  -2.246  24.577  0.00  0.00    +0.129 C 
BRANCH  28  29
ATOM     29  C   UNL     1      -1.330  -1.951  24.734  0.00  0.00    +0.134 A 
ATOM     30  C   UNL     1      -0.899  -2.066  25.428  0.00  0.00    +0.037 A 
ATOM     31  C   UNL     1      -0.177  -1.675  25.347  0.00  0.00    +0.043 A 
ATOM     32  C   UNL     1      -0.162  -1.318  24.604  0.00  0.00    +0.179 A 
ATOM     33  O   UNL     1      -0.875  -1.488  24.225  0.00  0.00    -0.454 OA
ENDBRANCH  28  29
ENDBRANCH  27  28
ENDBRANCH  26  27
ENDBRANCH  18  22
BRANCH  14  13
ATOM     13  O   UNL     1      -3.730   2.179  24.513  0.00  0.00    -0.432 OA
BRANCH  13  11
ATOM     10  N   UNL     1      -2.738   2.893  25.253  0.00  0.00    -0.142 NA
ATOM     11  C   UNL     1      -3.023   2.603  24.536  0.00  0.00    +0.425 C 
ATOM     12  O   UNL     1      -2.601   2.738  23.839  0.00  0.00    -0.224 OA
BRANCH  10   9
ATOM      5  C   UNL     1      -1.329   4.559  25.191  0.00  0.00    +0.073 A 
ATOM      6  C   UNL     1      -0.616   4.165  25.322  0.00  0.00    +0.004 A 
ATOM      7  C   UNL     1      -0.610   3.347  25.430  0.00  0.00    +0.001 A 
ATOM      8  C   UNL     1      -1.318   2.923  25.407  0.00  0.00    +0.017 A 
ATOM      9  C   UNL     1      -2.031   3.317  25.276  0.00  0.00    +0.077 A 
ATOM     34  C   UNL     1      -2.036   4.134  25.168  0.00  0.00    +0.021 A 
BRANCH   5   2
ATOM      1  F   UNL     1      -1.340   6.195  24.975  0.00  0.00    -0.166 F 
ATOM      2  C   UNL     1      -1.335   5.376  25.083  0.00  0.00    +0.419 C 
ATOM      3  F   UNL     1      -1.892   5.452  25.686  0.00  0.00    -0.166 F 
ATOM      4  F   UNL     1      -0.777   5.302  24.480  0.00  0.00    -0.166 F 
ENDBRANCH   5   2
ENDBRANCH  10   9
ENDBRANCH  13  11
ENDBRANCH  14  13
TORSDOF 8
ENDMDL
MODEL 7
REMARK VINA RESULT:     -10.1      2.788      5.548
REMARK  Name = 
REMARK  8 active torsions:
REMARK  status: ('A' for Active; 'I' for Inactive)
REMARK    1  A    between atoms: C_2  and  C_5
REMARK    2  A    between atoms: C_9  and  N_10
REMARK    3  A    between atoms: C_11  and  O_13
REMARK    4  A    between atoms: O_13  and  C_14
REMARK    5  A    between atoms: C_18  and  N_22
REMARK    6  A    between atoms: C_26  and  S_27
REMARK    7  A    between atoms: S_27  and  C_28
REMARK    8  A    between atoms: C_28  and  C_29
REMARK                            x       y       z     vdW  Elec       q    Type
REMARK                         _______ _______ _______ _____ _____    ______ ____
ROOT
ATOM     14  C   UNL     1      -4.522   0.049  24.760  0.00  0.00    +0.229 C 
ATOM     15  C   UNL     1      -4.366  -0.053  23.957  0.00  0.00    +0.188 C 
ATOM     16  O   UNL     1      -3.769  -0.618  23.884  0.00  0.00    -0.348 OA
ATOM     17  C   UNL     1      -3.557  -0.864  24.641  0.00  0.00    +0.171 C 
ATOM     18  C   UNL     1      -3.057  -1.365  25.065  0.00  0.00    +0.168 C 
ATOM     19  C   UNL     1      -3.213  -1.263  25.868  0.00  0.00    +0.169 C 
ATOM     20  O   UNL     1      -3.810  -0.699  25.941  0.00  0.00    -0.348 OA
ATOM     21  C   UNL     1      -4.022  -0.452  25.183  0.00  0.00    +0.187 C 
ENDROOT
BRANCH  18  22
ATOM     22  N   UNL     1      -2.498  -1.879  24.742  0.00  0.00    -0.205 N 
ATOM     23  N   UNL     1      -2.642  -2.648  24.475  0.00  0.00    -0.042 NA
ATOM     24  N   UNL     1      -1.930  -2.958  24.197  0.00  0.00    -0.022 NA
ATOM     25  N   UNL     1      -1.347  -2.383  24.291  0.00  0.00    -0.101 NA
ATOM     26  C   UNL     1      -1.698  -1.716  24.627  0.00  0.00    +0.211 A 
BRANCH  26  27
ATOM     27  S   UNL     1      -1.315  -1.010  24.817  0.00  0.00    -0.066 S 
BRANCH  27  28
ATOM     28  C   UNL     1      -0.587  -0.830  24.472  0.00  0.00    +0.129 C 
BRANCH  28  29
ATOM     29  C   UNL     1      -0.336  -0.046  24.426  0.00  0.00    +0.134 A 
ATOM     30  C   UNL     1      -0.028   0.327  23.757  0.00  0.00    +0.037 A 
ATOM     31  C   UNL     1       0.150   1.106  23.959  0.00  0.00    +0.043 A 
ATOM     32  C   UNL     1      -0.048   1.217  24.751  0.00  0.00    +0.179 A 
ATOM     33  O   UNL     1      -0.348   0.505  25.041  0.00  0.00    -0.454 OA
ENDBRANCH  28  29
ENDBRANCH  27  28
ENDBRANCH  26  27
ENDBRANCH  18  22
BRANCH  14  13
ATOM     13  O   UNL     1      -5.081   0.563  25.084  0.00  0.00    -0.432 OA
BRANCH  13  11
ATOM     10  N   UNL     1      -4.917   1.847  25.689  0.00  0.00    -0.142 NA
ATOM     11  C   UNL     1      -4.981   1.379  25.013  0.00  0.00    +0.425 C 
ATOM     12  O   UNL     1      -4.947   1.727  24.265  0.00  0.00    -0.224 OA
BRANCH  10   9
ATOM      5  C   UNL     1      -3.968   3.812  25.632  0.00  0.00    +0.073 A 
ATOM      6  C   UNL     1      -4.618   4.295  25.476  0.00  0.00    +0.004 A 
ATOM      7  C   UNL     1      -5.369   3.962  25.391  0.00  0.00    +0.001 A 
ATOM      8  C   UNL     1      -5.467   3.146  25.462  0.00  0.00    +0.017 A 
ATOM      9  C   UNL     1      -4.817   2.663  25.618  0.00  0.00    +0.077 A 
ATOM     34  C   UNL     1      -4.068   2.996  25.703  0.00  0.00    +0.021 A 
BRANCH   5   2
ATOM      1  F   UNL     1      -2.468   4.479  25.803  0.00  0.00    -0.166 F 
ATOM      2  C   UNL     1      -3.219   4.146  25.717  0.00  0.00    +0.419 C 
ATOM      3  F   UNL     1      -3.298   4.116  26.537  0.00  0.00    -0.166 F 
ATOM      4  F   UNL     1      -3.137   4.175  24.897  0.00  0.00    -0.166 F 
ENDBRANCH   5   2
ENDBRANCH  10   9
ENDBRANCH  13  11
ENDBRANCH  14  13
TORSDOF 8
ENDMDL
