MODEL 1
REMARK VINA RESULT:     -11.1      0.000      0.000
REMARK  Name = 
REMARK  7 active torsions:
REMARK  status: ('A' for Active; 'I' for Inactive)
REMARK    1  A    between atoms: O_2  and  C_3
REMARK    2  A    between atoms: C_9  and  C_10
REMARK    3  A    between atoms: C_10  and  C_11
REMARK    4  A    between atoms: C_16  and  C_17
REMARK    5  A    between atoms: C_17  and  C_18
REMARK    6  A    between atoms: N_23  and  C_24
REMARK    7  A    between atoms: C_24  and  C_25
REMARK                            x       y       z     vdW  Elec       q    Type
REMARK                         _______ _______ _______ _____ _____    ______ ____
ROOT
ATOM     11  C   UNL     1      -3.963   1.316  24.758  0.00  0.00    +0.026 C 
ATOM     12  C   UNL     1      -3.224   1.669  24.658  0.00  0.00    +0.095 C 
ATOM     13  N   UNL     1      -3.122   2.469  24.837  0.00  0.00    -0.263 N 
ATOM     14  C   UNL     1      -3.758   2.913  25.116  0.00  0.00    +0.095 C 
ATOM     15  C   UNL     1      -4.497   2.559  25.216  0.00  0.00    +0.022 C 
ATOM     16  C   UNL     1      -4.599   1.760  25.037  0.00  0.00    +0.015 C 
ATOM     21  C   UNL     1      -2.384   2.822  24.737  0.00  0.00    +0.324 C 
ATOM     22  O   UNL     1      -1.747   2.377  24.458  0.00  0.00    -0.251 OA
ATOM     23  N   UNL     1      -2.282   3.622  24.916  0.00  0.00    -0.184 NA
ENDROOT
BRANCH  11  10
ATOM     10  C   UNL     1      -4.065   0.516  24.578  0.00  0.00    +0.047 C 
BRANCH  10   9
ATOM      3  C   UNL     1      -3.734  -2.423  24.258  0.00  0.00    +0.138 A 
ATOM      4  C   UNL     1      -3.244  -2.204  24.885  0.00  0.00    +0.033 A 
ATOM      5  C   UNL     1      -3.204  -1.414  25.122  0.00  0.00    -0.016 A 
ATOM      6  C   UNL     1      -3.654  -0.844  24.731  0.00  0.00    +0.009 A 
ATOM      7  C   UNL     1      -4.145  -1.062  24.105  0.00  0.00    +0.004 A 
ATOM      8  C   UNL     1      -4.185  -1.851  23.868  0.00  0.00    +0.037 A 
ATOM      9  C   UNL     1      -3.614  -0.054  24.968  0.00  0.00    +0.053 C 
ATOM     27  N   UNL     1      -3.124   0.164  25.595  0.00  0.00    -0.274 NA
ATOM     28  C   UNL     1      -2.673  -0.407  25.984  0.00  0.00    +0.130 C 
ATOM     29  C   UNL     1      -2.713  -1.196  25.748  0.00  0.00    +0.053 C 
BRANCH   3   2
ATOM      1  C   UNL     1      -4.355  -3.453  23.487  0.00  0.00    +0.252 C 
ATOM      2  O   UNL     1      -3.775  -3.212  24.021  0.00  0.00    -0.471 OA
ENDBRANCH   3   2
ENDBRANCH  10   9
ENDBRANCH  11  10
BRANCH  16  17
ATOM     17  C   UNL     1      -5.337   1.406  25.137  0.00  0.00    +0.114 C 
BRANCH  17  18
ATOM     18  C   UNL     1      -5.991   1.865  25.342  0.00  0.00    +0.365 C 
ATOM     19  O   UNL     1      -6.494   2.153  24.754  0.00  0.00    -0.246 OA
ATOM     20  O   UNL     1      -6.142   2.038  26.134  0.00  0.00    -0.246 OA
ENDBRANCH  17  18
ENDBRANCH  16  17
BRANCH  23  24
ATOM     24  C   UNL     1      -1.543   3.975  24.816  0.00  0.00    +0.143 C 
BRANCH  24  25
ATOM     25  C   UNL     1      -1.381   4.699  25.178  0.00  0.00    -0.003 C 
ATOM     26  C   UNL     1      -0.864   5.232  24.818  0.00  0.00    -0.003 C 
ENDBRANCH  24  25
ENDBRANCH  23  24
TORSDOF 7
ENDMDL
MODEL 2
REMARK VINA RESULT:     -10.2      1.147      4.780
REMARK  Name = 
REMARK  7 active torsions:
REMARK  status: ('A' for Active; 'I' for Inactive)
REMARK    1  A    between atoms: O_2  and  C_3
REMARK    2  A    between atoms: C_9  and  C_10
REMARK    3  A    between atoms: C_10  and  C_11
REMARK    4  A    between atoms: C_16  and  C_17
REMARK    5  A    between atoms: C_17  and  C_18
REMARK    6  A    between atoms: N_23  and  C_24
REMARK    7  A    between atoms: C_24  and  C_25
REMARK                            x       y       z     vdW  Elec       q    Type
REMARK                         _______ _______ _______ _____ _____    ______ ____
ROOT
ATOM     11  C   UNL     1      -3.892   1.436  24.972  0.00  0.00    +0.026 C 
ATOM     12  C   UNL     1      -3.410   0.766  24.976  0.00  0.00    +0.095 C 
ATOM     13  N   UNL     1      -3.750   0.014  25.002  0.00  0.00    -0.263 N 
ATOM     14  C   UNL     1      -4.570  -0.067  25.024  0.00  0.00    +0.095 C 
ATOM     15  C   UNL     1      -5.051   0.603  25.019  0.00  0.00    +0.022 C 
ATOM     16  C   UNL     1      -4.712   1.354  24.994  0.00  0.00    +0.015 C 
ATOM     21  C   UNL     1      -3.268  -0.655  25.006  0.00  0.00    +0.324 C 
ATOM     22  O   UNL     1      -2.447  -0.574  24.985  0.00  0.00    -0.251 OA
ATOM     23  N   UNL     1      -3.608  -1.407  25.032  0.00  0.00    -0.184 NA
ENDROOT
BRANCH  11  10
ATOM     10  C   UNL     1      -3.552   2.188  24.946  0.00  0.00    +0.047 C 
BRANCH  10   9
ATOM      3  C   UNL     1      -1.186   3.991  24.967  0.00  0.00    +0.138 A 
ATOM      4  C   UNL     1      -1.175   3.607  24.237  0.00  0.00    +0.033 A 
ATOM      5  C   UNL     1      -1.764   3.060  24.049  0.00  0.00    -0.016 A 
ATOM      6  C   UNL     1      -2.363   2.898  24.591  0.00  0.00    +0.009 A 
ATOM      7  C   UNL     1      -2.374   3.281  25.322  0.00  0.00    +0.004 A 
ATOM      8  C   UNL     1      -1.786   3.828  25.510  0.00  0.00    +0.037 A 
ATOM      9  C   UNL     1      -2.952   2.350  24.403  0.00  0.00    +0.053 C 
ATOM     27  N   UNL     1      -2.941   1.967  23.673  0.00  0.00    -0.274 NA
ATOM     28  C   UNL     1      -2.341   2.130  23.131  0.00  0.00    +0.130 C 
ATOM     29  C   UNL     1      -1.753   2.676  23.318  0.00  0.00    +0.053 C 
BRANCH   3   2
ATOM      1  C   UNL     1      -0.692   5.332  24.954  0.00  0.00    +0.252 C 
ATOM      2  O   UNL     1      -0.598   4.537  25.155  0.00  0.00    -0.471 OA
ENDBRANCH   3   2
ENDBRANCH  10   9
ENDBRANCH  11  10
BRANCH  16  17
ATOM     17  C   UNL     1      -5.193   2.025  24.989  0.00  0.00    +0.114 C 
BRANCH  17  18
ATOM     18  C   UNL     1      -5.970   1.976  25.263  0.00  0.00    +0.365 C 
ATOM     19  O   UNL     1      -6.132   2.076  26.066  0.00  0.00    -0.246 OA
ATOM     20  O   UNL     1      -6.586   1.829  24.734  0.00  0.00    -0.246 OA
ENDBRANCH  17  18
ENDBRANCH  16  17
BRANCH  23  24
ATOM     24  C   UNL     1      -3.126  -2.077  25.037  0.00  0.00    +0.143 C 
BRANCH  24  25
ATOM     25  C   UNL     1      -3.466  -2.828  25.056  0.00  0.00    -0.003 C 
ATOM     26  C   UNL     1      -3.369  -3.342  24.417  0.00  0.00    -0.003 C 
ENDBRANCH  24  25
ENDBRANCH  23  24
TORSDOF 7
ENDMDL
MODEL 3
REMARK VINA RESULT:      -9.9      1.802      5.252
REMARK  Name = 
REMARK  7 active torsions:
REMARK  status: ('A' for Active; 'I' for Inactive)
REMARK    1  A    between atoms: O_2  and  C_3
REMARK    2  A    between atoms: C_9  and  C_10
REMARK    3  A    between atoms: C_10  and  C_11
REMARK    4  A    between atoms: C_16  and  C_17
REMARK    5  A    between atoms: C_17  and  C_18
REMARK    6  A    between atoms: N_23  and  C_24
REMARK    7  A    between atoms: C_24  and  C_25
REMARK                            x       y       z     vdW  Elec       q    Type
REMARK                         _______ _______ _______ _____ _____    ______ ____
ROOT
ATOM     11  C   UNL     1      -1.797   1.565  24.771  0.00  0.00    +0.026 C 
ATOM     12  C   UNL     1      -2.319   0.929  24.820  0.00  0.00    +0.095 C 
ATOM     13  N   UNL     1      -2.032   0.156  24.782  0.00  0.00    -0.263 N 
ATOM     14  C   UNL     1      -1.223   0.021  24.694  0.00  0.00    +0.095 C 
ATOM     15  C   UNL     1      -0.701   0.658  24.645  0.00  0.00    +0.022 C 
ATOM     16  C   UNL     1      -0.988   1.430  24.684  0.00  0.00    +0.015 C 
ATOM     21  C   UNL     1      -2.554  -0.481  24.831  0.00  0.00    +0.324 C 
ATOM     22  O   UNL     1      -3.363  -0.345  24.919  0.00  0.00    -0.251 OA
ATOM     23  N   UNL     1      -2.266  -1.254  24.793  0.00  0.00    -0.184 NA
ENDROOT
BRANCH  11  10
ATOM     10  C   UNL     1      -2.085   2.338  24.810  0.00  0.00    +0.047 C 
BRANCH  10   9
ATOM      3  C   UNL     1      -4.631   3.819  25.225  0.00  0.00    +0.138 A 
ATOM      4  C   UNL     1      -4.598   3.642  24.420  0.00  0.00    +0.033 A 
ATOM      5  C   UNL     1      -3.953   3.228  24.114  0.00  0.00    -0.016 A 
ATOM      6  C   UNL     1      -3.341   2.990  24.615  0.00  0.00    +0.009 A 
ATOM      7  C   UNL     1      -3.375   3.167  25.420  0.00  0.00    +0.004 A 
ATOM      8  C   UNL     1      -4.019   3.581  25.726  0.00  0.00    +0.037 A 
ATOM      9  C   UNL     1      -2.696   2.576  24.309  0.00  0.00    +0.053 C 
ATOM     27  N   UNL     1      -2.663   2.399  23.504  0.00  0.00    -0.274 NA
ATOM     28  C   UNL     1      -3.275   2.637  23.005  0.00  0.00    +0.130 C 
ATOM     29  C   UNL     1      -3.920   3.051  23.309  0.00  0.00    +0.053 C 
BRANCH   3   2
ATOM      1  C   UNL     1      -5.954   3.827  25.765  0.00  0.00    +0.252 C 
ATOM      2  O   UNL     1      -5.276   4.233  25.531  0.00  0.00    -0.471 OA
ENDBRANCH   3   2
ENDBRANCH  10   9
ENDBRANCH  11  10
BRANCH  16  17
ATOM     17  C   UNL     1      -0.467   2.068  24.635  0.00  0.00    +0.114 C 
BRANCH  17  18
ATOM     18  C   UNL     1       0.340   1.952  24.766  0.00  0.00    +0.365 C 
ATOM     19  O   UNL     1       0.652   2.049  25.524  0.00  0.00    -0.246 OA
ATOM     20  O   UNL     1       0.834   1.738  24.141  0.00  0.00    -0.246 OA
ENDBRANCH  17  18
ENDBRANCH  16  17
BRANCH  23  24
ATOM     24  C   UNL     1      -2.789  -1.890  24.842  0.00  0.00    +0.143 C 
BRANCH  24  25
ATOM     25  C   UNL     1      -2.545  -2.642  24.605  0.00  0.00    -0.003 C 
ATOM     26  C   UNL     1      -3.085  -3.266  24.594  0.00  0.00    -0.003 C 
ENDBRANCH  24  25
ENDBRANCH  23  24
TORSDOF 7
ENDMDL
MODEL 4
REMARK VINA RESULT:      -9.8      2.900      3.857
REMARK  Name = 
REMARK  7 active torsions:
REMARK  status: ('A' for Active; 'I' for Inactive)
REMARK    1  A    between atoms: O_2  and  C_3
REMARK    2  A    between atoms: C_9  and  C_10
REMARK    3  A    between atoms: C_10  and  C_11
REMARK    4  A    between atoms: C_16  and  C_17
REMARK    5  A    between atoms: C_17  and  C_18
REMARK    6  A    between atoms: N_23  and  C_24
REMARK    7  A    between atoms: C_24  and  C_25
REMARK                            x       y       z     vdW  Elec       q    Type
REMARK                         _______ _______ _______ _____ _____    ______ ____
ROOT
ATOM     11  C   UNL     1      -0.975   0.981  24.889  0.00  0.00    +0.026 C 
ATOM     12  C   UNL     1      -0.566   0.509  24.351  0.00  0.00    +0.095 C 
ATOM     13  N   UNL     1       0.155   0.766  24.043  0.00  0.00    -0.263 N 
ATOM     14  C   UNL     1       0.467   1.495  24.274  0.00  0.00    +0.095 C 
ATOM     15  C   UNL     1       0.056   1.966  24.812  0.00  0.00    +0.022 C 
ATOM     16  C   UNL     1      -0.664   1.710  25.120  0.00  0.00    +0.015 C 
ATOM     21  C   UNL     1       0.565   0.294  23.504  0.00  0.00    +0.324 C 
ATOM     22  O   UNL     1       0.253  -0.434  23.274  0.00  0.00    -0.251 OA
ATOM     23  N   UNL     1       1.286   0.551  23.196  0.00  0.00    -0.184 NA
ENDROOT
BRANCH  11  10
ATOM     10  C   UNL     1      -1.697   0.724  25.198  0.00  0.00    +0.047 C 
BRANCH  10   9
ATOM      3  C   UNL     1      -3.549  -1.590  24.953  0.00  0.00    +0.138 A 
ATOM      4  C   UNL     1      -3.764  -1.062  24.357  0.00  0.00    +0.033 A 
ATOM      5  C   UNL     1      -3.354  -0.351  24.269  0.00  0.00    -0.016 A 
ATOM      6  C   UNL     1      -2.730  -0.169  24.777  0.00  0.00    +0.009 A 
ATOM      7  C   UNL     1      -2.516  -0.697  25.373  0.00  0.00    +0.004 A 
ATOM      8  C   UNL     1      -2.925  -1.408  25.462  0.00  0.00    +0.037 A 
ATOM      9  C   UNL     1      -2.321   0.543  24.689  0.00  0.00    +0.053 C 
ATOM     27  N   UNL     1      -2.535   1.071  24.093  0.00  0.00    -0.274 NA
ATOM     28  C   UNL     1      -3.159   0.888  23.584  0.00  0.00    +0.130 C 
ATOM     29  C   UNL     1      -3.568   0.178  23.672  0.00  0.00    +0.053 C 
BRANCH   3   2
ATOM      1  C   UNL     1      -3.609  -3.011  24.807  0.00  0.00    +0.252 C 
ATOM      2  O   UNL     1      -3.958  -2.301  25.042  0.00  0.00    -0.471 OA
ENDBRANCH   3   2
ENDBRANCH  10   9
ENDBRANCH  11  10
BRANCH  16  17
ATOM     17  C   UNL     1      -1.075   2.181  25.659  0.00  0.00    +0.114 C 
BRANCH  17  18
ATOM     18  C   UNL     1      -0.699   2.826  26.012  0.00  0.00    +0.365 C 
ATOM     19  O   UNL     1      -0.801   3.584  25.701  0.00  0.00    -0.246 OA
ATOM     20  O   UNL     1      -0.222   2.713  26.675  0.00  0.00    -0.246 OA
ENDBRANCH  17  18
ENDBRANCH  16  17
BRANCH  23  24
ATOM     24  C   UNL     1       1.696   0.079  22.658  0.00  0.00    +0.143 C 
BRANCH  24  25
ATOM     25  C   UNL     1       2.518   0.123  22.614  0.00  0.00    -0.003 C 
ATOM     26  C   UNL     1       2.893   0.103  21.879  0.00  0.00    -0.003 C 
ENDBRANCH  24  25
ENDBRANCH  23  24
TORSDOF 7
ENDMDL
MODEL 5
REMARK VINA RESULT:      -9.6      2.264      4.460
REMARK  Name = 
REMARK  7 active torsions:
REMARK  status: ('A' for Active; 'I' for Inactive)
REMARK    1  A    between atoms: O_2  and  C_3
REMARK    2  A    between atoms: C_9  and  C_10
REMARK    3  A    between atoms: C_10  and  C_11
REMARK    4  A    between atoms: C_16  and  C_17
REMARK    5  A    between atoms: C_17  and  C_18
REMARK    6  A    between atoms: N_23  and  C_24
REMARK    7  A    between atoms: C_24  and  C_25
REMARK                            x       y       z     vdW  Elec       q    Type
REMARK                         _______ _______ _______ _____ _____    ______ ____
ROOT
ATOM     11  C   UNL     1      -2.625   0.264  24.550  0.00  0.00    +0.026 C 
ATOM     12  C   UNL     1      -1.892   0.570  24.326  0.00  0.00    +0.095 C 
ATOM     13  N   UNL     1      -1.270   0.059  24.143  0.00  0.00    -0.263 N 
ATOM     14  C   UNL     1      -1.382  -0.757  24.183  0.00  0.00    +0.095 C 
ATOM     15  C   UNL     1      -2.116  -1.062  24.407  0.00  0.00    +0.022 C 
ATOM     16  C   UNL     1      -2.737  -0.552  24.590  0.00  0.00    +0.015 C 
ATOM     21  C   UNL     1      -0.538   0.365  23.920  0.00  0.00    +0.324 C 
ATOM     22  O   UNL     1      -0.426   1.181  23.879  0.00  0.00    -0.251 OA
ATOM     23  N   UNL     1       0.084  -0.147  23.736  0.00  0.00    -0.184 NA
ENDROOT
BRANCH  11  10
ATOM     10  C   UNL     1      -3.247   0.776  24.733  0.00  0.00    +0.047 C 
BRANCH  10   9
ATOM      3  C   UNL     1      -4.566   3.414  25.123  0.00  0.00    +0.138 A 
ATOM      4  C   UNL     1      -4.361   3.376  24.324  0.00  0.00    +0.033 A 
ATOM      5  C   UNL     1      -3.979   2.707  24.027  0.00  0.00    -0.016 A 
ATOM      6  C   UNL     1      -3.804   2.076  24.529  0.00  0.00    +0.009 A 
ATOM      7  C   UNL     1      -4.009   2.114  25.327  0.00  0.00    +0.004 A 
ATOM      8  C   UNL     1      -4.389   2.782  25.625  0.00  0.00    +0.037 A 
ATOM      9  C   UNL     1      -3.422   1.407  24.231  0.00  0.00    +0.053 C 
ATOM     27  N   UNL     1      -3.217   1.369  23.433  0.00  0.00    -0.274 NA
ATOM     28  C   UNL     1      -3.394   2.001  22.932  0.00  0.00    +0.130 C 
ATOM     29  C   UNL     1      -3.775   2.669  23.229  0.00  0.00    +0.053 C 
BRANCH   3   2
ATOM      1  C   UNL     1      -5.725   4.029  25.689  0.00  0.00    +0.252 C 
ATOM      2  O   UNL     1      -4.947   4.082  25.420  0.00  0.00    -0.471 OA
ENDBRANCH   3   2
ENDBRANCH  10   9
ENDBRANCH  11  10
BRANCH  16  17
ATOM     17  C   UNL     1      -3.470  -0.857  24.814  0.00  0.00    +0.114 C 
BRANCH  17  18
ATOM     18  C   UNL     1      -3.577  -1.673  24.871  0.00  0.00    +0.365 C 
ATOM     19  O   UNL     1      -3.445  -2.057  25.589  0.00  0.00    -0.246 OA
ATOM     20  O   UNL     1      -3.816  -2.105  24.210  0.00  0.00    -0.246 OA
ENDBRANCH  17  18
ENDBRANCH  16  17
BRANCH  23  24
ATOM     24  C   UNL     1       0.817   0.159  23.513  0.00  0.00    +0.143 C 
BRANCH  24  25
ATOM     25  C   UNL     1       1.314  -0.280  23.023  0.00  0.00    -0.003 C 
ATOM     26  C   UNL     1       2.024   0.046  22.758  0.00  0.00    -0.003 C 
ENDBRANCH  24  25
ENDBRANCH  23  24
TORSDOF 7
ENDMDL
MODEL 6
REMARK VINA RESULT:      -9.4      2.552      5.883
REMARK  Name = 
REMARK  7 active torsions:
REMARK  status: ('A' for Active; 'I' for Inactive)
REMARK    1  A    between atoms: O_2  and  C_3
REMARK    2  A    between atoms: C_9  and  C_10
REMARK    3  A    between atoms: C_10  and  C_11
REMARK    4  A    between atoms: C_16  and  C_17
REMARK    5  A    between atoms: C_17  and  C_18
REMARK    6  A    between atoms: N_23  and  C_24
REMARK    7  A    between atoms: C_24  and  C_25
REMARK                            x       y       z     vdW  Elec       q    Type
REMARK                         _______ _______ _______ _____ _____    ______ ____
ROOT
ATOM     11  C   UNL     1      -0.562   0.713  24.149  0.00  0.00    +0.026 C 
ATOM     12  C   UNL     1      -1.273   0.429  24.456  0.00  0.00    +0.095 C 
ATOM     13  N   UNL     1      -1.447  -0.377  24.414  0.00  0.00    -0.263 N 
ATOM     14  C   UNL     1      -0.910  -0.898  24.067  0.00  0.00    +0.095 C 
ATOM     15  C   UNL     1      -0.198  -0.613  23.761  0.00  0.00    +0.022 C 
ATOM     16  C   UNL     1      -0.025   0.192  23.802  0.00  0.00    +0.015 C 
ATOM     21  C   UNL     1      -2.158  -0.662  24.721  0.00  0.00    +0.324 C 
ATOM     22  O   UNL     1      -2.696  -0.141  25.068  0.00  0.00    -0.251 OA
ATOM     23  N   UNL     1      -2.332  -1.468  24.679  0.00  0.00    -0.184 NA
ENDROOT
BRANCH  11  10
ATOM     10  C   UNL     1      -0.388   1.519  24.190  0.00  0.00    +0.047 C 
BRANCH  10   9
ATOM      3  C   UNL     1      -1.412   4.169  25.073  0.00  0.00    +0.138 A 
ATOM      4  C   UNL     1      -1.104   3.806  25.747  0.00  0.00    +0.033 A 
ATOM      5  C   UNL     1      -0.771   3.052  25.695  0.00  0.00    -0.016 A 
ATOM      6  C   UNL     1      -0.746   2.662  24.969  0.00  0.00    +0.009 A 
ATOM      7  C   UNL     1      -1.054   3.025  24.295  0.00  0.00    +0.004 A 
ATOM      8  C   UNL     1      -1.386   3.778  24.346  0.00  0.00    +0.037 A 
ATOM      9  C   UNL     1      -0.413   1.909  24.917  0.00  0.00    +0.053 C 
ATOM     27  N   UNL     1      -0.106   1.546  25.591  0.00  0.00    -0.274 NA
ATOM     28  C   UNL     1      -0.131   1.937  26.317  0.00  0.00    +0.130 C 
ATOM     29  C   UNL     1      -0.464   2.690  26.370  0.00  0.00    +0.053 C 
BRANCH   3   2
ATOM      1  C   UNL     1      -1.295   5.586  24.933  0.00  0.00    +0.252 C 
ATOM      2  O   UNL     1      -1.745   4.922  25.124  0.00  0.00    -0.471 OA
ENDBRANCH   3   2
ENDBRANCH  10   9
ENDBRANCH  11  10
BRANCH  16  17
ATOM     17  C   UNL     1       0.687   0.477  23.496  0.00  0.00    +0.114 C 
BRANCH  17  18
ATOM     18  C   UNL     1       1.147  -0.003  23.007  0.00  0.00    +0.365 C 
ATOM     19  O   UNL     1       0.965  -0.070  22.205  0.00  0.00    -0.246 OA
ATOM     20  O   UNL     1       1.789  -0.415  23.320  0.00  0.00    -0.246 OA
ENDBRANCH  17  18
ENDBRANCH  16  17
BRANCH  23  24
ATOM     24  C   UNL     1      -3.043  -1.752  24.986  0.00  0.00    +0.143 C 
BRANCH  24  25
ATOM     25  C   UNL     1      -3.206  -2.560  24.965  0.00  0.00    -0.003 C 
ATOM     26  C   UNL     1      -3.792  -2.850  24.460  0.00  0.00    -0.003 C 
ENDBRANCH  24  25
ENDBRANCH  23  24
TORSDOF 7
ENDMDL
MODEL 7
REMARK VINA RESULT:      -9.4      2.373      4.134
REMARK  Name = 
REMARK  7 active torsions:
REMARK  status: ('A' for Active; 'I' for Inactive)
REMARK    1  A    between atoms: O_2  and  C_3
REMARK    2  A    between atoms: C_9  and  C_10
REMARK    3  A    between atoms: C_10  and  C_11
REMARK    4  A    between atoms: C_16  and  C_17
REMARK    5  A    between atoms: C_17  and  C_18
REMARK    6  A    between atoms: N_23  and  C_24
REMARK    7  A    between atoms: C_24  and  C_25
REMARK                            x       y       z     vdW  Elec       q    Type
REMARK                         _______ _______ _______ _____ _____    ______ ____
ROOT
ATOM     11  C   UNL     1      -2.647  -0.364  24.644  0.00  0.00    +0.026 C 
ATOM     12  C   UNL     1      -2.988   0.385  24.588  0.00  0.00    +0.095 C 
ATOM     13  N   UNL     1      -3.785   0.490  24.779  0.00  0.00    -0.263 N 
ATOM     14  C   UNL     1      -4.238  -0.153  25.026  0.00  0.00    +0.095 C 
ATOM     15  C   UNL     1      -3.896  -0.901  25.083  0.00  0.00    +0.022 C 
ATOM     16  C   UNL     1      -3.101  -1.007  24.892  0.00  0.00    +0.015 C 
ATOM     21  C   UNL     1      -4.126   1.239  24.722  0.00  0.00    +0.324 C 
ATOM     22  O   UNL     1      -3.672   1.882  24.475  0.00  0.00    -0.251 OA
ATOM     23  N   UNL     1      -4.922   1.345  24.913  0.00  0.00    -0.184 NA
ENDROOT
BRANCH  11  10
ATOM     10  C   UNL     1      -1.851  -0.469  24.453  0.00  0.00    +0.047 C 
BRANCH  10   9
ATOM      3  C   UNL     1       0.760   0.454  23.366  0.00  0.00    +0.138 A 
ATOM      4  C   UNL     1       0.637   0.882  24.061  0.00  0.00    +0.033 A 
ATOM      5  C   UNL     1      -0.047   0.758  24.507  0.00  0.00    -0.016 A 
ATOM      6  C   UNL     1      -0.607   0.206  24.257  0.00  0.00    +0.009 A 
ATOM      7  C   UNL     1      -0.484  -0.222  23.562  0.00  0.00    +0.004 A 
ATOM      8  C   UNL     1       0.199  -0.098  23.117  0.00  0.00    +0.037 A 
ATOM      9  C   UNL     1      -1.291   0.082  24.703  0.00  0.00    +0.053 C 
ATOM     27  N   UNL     1      -1.414   0.510  25.397  0.00  0.00    -0.274 NA
ATOM     28  C   UNL     1      -0.853   1.062  25.646  0.00  0.00    +0.130 C 
ATOM     29  C   UNL     1      -0.170   1.186  25.201  0.00  0.00    +0.053 C 
BRANCH   3   2
ATOM      1  C   UNL     1       1.834  -0.064  22.579  0.00  0.00    +0.252 C 
ATOM      2  O   UNL     1       1.443   0.577  22.921  0.00  0.00    -0.471 OA
ENDBRANCH   3   2
ENDBRANCH  10   9
ENDBRANCH  11  10
BRANCH  16  17
ATOM     17  C   UNL     1      -2.758  -1.756  24.948  0.00  0.00    +0.114 C 
BRANCH  17  18
ATOM     18  C   UNL     1      -3.237  -2.428  24.960  0.00  0.00    +0.365 C 
ATOM     19  O   UNL     1      -3.478  -2.750  25.681  0.00  0.00    -0.246 OA
ATOM     20  O   UNL     1      -3.474  -2.778  24.252  0.00  0.00    -0.246 OA
ENDBRANCH  17  18
ENDBRANCH  16  17
BRANCH  23  24
ATOM     24  C   UNL     1      -5.264   2.093  24.856  0.00  0.00    +0.143 C 
BRANCH  24  25
ATOM     25  C   UNL     1      -5.973   2.253  25.246  0.00  0.00    -0.003 C 
ATOM     26  C   UNL     1      -6.080   2.977  25.628  0.00  0.00    -0.003 C 
ENDBRANCH  24  25
ENDBRANCH  23  24
TORSDOF 7
ENDMDL
MODEL 8
REMARK VINA RESULT:      -9.3      2.252      3.520
REMARK  Name = 
REMARK  7 active torsions:
REMARK  status: ('A' for Active; 'I' for Inactive)
REMARK    1  A    between atoms: O_2  and  C_3
REMARK    2  A    between atoms: C_9  and  C_10
REMARK    3  A    between atoms: C_10  and  C_11
REMARK    4  A    between atoms: C_16  and  C_17
REMARK    5  A    between atoms: C_17  and  C_18
REMARK    6  A    between atoms: N_23  and  C_24
REMARK    7  A    between atoms: C_24  and  C_25
REMARK                            x       y       z     vdW  Elec       q    Type
REMARK                         _______ _______ _______ _____ _____    ______ ____
ROOT
ATOM     11  C   UNL     1      -0.751   0.505  24.142  0.00  0.00    +0.026 C 
ATOM     12  C   UNL     1      -1.167   1.159  24.424  0.00  0.00    +0.095 C 
ATOM     13  N   UNL     1      -0.803   1.899  24.448  0.00  0.00    -0.263 N 
ATOM     14  C   UNL     1      -0.024   1.985  24.190  0.00  0.00    +0.095 C 
ATOM     15  C   UNL     1       0.391   1.330  23.908  0.00  0.00    +0.022 C 
ATOM     16  C   UNL     1       0.028   0.590  23.884  0.00  0.00    +0.015 C 
ATOM     21  C   UNL     1      -1.219   2.554  24.730  0.00  0.00    +0.324 C 
ATOM     22  O   UNL     1      -1.998   2.468  24.988  0.00  0.00    -0.251 OA
ATOM     23  N   UNL     1      -0.855   3.294  24.754  0.00  0.00    -0.184 NA
ENDROOT
BRANCH  11  10
ATOM     10  C   UNL     1      -1.114  -0.236  24.119  0.00  0.00    +0.047 C 
BRANCH  10   9
ATOM      3  C   UNL     1      -3.679  -1.681  24.551  0.00  0.00    +0.138 A 
ATOM      4  C   UNL     1      -3.340  -1.587  25.297  0.00  0.00    +0.033 A 
ATOM      5  C   UNL     1      -2.614  -1.202  25.376  0.00  0.00    -0.016 A 
ATOM      6  C   UNL     1      -2.227  -0.912  24.708  0.00  0.00    +0.009 A 
ATOM      7  C   UNL     1      -2.566  -1.005  23.961  0.00  0.00    +0.004 A 
ATOM      8  C   UNL     1      -3.291  -1.390  23.882  0.00  0.00    +0.037 A 
ATOM      9  C   UNL     1      -1.501  -0.527  24.787  0.00  0.00    +0.053 C 
ATOM     27  N   UNL     1      -1.163  -0.433  25.533  0.00  0.00    -0.274 NA
ATOM     28  C   UNL     1      -1.551  -0.724  26.201  0.00  0.00    +0.130 C 
ATOM     29  C   UNL     1      -2.276  -1.108  26.123  0.00  0.00    +0.053 C 
BRANCH   3   2
ATOM      1  C   UNL     1      -4.533  -2.579  23.839  0.00  0.00    +0.252 C 
ATOM      2  O   UNL     1      -4.404  -2.065  24.472  0.00  0.00    -0.471 OA
ENDBRANCH   3   2
ENDBRANCH  10   9
ENDBRANCH  11  10
BRANCH  16  17
ATOM     17  C   UNL     1       0.443  -0.065  23.602  0.00  0.00    +0.114 C 
BRANCH  17  18
ATOM     18  C   UNL     1       1.031   0.034  23.032  0.00  0.00    +0.365 C 
ATOM     19  O   UNL     1       0.847  -0.050  22.231  0.00  0.00    -0.246 OA
ATOM     20  O   UNL     1       1.802   0.217  23.261  0.00  0.00    -0.246 OA
ENDBRANCH  17  18
ENDBRANCH  16  17
BRANCH  23  24
ATOM     24  C   UNL     1      -1.271   3.949  25.036  0.00  0.00    +0.143 C 
BRANCH  24  25
ATOM     25  C   UNL     1      -0.915   4.693  25.037  0.00  0.00    -0.003 C 
ATOM     26  C   UNL     1      -1.383   5.373  25.057  0.00  0.00    -0.003 C 
ENDBRANCH  24  25
ENDBRANCH  23  24
TORSDOF 7
ENDMDL
MODEL 9
REMARK VINA RESULT:      -9.1      2.384      4.072
REMARK  Name = 
REMARK  7 active torsions:
REMARK  status: ('A' for Active; 'I' for Inactive)
REMARK    1  A    between atoms: O_2  and  C_3
REMARK    2  A    between atoms: C_9  and  C_10
REMARK    3  A    between atoms: C_10  and  C_11
REMARK    4  A    between atoms: C_16  and  C_17
REMARK    5  A    between atoms: C_17  and  C_18
REMARK    6  A    between atoms: N_23  and  C_24
REMARK    7  A    between atoms: C_24  and  C_25
REMARK                            x       y       z     vdW  Elec       q    Type
REMARK                         _______ _______ _______ _____ _____    ______ ____
ROOT
ATOM     11  C   UNL     1      -1.797   2.542  24.883  0.00  0.00    +0.026 C 
ATOM     12  C   UNL     1      -2.487   2.116  24.731  0.00  0.00    +0.095 C 
ATOM     13  N   UNL     1      -3.223   2.459  24.879  0.00  0.00    -0.263 N 
ATOM     14  C   UNL     1      -3.269   3.226  25.178  0.00  0.00    +0.095 C 
ATOM     15  C   UNL     1      -2.577   3.651  25.329  0.00  0.00    +0.022 C 
ATOM     16  C   UNL     1      -1.842   3.309  25.182  0.00  0.00    +0.015 C 
ATOM     21  C   UNL     1      -3.913   2.033  24.727  0.00  0.00    +0.324 C 
ATOM     22  O   UNL     1      -3.868   1.266  24.428  0.00  0.00    -0.251 OA
ATOM     23  N   UNL     1      -4.650   2.376  24.875  0.00  0.00    -0.184 NA
ENDROOT
BRANCH  11  10
ATOM     10  C   UNL     1      -1.060   2.199  24.735  0.00  0.00    +0.047 C 
BRANCH  10   9
ATOM      3  C   UNL     1       0.397  -0.019  23.392  0.00  0.00    +0.138 A 
ATOM      4  C   UNL     1       0.085  -0.338  24.085  0.00  0.00    +0.033 A 
ATOM      5  C   UNL     1      -0.358   0.137  24.595  0.00  0.00    -0.016 A 
ATOM      6  C   UNL     1      -0.488   0.930  24.410  0.00  0.00    +0.009 A 
ATOM      7  C   UNL     1      -0.175   1.249  23.716  0.00  0.00    +0.004 A 
ATOM      8  C   UNL     1       0.267   0.775  23.207  0.00  0.00    +0.037 A 
ATOM      9  C   UNL     1      -0.931   1.406  24.920  0.00  0.00    +0.053 C 
ATOM     27  N   UNL     1      -1.243   1.087  25.614  0.00  0.00    -0.274 NA
ATOM     28  C   UNL     1      -1.113   0.293  25.798  0.00  0.00    +0.130 C 
ATOM     29  C   UNL     1      -0.671  -0.182  25.289  0.00  0.00    +0.053 C 
BRANCH   3   2
ATOM      1  C   UNL     1       1.554  -0.217  22.577  0.00  0.00    +0.252 C 
ATOM      2  O   UNL     1       0.840  -0.494  22.882  0.00  0.00    -0.471 OA
ENDBRANCH   3   2
ENDBRANCH  10   9
ENDBRANCH  11  10
BRANCH  16  17
ATOM     17  C   UNL     1      -1.151   3.734  25.333  0.00  0.00    +0.114 C 
BRANCH  17  18
ATOM     18  C   UNL     1      -1.121   4.542  25.172  0.00  0.00    +0.365 C 
ATOM     19  O   UNL     1      -1.557   5.072  25.632  0.00  0.00    -0.246 OA
ATOM     20  O   UNL     1      -0.655   4.823  24.552  0.00  0.00    -0.246 OA
ENDBRANCH  17  18
ENDBRANCH  16  17
BRANCH  23  24
ATOM     24  C   UNL     1      -5.340   1.950  24.724  0.00  0.00    +0.143 C 
BRANCH  24  25
ATOM     25  C   UNL     1      -6.051   2.182  25.071  0.00  0.00    -0.003 C 
ATOM     26  C   UNL     1      -6.705   1.679  25.048  0.00  0.00    -0.003 C 
ENDBRANCH  24  25
ENDBRANCH  23  24
TORSDOF 7
ENDMDL
