MODEL 1
REMARK VINA RESULT:      -9.8      0.000      0.000
REMARK  Name = 
REMARK  7 active torsions:
REMARK  status: ('A' for Active; 'I' for Inactive)
REMARK    1  A    between atoms: O_2  and  C_3
REMARK    2  A    between atoms: C_6  and  C_9
REMARK    3  A    between atoms: N_14  and  C_15
REMARK    4  A    between atoms: C_19  and  N_23
REMARK    5  A    between atoms: C_24  and  C_26
REMARK    6  A    between atoms: C_26  and  O_27
REMARK    7  A    between atoms: O_27  and  C_28
REMARK                            x       y       z     vdW  Elec       q    Type
REMARK                         _______ _______ _______ _____ _____    ______ ____
ROOT
ATOM     15  C   UNL     1      -0.594   1.477  24.632  0.00  0.00    +0.154 C 
ATOM     16  C   UNL     1      -0.069   1.984  25.017  0.00  0.00    +0.166 C 
ATOM     17  O   UNL     1       0.682   1.860  24.700  0.00  0.00    -0.350 OA
ATOM     18  C   UNL     1       0.622   1.277  24.120  0.00  0.00    +0.166 C 
ATOM     19  C   UNL     1       1.048   0.839  23.565  0.00  0.00    +0.154 C 
ATOM     20  C   UNL     1       0.524   0.332  23.181  0.00  0.00    +0.166 C 
ATOM     21  O   UNL     1      -0.228   0.457  23.498  0.00  0.00    -0.350 OA
ATOM     22  C   UNL     1      -0.167   1.040  24.078  0.00  0.00    +0.166 C 
ENDROOT
BRANCH  15  14
ATOM      9  C   UNL     1      -3.160   2.710  24.888  0.00  0.00    +0.086 A 
ATOM     10  C   UNL     1      -2.822   3.445  24.727  0.00  0.00    +0.040 A 
ATOM     11  C   UNL     1      -2.012   3.505  24.583  0.00  0.00    +0.103 A 
ATOM     12  N   UNL     1      -1.539   2.829  24.599  0.00  0.00    -0.211 NA
ATOM     13  C   UNL     1      -1.877   2.093  24.760  0.00  0.00    +0.237 A 
ATOM     14  N   UNL     1      -1.404   1.417  24.777  0.00  0.00    -0.200 NA
ATOM     34  N   UNL     1      -2.687   2.034  24.905  0.00  0.00    -0.212 NA
BRANCH   9   6
ATOM      3  C   UNL     1      -5.590   2.533  25.321  0.00  0.00    +0.139 A 
ATOM      4  C   UNL     1      -5.129   3.055  25.763  0.00  0.00    +0.037 A 
ATOM      5  C   UNL     1      -4.319   3.114  25.619  0.00  0.00    +0.005 A 
ATOM      6  C   UNL     1      -3.969   2.651  25.033  0.00  0.00    +0.018 A 
ATOM      7  C   UNL     1      -4.430   2.129  24.591  0.00  0.00    +0.005 A 
ATOM      8  C   UNL     1      -5.240   2.069  24.735  0.00  0.00    +0.037 A 
BRANCH   3   2
ATOM      1  C   UNL     1      -6.679   1.947  26.036  0.00  0.00    +0.252 C 
ATOM      2  O   UNL     1      -6.400   2.474  25.466  0.00  0.00    -0.471 OA
ENDBRANCH   3   2
ENDBRANCH   9   6
ENDBRANCH  15  14
BRANCH  19  23
ATOM     23  N   UNL     1       1.859   0.899  23.421  0.00  0.00    -0.199 NA
ATOM     24  C   UNL     1       2.232   0.349  22.932  0.00  0.00    +0.286 C 
ATOM     25  O   UNL     1       1.796  -0.260  22.587  0.00  0.00    -0.269 OA
BRANCH  24  26
ATOM     26  C   UNL     1       3.042   0.408  22.787  0.00  0.00    +0.291 C 
BRANCH  26  27
ATOM     27  O   UNL     1       3.527  -0.253  22.876  0.00  0.00    -0.466 OA
BRANCH  27  28
ATOM     28  C   UNL     1       4.278  -0.175  23.208  0.00  0.00    +0.139 A 
ATOM     29  C   UNL     1       4.719   0.509  23.077  0.00  0.00    +0.037 A 
ATOM     30  C   UNL     1       5.469   0.588  23.409  0.00  0.00    +0.003 A 
ATOM     31  C   UNL     1       5.779  -0.019  23.875  0.00  0.00    +0.000 A 
ATOM     32  C   UNL     1       5.338  -0.704  24.007  0.00  0.00    +0.003 A 
ATOM     33  C   UNL     1       4.587  -0.782  23.674  0.00  0.00    +0.037 A 
ENDBRANCH  27  28
ENDBRANCH  26  27
ENDBRANCH  24  26
ENDBRANCH  19  23
TORSDOF 7
ENDMDL
MODEL 2
REMARK VINA RESULT:      -8.7      1.126      7.824
REMARK  Name = 
REMARK  7 active torsions:
REMARK  status: ('A' for Active; 'I' for Inactive)
REMARK    1  A    between atoms: O_2  and  C_3
REMARK    2  A    between atoms: C_6  and  C_9
REMARK    3  A    between atoms: N_14  and  C_15
REMARK    4  A    between atoms: C_19  and  N_23
REMARK    5  A    between atoms: C_24  and  C_26
REMARK    6  A    between atoms: C_26  and  O_27
REMARK    7  A    between atoms: O_27  and  C_28
REMARK                            x       y       z     vdW  Elec       q    Type
REMARK                         _______ _______ _______ _____ _____    ______ ____
ROOT
ATOM     15  C   UNL     1       0.112   1.437  24.110  0.00  0.00    +0.154 C 
ATOM     16  C   UNL     1      -0.414   0.816  23.976  0.00  0.00    +0.166 C 
ATOM     17  O   UNL     1      -1.180   1.118  24.023  0.00  0.00    -0.350 OA
ATOM     18  C   UNL     1      -1.128   1.924  24.186  0.00  0.00    +0.166 C 
ATOM     19  C   UNL     1      -1.568   2.610  24.316  0.00  0.00    +0.154 C 
ATOM     20  C   UNL     1      -1.042   3.231  24.450  0.00  0.00    +0.166 C 
ATOM     21  O   UNL     1      -0.276   2.929  24.403  0.00  0.00    -0.350 OA
ATOM     22  C   UNL     1      -0.329   2.121  24.240  0.00  0.00    +0.166 C 
ENDROOT
BRANCH  15  14
ATOM      9  C   UNL     1       2.525   0.349  23.031  0.00  0.00    +0.086 A 
ATOM     10  C   UNL     1       2.085  -0.085  22.485  0.00  0.00    +0.040 A 
ATOM     11  C   UNL     1       1.262  -0.030  22.481  0.00  0.00    +0.103 A 
ATOM     12  N   UNL     1       0.878   0.459  23.024  0.00  0.00    -0.211 NA
ATOM     13  C   UNL     1       1.319   0.893  23.571  0.00  0.00    +0.237 A 
ATOM     14  N   UNL     1       0.935   1.382  24.114  0.00  0.00    -0.200 NA
ATOM     34  N   UNL     1       2.142   0.838  23.574  0.00  0.00    -0.212 NA
BRANCH   9   6
ATOM      3  C   UNL     1       4.995   0.184  23.042  0.00  0.00    +0.139 A 
ATOM      4  C   UNL     1       4.627   0.850  22.723  0.00  0.00    +0.037 A 
ATOM      5  C   UNL     1       3.804   0.905  22.720  0.00  0.00    +0.005 A 
ATOM      6  C   UNL     1       3.348   0.294  23.035  0.00  0.00    +0.018 A 
ATOM      7  C   UNL     1       3.715  -0.372  23.353  0.00  0.00    +0.005 A 
ATOM      8  C   UNL     1       4.539  -0.428  23.357  0.00  0.00    +0.037 A 
BRANCH   3   2
ATOM      1  C   UNL     1       6.203  -0.250  23.668  0.00  0.00    +0.252 C 
ATOM      2  O   UNL     1       5.818   0.129  23.045  0.00  0.00    -0.471 OA
ENDBRANCH   3   2
ENDBRANCH   9   6
ENDBRANCH  15  14
BRANCH  19  23
ATOM     23  N   UNL     1      -2.392   2.665  24.312  0.00  0.00    -0.199 NA
ATOM     24  C   UNL     1      -2.781   3.061  24.922  0.00  0.00    +0.286 C 
ATOM     25  O   UNL     1      -2.348   3.403  25.535  0.00  0.00    -0.269 OA
BRANCH  24  26
ATOM     26  C   UNL     1      -3.605   3.116  24.918  0.00  0.00    +0.291 C 
BRANCH  26  27
ATOM     27  O   UNL     1      -4.040   2.839  25.562  0.00  0.00    -0.466 OA
BRANCH  27  28
ATOM     28  C   UNL     1      -4.828   2.615  25.463  0.00  0.00    +0.139 A 
ATOM     29  C   UNL     1      -5.012   1.859  25.191  0.00  0.00    +0.037 A 
ATOM     30  C   UNL     1      -5.800   1.636  25.093  0.00  0.00    +0.003 A 
ATOM     31  C   UNL     1      -6.404   2.170  25.267  0.00  0.00    +0.000 A 
ATOM     32  C   UNL     1      -6.221   2.928  25.539  0.00  0.00    +0.003 A 
ATOM     33  C   UNL     1      -5.432   3.150  25.638  0.00  0.00    +0.037 A 
ENDBRANCH  27  28
ENDBRANCH  26  27
ENDBRANCH  24  26
ENDBRANCH  19  23
TORSDOF 7
ENDMDL
MODEL 3
REMARK VINA RESULT:      -6.9     15.293     17.872
REMARK  Name = 
REMARK  7 active torsions:
REMARK  status: ('A' for Active; 'I' for Inactive)
REMARK    1  A    between atoms: O_2  and  C_3
REMARK    2  A    between atoms: C_6  and  C_9
REMARK    3  A    between atoms: N_14  and  C_15
REMARK    4  A    between atoms: C_19  and  N_23
REMARK    5  A    between atoms: C_24  and  C_26
REMARK    6  A    between atoms: C_26  and  O_27
REMARK    7  A    between atoms: O_27  and  C_28
REMARK                            x       y       z     vdW  Elec       q    Type
REMARK                         _______ _______ _______ _____ _____    ______ ____
ROOT
ATOM     15  C   UNL     1      12.285  -6.038  31.560  0.00  0.00    +0.154 C 
ATOM     16  C   UNL     1      12.154  -6.292  30.786  0.00  0.00    +0.166 C 
ATOM     17  O   UNL     1      11.602  -6.904  30.810  0.00  0.00    -0.350 OA
ATOM     18  C   UNL     1      11.393  -7.029  31.597  0.00  0.00    +0.166 C 
ATOM     19  C   UNL     1      10.923  -7.484  32.100  0.00  0.00    +0.154 C 
ATOM     20  C   UNL     1      11.054  -7.230  32.873  0.00  0.00    +0.166 C 
ATOM     21  O   UNL     1      11.606  -6.617  32.849  0.00  0.00    -0.350 OA
ATOM     22  C   UNL     1      11.815  -6.493  32.061  0.00  0.00    +0.166 C 
ENDROOT
BRANCH  15  14
ATOM      9  C   UNL     1      14.780  -4.669  31.291  0.00  0.00    +0.086 A 
ATOM     10  C   UNL     1      15.003  -5.193  30.694  0.00  0.00    +0.040 A 
ATOM     11  C   UNL     1      14.491  -5.797  30.463  0.00  0.00    +0.103 A 
ATOM     12  N   UNL     1      13.756  -5.877  30.828  0.00  0.00    -0.211 NA
ATOM     13  C   UNL     1      13.533  -5.353  31.426  0.00  0.00    +0.237 A 
ATOM     14  N   UNL     1      12.798  -5.433  31.791  0.00  0.00    -0.200 NA
ATOM     34  N   UNL     1      14.045  -4.749  31.656  0.00  0.00    -0.212 NA
BRANCH   9   6
ATOM      3  C   UNL     1      16.317  -2.857  31.985  0.00  0.00    +0.139 A 
ATOM      4  C   UNL     1      16.008  -2.866  31.219  0.00  0.00    +0.037 A 
ATOM      5  C   UNL     1      15.496  -3.470  30.988  0.00  0.00    +0.005 A 
ATOM      6  C   UNL     1      15.292  -4.065  31.522  0.00  0.00    +0.018 A 
ATOM      7  C   UNL     1      15.601  -4.057  32.287  0.00  0.00    +0.005 A 
ATOM      8  C   UNL     1      16.113  -3.452  32.518  0.00  0.00    +0.037 A 
BRANCH   3   2
ATOM      1  C   UNL     1      16.649  -1.789  32.873  0.00  0.00    +0.252 C 
ATOM      2  O   UNL     1      16.829  -2.253  32.216  0.00  0.00    -0.471 OA
ENDBRANCH   3   2
ENDBRANCH   9   6
ENDBRANCH  15  14
BRANCH  19  23
ATOM     23  N   UNL     1      10.411  -8.088  31.869  0.00  0.00    -0.199 NA
ATOM     24  C   UNL     1       9.666  -8.155  32.218  0.00  0.00    +0.286 C 
ATOM     25  O   UNL     1       9.434  -7.617  32.799  0.00  0.00    -0.269 OA
BRANCH  24  26
ATOM     26  C   UNL     1       9.154  -8.759  31.987  0.00  0.00    +0.291 C 
BRANCH  26  27
ATOM     27  O   UNL     1       8.338  -8.648  32.031  0.00  0.00    -0.466 OA
BRANCH  27  28
ATOM     28  C   UNL     1       7.830  -9.138  31.605  0.00  0.00    +0.139 A 
ATOM     29  C   UNL     1       7.795  -9.944  31.774  0.00  0.00    +0.037 A 
ATOM     30  C   UNL     1       7.287 -10.434  31.348  0.00  0.00    +0.003 A 
ATOM     31  C   UNL     1       6.813 -10.118  30.752  0.00  0.00    +0.000 A 
ATOM     32  C   UNL     1       6.847  -9.311  30.581  0.00  0.00    +0.003 A 
ATOM     33  C   UNL     1       7.356  -8.821  31.008  0.00  0.00    +0.037 A 
ENDBRANCH  27  28
ENDBRANCH  26  27
ENDBRANCH  24  26
ENDBRANCH  19  23
TORSDOF 7
ENDMDL
