MODEL 1
REMARK VINA RESULT:      -9.4      0.000      0.000
REMARK  Name = 
REMARK  7 active torsions:
REMARK  status: ('A' for Active; 'I' for Inactive)
REMARK    1  A    between atoms: C_2  and  C_4
REMARK    2  A    between atoms: C_4  and  C_5
REMARK    3  A    between atoms: C_5  and  N_6
REMARK    4  A    between atoms: C_7  and  C_9
REMARK    5  A    between atoms: C_11  and  N_12
REMARK    6  A    between atoms: N_12  and  S_13
REMARK    7  A    between atoms: S_13  and  C_16
REMARK                            x       y       z     vdW  Elec       q    Type
REMARK                         _______ _______ _______ _____ _____    ______ ____
ROOT
ATOM      9  C   UNL     1      -3.375   2.464  24.885  0.00  0.00    +0.033 C 
ATOM     10  C   UNL     1      -3.675   1.728  24.661  0.00  0.00    -0.004 C 
ATOM     11  C   UNL     1      -4.483   1.573  24.733  0.00  0.00    +0.152 C 
ATOM     21  C   UNL     1      -4.990   2.153  25.028  0.00  0.00    +0.204 C 
ATOM     22  O   UNL     1      -5.796   1.998  25.100  0.00  0.00    -0.218 OA
ATOM     23  C   UNL     1      -4.689   2.888  25.252  0.00  0.00    +0.188 C 
ATOM     24  O   UNL     1      -5.197   3.469  25.547  0.00  0.00    -0.220 OA
ATOM     25  C   UNL     1      -3.883   3.044  25.180  0.00  0.00    +0.066 C 
ENDROOT
BRANCH   9   7
ATOM      6  N   UNL     1      -2.046   2.365  25.399  0.00  0.00    -0.201 NA
ATOM      7  C   UNL     1      -2.568   2.619  24.813  0.00  0.00    +0.261 C 
ATOM      8  O   UNL     1      -2.283   3.027  24.156  0.00  0.00    -0.269 OA
BRANCH   6   5
ATOM      5  C   UNL     1      -1.238   2.520  25.327  0.00  0.00    +0.125 C 
BRANCH   5   4
ATOM      4  C   UNL     1      -0.702   2.153  25.835  0.00  0.00    +0.112 C 
BRANCH   4   2
ATOM      1  N   UNL     1       0.478   2.733  26.397  0.00  0.00    -0.088 NA
ATOM      2  C   UNL     1       0.103   2.330  25.782  0.00  0.00    +0.263 C 
ATOM      3  O   UNL     1       0.532   2.104  25.115  0.00  0.00    -0.272 OA
ENDBRANCH   4   2
ENDBRANCH   5   4
ENDBRANCH   6   5
ENDBRANCH   9   7
BRANCH  11  12
ATOM     12  N   UNL     1      -4.782   0.837  24.510  0.00  0.00    -0.072 NA
BRANCH  12  13
ATOM     13  S   UNL     1      -4.370   0.149  24.704  0.00  0.00    +0.083 S 
ATOM     14  O   UNL     1      -4.070   0.111  23.935  0.00  0.00    -0.151 OA
ATOM     15  O   UNL     1      -4.670   0.186  25.471  0.00  0.00    -0.151 OA
BRANCH  13  16
ATOM     16  C   UNL     1      -3.959  -0.539  24.898  0.00  0.00    +0.153 A 
ATOM     17  C   UNL     1      -3.737  -0.775  25.657  0.00  0.00    +0.027 A 
ATOM     18  C   UNL     1      -3.338  -1.494  25.595  0.00  0.00    +0.009 A 
ATOM     19  C   UNL     1      -3.314  -1.703  24.797  0.00  0.00    +0.037 A 
ATOM     20  S   UNL     1      -3.697  -1.114  24.366  0.00  0.00    -0.067 S 
ENDBRANCH  13  16
ENDBRANCH  12  13
ENDBRANCH  11  12
TORSDOF 7
ENDMDL
MODEL 2
REMARK VINA RESULT:      -9.4      1.852      3.765
REMARK  Name = 
REMARK  7 active torsions:
REMARK  status: ('A' for Active; 'I' for Inactive)
REMARK    1  A    between atoms: C_2  and  C_4
REMARK    2  A    between atoms: C_4  and  C_5
REMARK    3  A    between atoms: C_5  and  N_6
REMARK    4  A    between atoms: C_7  and  C_9
REMARK    5  A    between atoms: C_11  and  N_12
REMARK    6  A    between atoms: N_12  and  S_13
REMARK    7  A    between atoms: S_13  and  C_16
REMARK                            x       y       z     vdW  Elec       q    Type
REMARK                         _______ _______ _______ _____ _____    ______ ____
ROOT
ATOM      9  C   UNL     1      -4.336   1.199  24.696  0.00  0.00    +0.033 C 
ATOM     10  C   UNL     1      -3.890   1.884  24.586  0.00  0.00    -0.004 C 
ATOM     11  C   UNL     1      -4.191   2.615  24.824  0.00  0.00    +0.152 C 
ATOM     21  C   UNL     1      -4.937   2.660  25.173  0.00  0.00    +0.204 C 
ATOM     22  O   UNL     1      -5.238   3.389  25.411  0.00  0.00    -0.218 OA
ATOM     23  C   UNL     1      -5.383   1.974  25.283  0.00  0.00    +0.188 C 
ATOM     24  O   UNL     1      -6.130   2.018  25.632  0.00  0.00    -0.220 OA
ATOM     25  C   UNL     1      -5.082   1.244  25.045  0.00  0.00    +0.066 C 
ENDROOT
BRANCH   9   7
ATOM      6  N   UNL     1      -3.803  -0.086  25.023  0.00  0.00    -0.201 NA
ATOM      7  C   UNL     1      -4.034   0.468  24.458  0.00  0.00    +0.261 C 
ATOM      8  O   UNL     1      -3.964   0.293  23.656  0.00  0.00    -0.269 OA
BRANCH   6   5
ATOM      5  C   UNL     1      -3.502  -0.817  24.785  0.00  0.00    +0.125 C 
BRANCH   5   4
ATOM      4  C   UNL     1      -3.253  -1.364  25.350  0.00  0.00    +0.112 C 
BRANCH   4   2
ATOM      1  N   UNL     1      -2.264  -2.272  24.861  0.00  0.00    -0.088 NA
ATOM      2  C   UNL     1      -3.034  -2.126  25.118  0.00  0.00    +0.263 C 
ATOM      3  O   UNL     1      -3.584  -2.738  25.143  0.00  0.00    -0.272 OA
ENDBRANCH   4   2
ENDBRANCH   5   4
ENDBRANCH   6   5
ENDBRANCH   9   7
BRANCH  11  12
ATOM     12  N   UNL     1      -3.745   3.300  24.714  0.00  0.00    -0.072 NA
BRANCH  12  13
ATOM     13  S   UNL     1      -2.938   3.300  24.890  0.00  0.00    +0.083 S 
ATOM     14  O   UNL     1      -3.113   3.400  25.691  0.00  0.00    -0.151 OA
ATOM     15  O   UNL     1      -2.764   3.199  24.090  0.00  0.00    -0.151 OA
BRANCH  13  16
ATOM     16  C   UNL     1      -2.133   3.299  25.066  0.00  0.00    +0.153 A 
ATOM     17  C   UNL     1      -1.800   3.347  25.819  0.00  0.00    +0.027 A 
ATOM     18  C   UNL     1      -0.980   3.328  25.738  0.00  0.00    +0.009 A 
ATOM     19  C   UNL     1      -0.805   3.268  24.934  0.00  0.00    +0.037 A 
ATOM     20  S   UNL     1      -1.517   3.250  24.518  0.00  0.00    -0.067 S 
ENDBRANCH  13  16
ENDBRANCH  12  13
ENDBRANCH  11  12
TORSDOF 7
ENDMDL
MODEL 3
REMARK VINA RESULT:      -9.1      2.050      4.511
REMARK  Name = 
REMARK  7 active torsions:
REMARK  status: ('A' for Active; 'I' for Inactive)
REMARK    1  A    between atoms: C_2  and  C_4
REMARK    2  A    between atoms: C_4  and  C_5
REMARK    3  A    between atoms: C_5  and  N_6
REMARK    4  A    between atoms: C_7  and  C_9
REMARK    5  A    between atoms: C_11  and  N_12
REMARK    6  A    between atoms: N_12  and  S_13
REMARK    7  A    between atoms: S_13  and  C_16
REMARK                            x       y       z     vdW  Elec       q    Type
REMARK                         _______ _______ _______ _____ _____    ______ ____
ROOT
ATOM      9  C   UNL     1      -3.423  -0.909  25.069  0.00  0.00    +0.033 C 
ATOM     10  C   UNL     1      -2.618  -0.764  25.175  0.00  0.00    -0.004 C 
ATOM     11  C   UNL     1      -2.062  -1.318  24.920  0.00  0.00    +0.152 C 
ATOM     21  C   UNL     1      -2.311  -2.016  24.558  0.00  0.00    +0.204 C 
ATOM     22  O   UNL     1      -1.756  -2.569  24.303  0.00  0.00    -0.218 OA
ATOM     23  C   UNL     1      -3.117  -2.161  24.453  0.00  0.00    +0.188 C 
ATOM     24  O   UNL     1      -3.367  -2.860  24.092  0.00  0.00    -0.220 OA
ATOM     25  C   UNL     1      -3.673  -1.608  24.708  0.00  0.00    +0.066 C 
ENDROOT
BRANCH   9   7
ATOM      6  N   UNL     1      -4.185   0.277  24.837  0.00  0.00    -0.201 NA
ATOM      7  C   UNL     1      -3.980  -0.355  25.325  0.00  0.00    +0.261 C 
ATOM      8  O   UNL     1      -4.329  -0.435  26.067  0.00  0.00    -0.269 OA
BRANCH   6   5
ATOM      5  C   UNL     1      -4.741   0.831  25.093  0.00  0.00    +0.125 C 
BRANCH   5   4
ATOM      4  C   UNL     1      -4.876   1.514  24.650  0.00  0.00    +0.112 C 
BRANCH   4   2
ATOM      1  N   UNL     1      -5.182   2.787  25.224  0.00  0.00    -0.088 NA
ATOM      2  C   UNL     1      -5.432   2.068  24.906  0.00  0.00    +0.263 C 
ATOM      3  O   UNL     1      -6.237   1.902  24.843  0.00  0.00    -0.272 OA
ENDBRANCH   4   2
ENDBRANCH   5   4
ENDBRANCH   6   5
ENDBRANCH   9   7
BRANCH  11  12
ATOM     12  N   UNL     1      -1.257  -1.172  25.025  0.00  0.00    -0.072 NA
BRANCH  12  13
ATOM     13  S   UNL     1      -0.958  -0.410  24.914  0.00  0.00    +0.083 S 
ATOM     14  O   UNL     1      -0.928  -0.541  24.100  0.00  0.00    -0.151 OA
ATOM     15  O   UNL     1      -0.989  -0.280  25.729  0.00  0.00    -0.151 OA
BRANCH  13  16
ATOM     16  C   UNL     1      -0.660   0.350  24.804  0.00  0.00    +0.153 A 
ATOM     17  C   UNL     1      -0.628   0.947  25.373  0.00  0.00    +0.027 A 
ATOM     18  C   UNL     1      -0.289   1.613  25.025  0.00  0.00    +0.009 A 
ATOM     19  C   UNL     1      -0.111   1.429  24.241  0.00  0.00    +0.037 A 
ATOM     20  S   UNL     1      -0.340   0.648  24.104  0.00  0.00    -0.067 S 
ENDBRANCH  13  16
ENDBRANCH  12  13
ENDBRANCH  11  12
TORSDOF 7
ENDMDL
MODEL 4
REMARK VINA RESULT:      -9.0      2.153      3.418
REMARK  Name = 
REMARK  7 active torsions:
REMARK  status: ('A' for Active; 'I' for Inactive)
REMARK    1  A    between atoms: C_2  and  C_4
REMARK    2  A    between atoms: C_4  and  C_5
REMARK    3  A    between atoms: C_5  and  N_6
REMARK    4  A    between atoms: C_7  and  C_9
REMARK    5  A    between atoms: C_11  and  N_12
REMARK    6  A    between atoms: N_12  and  S_13
REMARK    7  A    between atoms: S_13  and  C_16
REMARK                            x       y       z     vdW  Elec       q    Type
REMARK                         _______ _______ _______ _____ _____    ______ ____
ROOT
ATOM      9  C   UNL     1      -1.672   2.340  24.652  0.00  0.00    +0.033 C 
ATOM     10  C   UNL     1      -2.430   2.643  24.534  0.00  0.00    -0.004 C 
ATOM     11  C   UNL     1      -2.596   3.427  24.734  0.00  0.00    +0.152 C 
ATOM     21  C   UNL     1      -2.004   3.906  25.052  0.00  0.00    +0.204 C 
ATOM     22  O   UNL     1      -2.169   4.688  25.252  0.00  0.00    -0.218 OA
ATOM     23  C   UNL     1      -1.246   3.601  25.170  0.00  0.00    +0.188 C 
ATOM     24  O   UNL     1      -0.653   4.080  25.488  0.00  0.00    -0.220 OA
ATOM     25  C   UNL     1      -1.080   2.818  24.970  0.00  0.00    +0.066 C 
ENDROOT
BRANCH   9   7
ATOM      6  N   UNL     1      -1.547   0.966  25.027  0.00  0.00    -0.201 NA
ATOM      7  C   UNL     1      -1.507   1.556  24.452  0.00  0.00    +0.261 C 
ATOM      8  O   UNL     1      -1.301   1.363  23.677  0.00  0.00    -0.269 OA
BRANCH   6   5
ATOM      5  C   UNL     1      -1.382   0.183  24.827  0.00  0.00    +0.125 C 
BRANCH   5   4
ATOM      4  C   UNL     1      -1.470  -0.414  25.390  0.00  0.00    +0.112 C 
BRANCH   4   2
ATOM      1  N   UNL     1      -1.769  -1.733  24.929  0.00  0.00    -0.088 NA
ATOM      2  C   UNL     1      -1.226  -1.183  25.217  0.00  0.00    +0.263 C 
ATOM      3  O   UNL     1      -0.440  -1.402  25.332  0.00  0.00    -0.272 OA
ENDBRANCH   4   2
ENDBRANCH   5   4
ENDBRANCH   6   5
ENDBRANCH   9   7
BRANCH  11  12
ATOM     12  N   UNL     1      -3.353   3.731  24.617  0.00  0.00    -0.072 NA
BRANCH  12  13
ATOM     13  S   UNL     1      -4.015   3.278  24.817  0.00  0.00    +0.083 S 
ATOM     14  O   UNL     1      -3.910   3.477  25.611  0.00  0.00    -0.151 OA
ATOM     15  O   UNL     1      -4.119   3.080  24.023  0.00  0.00    -0.151 OA
BRANCH  13  16
ATOM     16  C   UNL     1      -4.675   2.827  25.016  0.00  0.00    +0.153 A 
ATOM     17  C   UNL     1      -4.998   2.214  24.568  0.00  0.00    +0.027 A 
ATOM     18  C   UNL     1      -5.651   1.917  24.974  0.00  0.00    +0.009 A 
ATOM     19  C   UNL     1      -5.732   2.346  25.674  0.00  0.00    +0.037 A 
ATOM     20  S   UNL     1      -5.129   2.908  25.701  0.00  0.00    -0.067 S 
ENDBRANCH  13  16
ENDBRANCH  12  13
ENDBRANCH  11  12
TORSDOF 7
ENDMDL
