MODEL 1
REMARK VINA RESULT:     -11.7      0.000      0.000
REMARK  Name = 
REMARK  5 active torsions:
REMARK  status: ('A' for Active; 'I' for Inactive)
REMARK    1  A    between atoms: N_6  and  C_7
REMARK    2  A    between atoms: C_7  and  C_8
REMARK    3  A    between atoms: C_17  and  C_18
REMARK    4  A    between atoms: C_18  and  C_19
REMARK    5  A    between atoms: C_19  and  C_20
REMARK                            x       y       z     vdW  Elec       q    Type
REMARK                         _______ _______ _______ _____ _____    ______ ____
ROOT
ATOM      1  C   UNL     1      -2.894   1.689  23.462  0.00  0.00    +0.090 C 
ATOM      2  N   UNL     1      -3.083   2.122  24.139  0.00  0.00    -0.271 NA
ATOM      3  C   UNL     1      -2.622   2.791  24.277  0.00  0.00    +0.083 C 
ATOM      4  C   UNL     1      -2.006   3.028  23.782  0.00  0.00    +0.035 C 
ATOM      5  C   UNL     1      -1.676   3.716  24.097  0.00  0.00    +0.074 C 
ATOM      6  N   UNL     1      -2.087   3.903  24.786  0.00  0.00    -0.265 NA
ATOM     12  C   UNL     1      -2.672   3.332  24.898  0.00  0.00    +0.151 C 
ATOM     13  C   UNL     1      -3.197   3.337  25.535  0.00  0.00    +0.257 C 
ATOM     14  O   UNL     1      -3.105   3.958  26.069  0.00  0.00    -0.272 OA
ATOM     15  N   UNL     1      -3.800   2.802  25.708  0.00  0.00    -0.203 NA
ATOM     16  C   UNL     1      -4.029   2.130  25.286  0.00  0.00    +0.131 C 
ATOM     17  C   UNL     1      -3.710   1.827  24.588  0.00  0.00    +0.080 C 
ENDROOT
BRANCH   6   7
ATOM      7  C   UNL     1      -1.940   4.549  25.279  0.00  0.00    +0.072 C 
BRANCH   7   8
ATOM      8  C   UNL     1      -1.346   5.087  25.086  0.00  0.00    +0.015 C 
ATOM      9  C   UNL     1      -0.750   5.625  24.894  0.00  0.00    +0.001 C 
ATOM     10  C   UNL     1      -1.917   5.637  24.859  0.00  0.00    +0.001 C 
ATOM     11  C   UNL     1      -0.774   4.537  25.313  0.00  0.00    +0.001 C 
ENDBRANCH   7   8
ENDBRANCH   6   7
BRANCH  17  18
ATOM     18  C   UNL     1      -4.063   1.140  24.301  0.00  0.00    +0.027 C 
BRANCH  18  19
ATOM     19  C   UNL     1      -4.140   0.480  24.791  0.00  0.00    +0.087 C 
BRANCH  19  20
ATOM     20  C   UNL     1      -4.176  -0.276  24.463  0.00  0.00    +0.229 C 
ATOM     21  O   UNL     1      -4.531  -0.389  23.726  0.00  0.00    -0.275 OA
ATOM     22  N   UNL     1      -3.858  -0.919  24.870  0.00  0.00    -0.259 N 
ATOM     23  C   UNL     1      -3.488  -0.891  25.607  0.00  0.00    +0.103 C 
ATOM     24  C   UNL     1      -3.255  -1.657  25.804  0.00  0.00    +0.049 C 
ATOM     25  C   UNL     1      -3.481  -2.158  25.190  0.00  0.00    -0.007 A 
ATOM     26  C   UNL     1      -3.396  -2.972  25.082  0.00  0.00    -0.003 A 
ATOM     27  C   UNL     1      -3.683  -3.329  24.396  0.00  0.00    -0.000 A 
ATOM     28  C   UNL     1      -4.056  -2.872  23.818  0.00  0.00    +0.001 A 
ATOM     29  C   UNL     1      -4.141  -2.060  23.927  0.00  0.00    +0.015 A 
ATOM     30  C   UNL     1      -3.854  -1.702  24.612  0.00  0.00    +0.050 A 
ENDBRANCH  19  20
ENDBRANCH  18  19
ENDBRANCH  17  18
TORSDOF 5
ENDMDL
MODEL 2
REMARK VINA RESULT:     -11.4      1.361      6.014
REMARK  Name = 
REMARK  5 active torsions:
REMARK  status: ('A' for Active; 'I' for Inactive)
REMARK    1  A    between atoms: N_6  and  C_7
REMARK    2  A    between atoms: C_7  and  C_8
REMARK    3  A    between atoms: C_17  and  C_18
REMARK    4  A    between atoms: C_18  and  C_19
REMARK    5  A    between atoms: C_19  and  C_20
REMARK                            x       y       z     vdW  Elec       q    Type
REMARK                         _______ _______ _______ _____ _____    ______ ____
ROOT
ATOM      1  C   UNL     1      -0.890   0.011  24.724  0.00  0.00    +0.090 C 
ATOM      2  N   UNL     1      -1.713   0.024  24.791  0.00  0.00    -0.271 NA
ATOM      3  C   UNL     1      -2.090  -0.704  24.715  0.00  0.00    +0.083 C 
ATOM      4  C   UNL     1      -1.688  -1.412  24.581  0.00  0.00    +0.035 C 
ATOM      5  C   UNL     1      -2.246  -2.018  24.538  0.00  0.00    +0.074 C 
ATOM      6  N   UNL     1      -2.993  -1.685  24.645  0.00  0.00    -0.265 NA
ATOM     12  C   UNL     1      -2.897  -0.873  24.754  0.00  0.00    +0.151 C 
ATOM     13  C   UNL     1      -3.526  -0.354  24.879  0.00  0.00    +0.257 C 
ATOM     14  O   UNL     1      -4.276  -0.696  24.888  0.00  0.00    -0.272 OA
ATOM     15  N   UNL     1      -3.503   0.463  24.995  0.00  0.00    -0.203 NA
ATOM     16  C   UNL     1      -2.846   0.961  25.015  0.00  0.00    +0.131 C 
ATOM     17  C   UNL     1      -2.049   0.766  24.924  0.00  0.00    +0.080 C 
ENDROOT
BRANCH   6   7
ATOM      7  C   UNL     1      -3.711  -2.093  24.642  0.00  0.00    +0.072 C 
BRANCH   7   8
ATOM      8  C   UNL     1      -3.736  -2.882  24.404  0.00  0.00    +0.015 C 
ATOM      9  C   UNL     1      -3.762  -3.672  24.166  0.00  0.00    +0.001 C 
ATOM     10  C   UNL     1      -3.466  -3.115  25.148  0.00  0.00    +0.001 C 
ATOM     11  C   UNL     1      -4.007  -2.649  23.661  0.00  0.00    +0.001 C 
ENDBRANCH   7   8
ENDBRANCH   6   7
BRANCH  17  18
ATOM     18  C   UNL     1      -1.518   1.396  24.973  0.00  0.00    +0.027 C 
BRANCH  18  19
ATOM     19  C   UNL     1      -1.771   2.126  25.264  0.00  0.00    +0.087 C 
BRANCH  19  20
ATOM     20  C   UNL     1      -1.368   2.815  25.056  0.00  0.00    +0.229 C 
ATOM     21  O   UNL     1      -0.635   2.766  24.679  0.00  0.00    -0.275 OA
ATOM     22  N   UNL     1      -1.697   3.552  25.223  0.00  0.00    -0.259 N 
ATOM     23  C   UNL     1      -2.421   3.687  25.595  0.00  0.00    +0.103 C 
ATOM     24  C   UNL     1      -2.532   4.503  25.649  0.00  0.00    +0.049 C 
ATOM     25  C   UNL     1      -1.876   4.872  25.312  0.00  0.00    -0.007 A 
ATOM     26  C   UNL     1      -1.683   5.668  25.210  0.00  0.00    -0.003 A 
ATOM     27  C   UNL     1      -0.973   5.875  24.845  0.00  0.00    -0.000 A 
ATOM     28  C   UNL     1      -0.457   5.288  24.582  0.00  0.00    +0.001 A 
ATOM     29  C   UNL     1      -0.651   4.493  24.683  0.00  0.00    +0.015 A 
ATOM     30  C   UNL     1      -1.360   4.285  25.048  0.00  0.00    +0.050 A 
ENDBRANCH  19  20
ENDBRANCH  18  19
ENDBRANCH  17  18
TORSDOF 5
ENDMDL
MODEL 3
REMARK VINA RESULT:     -11.0      1.706      1.979
REMARK  Name = 
REMARK  5 active torsions:
REMARK  status: ('A' for Active; 'I' for Inactive)
REMARK    1  A    between atoms: N_6  and  C_7
REMARK    2  A    between atoms: C_7  and  C_8
REMARK    3  A    between atoms: C_17  and  C_18
REMARK    4  A    between atoms: C_18  and  C_19
REMARK    5  A    between atoms: C_19  and  C_20
REMARK                            x       y       z     vdW  Elec       q    Type
REMARK                         _______ _______ _______ _____ _____    ______ ____
ROOT
ATOM      1  C   UNL     1      -1.276   1.227  23.638  0.00  0.00    +0.090 C 
ATOM      2  N   UNL     1      -1.079   1.544  24.374  0.00  0.00    -0.271 NA
ATOM      3  C   UNL     1      -1.116   2.366  24.432  0.00  0.00    +0.083 C 
ATOM      4  C   UNL     1      -1.333   2.856  23.804  0.00  0.00    +0.035 C 
ATOM      5  C   UNL     1      -1.306   3.637  24.069  0.00  0.00    +0.074 C 
ATOM      6  N   UNL     1      -1.071   3.630  24.860  0.00  0.00    -0.265 NA
ATOM     12  C   UNL     1      -0.953   2.844  25.084  0.00  0.00    +0.151 C 
ATOM     13  C   UNL     1      -0.714   2.619  25.841  0.00  0.00    +0.257 C 
ATOM     14  O   UNL     1      -0.595   3.234  26.376  0.00  0.00    -0.272 OA
ATOM     15  N   UNL     1      -0.578   1.859  26.132  0.00  0.00    -0.203 NA
ATOM     16  C   UNL     1      -0.648   1.137  25.738  0.00  0.00    +0.131 C 
ATOM     17  C   UNL     1      -0.871   0.997  24.956  0.00  0.00    +0.080 C 
ENDROOT
BRANCH   6   7
ATOM      7  C   UNL     1      -0.971   4.292  25.342  0.00  0.00    +0.072 C 
BRANCH   7   8
ATOM      8  C   UNL     1      -1.199   5.037  25.071  0.00  0.00    +0.015 C 
ATOM      9  C   UNL     1      -1.427   5.782  24.800  0.00  0.00    +0.001 C 
ATOM     10  C   UNL     1      -1.945   4.930  25.406  0.00  0.00    +0.001 C 
ATOM     11  C   UNL     1      -0.453   5.144  24.737  0.00  0.00    +0.001 C 
ENDBRANCH   7   8
ENDBRANCH   6   7
BRANCH  17  18
ATOM     18  C   UNL     1      -0.888   0.205  24.725  0.00  0.00    +0.027 C 
BRANCH  18  19
ATOM     19  C   UNL     1      -1.275  -0.353  25.193  0.00  0.00    +0.087 C 
BRANCH  19  20
ATOM     20  C   UNL     1      -1.525  -1.067  24.864  0.00  0.00    +0.229 C 
ATOM     21  O   UNL     1      -1.030  -1.477  24.345  0.00  0.00    -0.275 OA
ATOM     22  N   UNL     1      -2.268  -1.370  25.052  0.00  0.00    -0.259 N 
ATOM     23  C   UNL     1      -2.820  -1.024  25.559  0.00  0.00    +0.103 C 
ATOM     24  C   UNL     1      -3.483  -1.513  25.586  0.00  0.00    +0.049 C 
ATOM     25  C   UNL     1      -3.342  -2.162  25.097  0.00  0.00    -0.007 A 
ATOM     26  C   UNL     1      -3.801  -2.822  24.909  0.00  0.00    -0.003 A 
ATOM     27  C   UNL     1      -3.508  -3.393  24.391  0.00  0.00    -0.000 A 
ATOM     28  C   UNL     1      -2.757  -3.305  24.061  0.00  0.00    +0.001 A 
ATOM     29  C   UNL     1      -2.299  -2.645  24.248  0.00  0.00    +0.015 A 
ATOM     30  C   UNL     1      -2.591  -2.073  24.767  0.00  0.00    +0.050 A 
ENDBRANCH  19  20
ENDBRANCH  18  19
ENDBRANCH  17  18
TORSDOF 5
ENDMDL
MODEL 4
REMARK VINA RESULT:      -9.8      3.213      4.852
REMARK  Name = 
REMARK  5 active torsions:
REMARK  status: ('A' for Active; 'I' for Inactive)
REMARK    1  A    between atoms: N_6  and  C_7
REMARK    2  A    between atoms: C_7  and  C_8
REMARK    3  A    between atoms: C_17  and  C_18
REMARK    4  A    between atoms: C_18  and  C_19
REMARK    5  A    between atoms: C_19  and  C_20
REMARK                            x       y       z     vdW  Elec       q    Type
REMARK                         _______ _______ _______ _____ _____    ______ ____
ROOT
ATOM      1  C   UNL     1      -1.565   2.813  24.297  0.00  0.00    +0.090 C 
ATOM      2  N   UNL     1      -1.943   2.102  24.480  0.00  0.00    -0.271 NA
ATOM      3  C   UNL     1      -2.750   2.155  24.634  0.00  0.00    +0.083 C 
ATOM      4  C   UNL     1      -3.172   2.865  24.612  0.00  0.00    +0.035 C 
ATOM      5  C   UNL     1      -3.959   2.699  24.795  0.00  0.00    +0.074 C 
ATOM      6  N   UNL     1      -4.025   1.888  24.931  0.00  0.00    -0.265 NA
ATOM     12  C   UNL     1      -3.278   1.552  24.832  0.00  0.00    +0.151 C 
ATOM     13  C   UNL     1      -3.127   0.746  24.923  0.00  0.00    +0.257 C 
ATOM     14  O   UNL     1      -3.777   0.281  25.124  0.00  0.00    -0.272 OA
ATOM     15  N   UNL     1      -2.411   0.345  24.840  0.00  0.00    -0.203 NA
ATOM     16  C   UNL     1      -1.669   0.650  24.645  0.00  0.00    +0.131 C 
ATOM     17  C   UNL     1      -1.461   1.432  24.485  0.00  0.00    +0.080 C 
ENDROOT
BRANCH   6   7
ATOM      7  C   UNL     1      -4.716   1.484  25.131  0.00  0.00    +0.072 C 
BRANCH   7   8
ATOM      8  C   UNL     1      -5.432   1.891  25.179  0.00  0.00    +0.015 C 
ATOM      9  C   UNL     1      -6.148   2.298  25.229  0.00  0.00    +0.001 C 
ATOM     10  C   UNL     1      -5.607   1.676  24.403  0.00  0.00    +0.001 C 
ATOM     11  C   UNL     1      -5.257   2.106  25.956  0.00  0.00    +0.001 C 
ENDBRANCH   7   8
ENDBRANCH   6   7
BRANCH  17  18
ATOM     18  C   UNL     1      -0.666   1.562  24.305  0.00  0.00    +0.027 C 
BRANCH  18  19
ATOM     19  C   UNL     1      -0.205   0.945  24.008  0.00  0.00    +0.087 C 
BRANCH  19  20
ATOM     20  C   UNL     1       0.593   1.071  23.838  0.00  0.00    +0.229 C 
ATOM     21  O   UNL     1       0.993   1.705  24.184  0.00  0.00    -0.275 OA
ATOM     22  N   UNL     1       0.989   0.566  23.321  0.00  0.00    -0.259 N 
ATOM     23  C   UNL     1       0.663  -0.087  22.935  0.00  0.00    +0.103 C 
ATOM     24  C   UNL     1       1.254  -0.433  22.475  0.00  0.00    +0.049 C 
ATOM     25  C   UNL     1       1.945   0.006  22.577  0.00  0.00    -0.007 A 
ATOM     26  C   UNL     1       2.703  -0.077  22.260  0.00  0.00    -0.003 A 
ATOM     27  C   UNL     1       3.297   0.457  22.467  0.00  0.00    -0.000 A 
ATOM     28  C   UNL     1       3.133   1.074  22.990  0.00  0.00    +0.001 A 
ATOM     29  C   UNL     1       2.376   1.156  23.306  0.00  0.00    +0.015 A 
ATOM     30  C   UNL     1       1.781   0.622  23.100  0.00  0.00    +0.050 A 
ENDBRANCH  19  20
ENDBRANCH  18  19
ENDBRANCH  17  18
TORSDOF 5
ENDMDL
MODEL 5
REMARK VINA RESULT:      -9.5      3.151      4.674
REMARK  Name = 
REMARK  5 active torsions:
REMARK  status: ('A' for Active; 'I' for Inactive)
REMARK    1  A    between atoms: N_6  and  C_7
REMARK    2  A    between atoms: C_7  and  C_8
REMARK    3  A    between atoms: C_17  and  C_18
REMARK    4  A    between atoms: C_18  and  C_19
REMARK    5  A    between atoms: C_19  and  C_20
REMARK                            x       y       z     vdW  Elec       q    Type
REMARK                         _______ _______ _______ _____ _____    ______ ____
ROOT
ATOM      1  C   UNL     1      -0.508   2.394  24.489  0.00  0.00    +0.090 C 
ATOM      2  N   UNL     1      -0.498   1.584  24.331  0.00  0.00    -0.271 NA
ATOM      3  C   UNL     1       0.183   1.298  23.967  0.00  0.00    +0.083 C 
ATOM      4  C   UNL     1       0.825   1.776  23.765  0.00  0.00    +0.035 C 
ATOM      5  C   UNL     1       1.398   1.298  23.414  0.00  0.00    +0.074 C 
ATOM      6  N   UNL     1       1.111   0.525  23.398  0.00  0.00    -0.265 NA
ATOM     12  C   UNL     1       0.360   0.525  23.740  0.00  0.00    +0.151 C 
ATOM     13  C   UNL     1      -0.102  -0.154  23.821  0.00  0.00    +0.257 C 
ATOM     14  O   UNL     1       0.234  -0.851  23.537  0.00  0.00    -0.272 OA
ATOM     15  N   UNL     1      -0.854  -0.227  24.150  0.00  0.00    -0.203 NA
ATOM     16  C   UNL     1      -1.332   0.361  24.479  0.00  0.00    +0.131 C 
ATOM     17  C   UNL     1      -1.173   1.167  24.559  0.00  0.00    +0.080 C 
ENDROOT
BRANCH   6   7
ATOM      7  C   UNL     1       1.506  -0.133  23.094  0.00  0.00    +0.072 C 
BRANCH   7   8
ATOM      8  C   UNL     1       2.195  -0.032  22.652  0.00  0.00    +0.015 C 
ATOM      9  C   UNL     1       2.884   0.068  22.209  0.00  0.00    +0.001 C 
ATOM     10  C   UNL     1       2.638  -0.009  23.347  0.00  0.00    +0.001 C 
ATOM     11  C   UNL     1       1.752  -0.056  21.956  0.00  0.00    +0.001 C 
ENDBRANCH   7   8
ENDBRANCH   6   7
BRANCH  17  18
ATOM     18  C   UNL     1      -1.768   1.615  24.915  0.00  0.00    +0.027 C 
BRANCH  18  19
ATOM     19  C   UNL     1      -2.559   1.398  24.822  0.00  0.00    +0.087 C 
BRANCH  19  20
ATOM     20  C   UNL     1      -3.158   1.920  25.042  0.00  0.00    +0.229 C 
ATOM     21  O   UNL     1      -2.968   2.683  25.296  0.00  0.00    -0.275 OA
ATOM     22  N   UNL     1      -3.947   1.682  25.008  0.00  0.00    -0.259 N 
ATOM     23  C   UNL     1      -4.219   0.941  24.766  0.00  0.00    +0.103 C 
ATOM     24  C   UNL     1      -5.043   0.943  24.818  0.00  0.00    +0.049 C 
ATOM     25  C   UNL     1      -5.279   1.684  25.091  0.00  0.00    -0.007 A 
ATOM     26  C   UNL     1      -6.024   2.002  25.249  0.00  0.00    -0.003 A 
ATOM     27  C   UNL     1      -6.091   2.777  25.524  0.00  0.00    -0.000 A 
ATOM     28  C   UNL     1      -5.414   3.234  25.641  0.00  0.00    +0.001 A 
ATOM     29  C   UNL     1      -4.670   2.916  25.484  0.00  0.00    +0.015 A 
ATOM     30  C   UNL     1      -4.602   2.140  25.209  0.00  0.00    +0.050 A 
ENDBRANCH  19  20
ENDBRANCH  18  19
ENDBRANCH  17  18
TORSDOF 5
ENDMDL
