MODEL 1
REMARK VINA RESULT:      -9.4      0.000      0.000
REMARK  Name = 
REMARK  6 active torsions:
REMARK  status: ('A' for Active; 'I' for Inactive)
REMARK    1  A    between atoms: N_2  and  C_4
REMARK    2  A    between atoms: C_7  and  C_10
REMARK    3  A    between atoms: N_12  and  C_13
REMARK    4  A    between atoms: C_13  and  C_14
REMARK    5  A    between atoms: C_21  and  C_22
REMARK    6  A    between atoms: C_24  and  C_28
REMARK                            x       y       z     vdW  Elec       q    Type
REMARK                         _______ _______ _______ _____ _____    ______ ____
ROOT
ATOM     14  C   UNL     1       0.223   0.183  23.393  0.00  0.00    +0.079 C 
ATOM     15  C   UNL     1      -0.177   0.012  24.038  0.00  0.00    +0.018 C 
ATOM     16  C   UNL     1      -0.827   0.411  24.309  0.00  0.00    +0.010 C 
ATOM     17  C   UNL     1      -1.143   0.057  25.071  0.00  0.00    +0.018 C 
ATOM     18  C   UNL     1      -0.738   0.106  24.560  0.00  0.00    +0.072 C 
ATOM     19  N   UNL     1      -0.441   0.585  23.676  0.00  0.00    -0.272 NA
ATOM     20  C   UNL     1      -0.898   1.308  23.358  0.00  0.00    +0.078 C 
ATOM     21  C   UNL     1      -1.263   1.107  23.998  0.00  0.00    +0.056 C 
ENDROOT
BRANCH  21  22
ATOM     22  C   UNL     1      -1.927   1.469  24.329  0.00  0.00    +0.058 A 
ATOM     23  C   UNL     1      -2.693   1.162  24.334  0.00  0.00    +0.036 A 
ATOM     24  C   UNL     1      -3.181   1.703  24.719  0.00  0.00    +0.108 A 
ATOM     25  N   UNL     1      -2.717   2.345  24.952  0.00  0.00    -0.169 NA
ATOM     26  N   UNL     1      -1.942   2.200  24.710  0.00  0.00    -0.253 N 
ATOM     27  C   UNL     1      -1.295   2.698  24.829  0.00  0.00    +0.153 C 
BRANCH  24  28
ATOM     28  C   UNL     1      -3.991   1.619  24.850  0.00  0.00    +0.049 A 
ATOM     29  C   UNL     1      -4.385   0.913  25.012  0.00  0.00    +0.009 A 
ATOM     30  C   UNL     1      -5.188   1.084  25.104  0.00  0.00    +0.008 A 
ATOM     31  C   UNL     1      -5.289   1.895  24.998  0.00  0.00    +0.035 A 
ATOM     32  S   UNL     1      -4.550   2.227  24.841  0.00  0.00    -0.085 S 
ENDBRANCH  24  28
ENDBRANCH  21  22
BRANCH  14  13
ATOM     13  C   UNL     1       0.832   0.061  22.851  0.00  0.00    +0.131 C 
BRANCH  13  12
ATOM     10  C   UNL     1       2.227   0.028  22.546  0.00  0.00    +0.265 C 
ATOM     11  O   UNL     1       2.051  -0.072  21.747  0.00  0.00    -0.268 OA
ATOM     12  N   UNL     1       1.618   0.094  23.099  0.00  0.00    -0.200 NA
BRANCH  10   7
ATOM      4  C   UNL     1       4.586   0.128  23.290  0.00  0.00    +0.048 A 
ATOM      5  C   UNL     1       4.150  -0.565  23.393  0.00  0.00    +0.015 A 
ATOM      6  C   UNL     1       3.364  -0.598  23.145  0.00  0.00    +0.006 A 
ATOM      7  C   UNL     1       3.014   0.061  22.794  0.00  0.00    +0.055 A 
ATOM      8  C   UNL     1       3.449   0.754  22.691  0.00  0.00    +0.006 A 
ATOM      9  C   UNL     1       4.235   0.787  22.939  0.00  0.00    +0.015 A 
BRANCH   4   2
ATOM      1  C   UNL     1       5.964  -0.180  23.075  0.00  0.00    +0.112 C 
ATOM      2  N   UNL     1       5.372   0.161  23.538  0.00  0.00    -0.304 N 
ATOM      3  C   UNL     1       5.566   0.533  24.247  0.00  0.00    +0.112 C 
ENDBRANCH   4   2
ENDBRANCH  10   7
ENDBRANCH  13  12
ENDBRANCH  14  13
TORSDOF 6
ENDMDL
MODEL 2
REMARK VINA RESULT:      -8.8      2.219      7.018
REMARK  Name = 
REMARK  6 active torsions:
REMARK  status: ('A' for Active; 'I' for Inactive)
REMARK    1  A    between atoms: N_2  and  C_4
REMARK    2  A    between atoms: C_7  and  C_10
REMARK    3  A    between atoms: N_12  and  C_13
REMARK    4  A    between atoms: C_13  and  C_14
REMARK    5  A    between atoms: C_21  and  C_22
REMARK    6  A    between atoms: C_24  and  C_28
REMARK                            x       y       z     vdW  Elec       q    Type
REMARK                         _______ _______ _______ _____ _____    ______ ____
ROOT
ATOM     14  C   UNL     1      -0.944   0.232  24.148  0.00  0.00    +0.079 C 
ATOM     15  C   UNL     1      -0.402   0.789  24.114  0.00  0.00    +0.018 C 
ATOM     16  C   UNL     1       0.319   0.725  23.749  0.00  0.00    +0.010 C 
ATOM     17  C   UNL     1       0.799   1.479  23.823  0.00  0.00    +0.018 C 
ATOM     18  C   UNL     1       0.280   1.093  23.914  0.00  0.00    +0.072 C 
ATOM     19  N   UNL     1      -0.208   0.174  23.778  0.00  0.00    -0.272 NA
ATOM     20  C   UNL     1       0.194  -0.505  23.320  0.00  0.00    +0.078 C 
ATOM     21  C   UNL     1       0.699   0.067  23.310  0.00  0.00    +0.056 C 
ENDROOT
BRANCH  21  22
ATOM     22  C   UNL     1       1.446   0.068  22.958  0.00  0.00    +0.058 A 
ATOM     23  C   UNL     1       2.155   0.269  23.328  0.00  0.00    +0.036 A 
ATOM     24  C   UNL     1       2.761   0.193  22.775  0.00  0.00    +0.108 A 
ATOM     25  N   UNL     1       2.427  -0.056  22.062  0.00  0.00    -0.169 NA
ATOM     26  N   UNL     1       1.613  -0.133  22.176  0.00  0.00    -0.253 N 
ATOM     27  C   UNL     1       1.064  -0.370  21.608  0.00  0.00    +0.153 C 
BRANCH  24  28
ATOM     28  C   UNL     1       3.562   0.339  22.908  0.00  0.00    +0.049 A 
ATOM     29  C   UNL     1       3.965   1.035  22.723  0.00  0.00    +0.009 A 
ATOM     30  C   UNL     1       4.753   0.941  22.951  0.00  0.00    +0.008 A 
ATOM     31  C   UNL     1       4.836   0.188  23.278  0.00  0.00    +0.035 A 
ATOM     32  S   UNL     1       4.101  -0.184  23.252  0.00  0.00    -0.085 S 
ENDBRANCH  24  28
ENDBRANCH  21  22
BRANCH  14  13
ATOM     13  C   UNL     1      -1.678  -0.067  24.374  0.00  0.00    +0.131 C 
BRANCH  13  12
ATOM     10  C   UNL     1      -3.079   0.160  24.534  0.00  0.00    +0.265 C 
ATOM     11  O   UNL     1      -3.224  -0.641  24.403  0.00  0.00    -0.268 OA
ATOM     12  N   UNL     1      -2.306   0.447  24.520  0.00  0.00    -0.200 NA
BRANCH  10   7
ATOM      4  C   UNL     1      -4.964   1.703  24.971  0.00  0.00    +0.048 A 
ATOM      5  C   UNL     1      -4.339   1.942  24.488  0.00  0.00    +0.015 A 
ATOM      6  C   UNL     1      -3.711   1.427  24.342  0.00  0.00    +0.006 A 
ATOM      7  C   UNL     1      -3.708   0.674  24.680  0.00  0.00    +0.055 A 
ATOM      8  C   UNL     1      -4.332   0.436  25.162  0.00  0.00    +0.006 A 
ATOM      9  C   UNL     1      -4.961   0.951  25.308  0.00  0.00    +0.015 A 
BRANCH   4   2
ATOM      1  C   UNL     1      -6.364   1.986  24.939  0.00  0.00    +0.112 C 
ATOM      2  N   UNL     1      -5.592   2.218  25.116  0.00  0.00    -0.304 N 
ATOM      3  C   UNL     1      -5.449   2.964  25.437  0.00  0.00    +0.112 C 
ENDBRANCH   4   2
ENDBRANCH  10   7
ENDBRANCH  13  12
ENDBRANCH  14  13
TORSDOF 6
ENDMDL
MODEL 3
REMARK VINA RESULT:      -7.6     15.119     16.587
REMARK  Name = 
REMARK  6 active torsions:
REMARK  status: ('A' for Active; 'I' for Inactive)
REMARK    1  A    between atoms: N_2  and  C_4
REMARK    2  A    between atoms: C_7  and  C_10
REMARK    3  A    between atoms: N_12  and  C_13
REMARK    4  A    between atoms: C_13  and  C_14
REMARK    5  A    between atoms: C_21  and  C_22
REMARK    6  A    between atoms: C_24  and  C_28
REMARK                            x       y       z     vdW  Elec       q    Type
REMARK                         _______ _______ _______ _____ _____    ______ ____
ROOT
ATOM     14  C   UNL     1      -4.012 -10.653  14.511  0.00  0.00    +0.079 C 
ATOM     15  C   UNL     1      -4.507 -10.544  13.921  0.00  0.00    +0.018 C 
ATOM     16  C   UNL     1      -4.301 -10.435  13.146  0.00  0.00    +0.010 C 
ATOM     17  C   UNL     1      -5.020 -10.326  12.621  0.00  0.00    +0.018 C 
ATOM     18  C   UNL     1      -4.704 -10.424  13.184  0.00  0.00    +0.072 C 
ATOM     19  N   UNL     1      -3.809 -10.541  13.719  0.00  0.00    -0.272 NA
ATOM     20  C   UNL     1      -3.002 -10.509  13.294  0.00  0.00    +0.078 C 
ATOM     21  C   UNL     1      -3.522 -10.405  12.743  0.00  0.00    +0.056 C 
ENDROOT
BRANCH  21  22
ATOM     22  C   UNL     1      -3.379 -10.289  11.939  0.00  0.00    +0.058 A 
ATOM     23  C   UNL     1      -3.914  -9.982  11.392  0.00  0.00    +0.036 A 
ATOM     24  C   UNL     1      -3.544  -9.962  10.656  0.00  0.00    +0.108 A 
ATOM     25  N   UNL     1      -2.779 -10.258  10.747  0.00  0.00    -0.169 NA
ATOM     26  N   UNL     1      -2.677 -10.460  11.541  0.00  0.00    -0.253 N 
ATOM     27  C   UNL     1      -1.994 -10.777  11.878  0.00  0.00    +0.153 C 
BRANCH  24  28
ATOM     28  C   UNL     1      -3.878  -9.695   9.950  0.00  0.00    +0.049 A 
ATOM     29  C   UNL     1      -3.911  -8.910   9.697  0.00  0.00    +0.009 A 
ATOM     30  C   UNL     1      -4.291  -8.895   8.964  0.00  0.00    +0.008 A 
ATOM     31  C   UNL     1      -4.492  -9.670   8.765  0.00  0.00    +0.035 A 
ATOM     32  S   UNL     1      -4.237 -10.164   9.374  0.00  0.00    -0.085 S 
ENDBRANCH  24  28
ENDBRANCH  21  22
BRANCH  14  13
ATOM     13  C   UNL     1      -3.830 -10.780  15.305  0.00  0.00    +0.131 C 
BRANCH  13  12
ATOM     10  C   UNL     1      -4.233 -10.748  16.676  0.00  0.00    +0.265 C 
ATOM     11  O   UNL     1      -3.442 -10.763  16.909  0.00  0.00    -0.268 OA
ATOM     12  N   UNL     1      -4.427 -10.756  15.874  0.00  0.00    -0.200 NA
BRANCH  10   7
ATOM      4  C   UNL     1      -6.024 -10.676  18.382  0.00  0.00    +0.048 A 
ATOM      5  C   UNL     1      -6.218 -10.749  17.583  0.00  0.00    +0.015 A 
ATOM      6  C   UNL     1      -5.621 -10.773  17.015  0.00  0.00    +0.006 A 
ATOM      7  C   UNL     1      -4.830 -10.724  17.245  0.00  0.00    +0.055 A 
ATOM      8  C   UNL     1      -4.636 -10.651  18.043  0.00  0.00    +0.006 A 
ATOM      9  C   UNL     1      -5.233 -10.627  18.612  0.00  0.00    +0.015 A 
BRANCH   4   2
ATOM      1  C   UNL     1      -6.438 -10.776  19.746  0.00  0.00    +0.112 C 
ATOM      2  N   UNL     1      -6.621 -10.652  18.950  0.00  0.00    -0.304 N 
ATOM      3  C   UNL     1      -7.401 -10.506  18.724  0.00  0.00    +0.112 C 
ENDBRANCH   4   2
ENDBRANCH  10   7
ENDBRANCH  13  12
ENDBRANCH  14  13
TORSDOF 6
ENDMDL
MODEL 4
REMARK VINA RESULT:      -7.4      2.351      7.101
REMARK  Name = 
REMARK  6 active torsions:
REMARK  status: ('A' for Active; 'I' for Inactive)
REMARK    1  A    between atoms: N_2  and  C_4
REMARK    2  A    between atoms: C_7  and  C_10
REMARK    3  A    between atoms: N_12  and  C_13
REMARK    4  A    between atoms: C_13  and  C_14
REMARK    5  A    between atoms: C_21  and  C_22
REMARK    6  A    between atoms: C_24  and  C_28
REMARK                            x       y       z     vdW  Elec       q    Type
REMARK                         _______ _______ _______ _____ _____    ______ ____
ROOT
ATOM     14  C   UNL     1      -1.298   2.873  24.704  0.00  0.00    +0.079 C 
ATOM     15  C   UNL     1      -0.623   2.645  25.016  0.00  0.00    +0.018 C 
ATOM     16  C   UNL     1      -0.117   2.099  24.698  0.00  0.00    +0.010 C 
ATOM     17  C   UNL     1       0.608   1.975  25.212  0.00  0.00    +0.018 C 
ATOM     18  C   UNL     1       0.033   2.238  25.047  0.00  0.00    +0.072 C 
ATOM     19  N   UNL     1      -0.777   2.317  24.385  0.00  0.00    -0.272 NA
ATOM     20  C   UNL     1      -0.808   1.819  23.622  0.00  0.00    +0.078 C 
ATOM     21  C   UNL     1      -0.153   1.622  23.961  0.00  0.00    +0.056 C 
ENDROOT
BRANCH  21  22
ATOM     22  C   UNL     1       0.404   1.076  23.692  0.00  0.00    +0.058 A 
ATOM     23  C   UNL     1       1.162   1.252  23.419  0.00  0.00    +0.036 A 
ATOM     24  C   UNL     1       1.527   0.544  23.207  0.00  0.00    +0.108 A 
ATOM     25  N   UNL     1       0.995  -0.070  23.350  0.00  0.00    -0.169 NA
ATOM     26  N   UNL     1       0.301   0.259  23.650  0.00  0.00    -0.253 N 
ATOM     27  C   UNL     1      -0.378  -0.156  23.869  0.00  0.00    +0.153 C 
BRANCH  24  28
ATOM     28  C   UNL     1       2.291   0.463  22.905  0.00  0.00    +0.049 A 
ATOM     29  C   UNL     1       2.949   0.911  23.124  0.00  0.00    +0.009 A 
ATOM     30  C   UNL     1       3.596   0.644  22.686  0.00  0.00    +0.008 A 
ATOM     31  C   UNL     1       3.337   0.032  22.197  0.00  0.00    +0.035 A 
ATOM     32  S   UNL     1       2.532  -0.081  22.332  0.00  0.00    -0.085 S 
ENDBRANCH  24  28
ENDBRANCH  21  22
BRANCH  14  13
ATOM     13  C   UNL     1      -1.991   3.320  24.696  0.00  0.00    +0.131 C 
BRANCH  13  12
ATOM     10  C   UNL     1      -3.415   3.391  24.792  0.00  0.00    +0.265 C 
ATOM     11  O   UNL     1      -3.393   4.175  24.538  0.00  0.00    -0.268 OA
ATOM     12  N   UNL     1      -2.714   2.963  24.871  0.00  0.00    -0.200 NA
BRANCH  10   7
ATOM      4  C   UNL     1      -5.583   2.322  25.319  0.00  0.00    +0.048 A 
ATOM      5  C   UNL     1      -5.336   2.984  25.745  0.00  0.00    +0.015 A 
ATOM      6  C   UNL     1      -4.614   3.341  25.569  0.00  0.00    +0.006 A 
ATOM      7  C   UNL     1      -4.138   3.035  24.968  0.00  0.00    +0.055 A 
ATOM      8  C   UNL     1      -4.385   2.373  24.543  0.00  0.00    +0.006 A 
ATOM      9  C   UNL     1      -5.108   2.016  24.719  0.00  0.00    +0.015 A 
BRANCH   4   2
ATOM      1  C   UNL     1      -6.813   1.739  24.885  0.00  0.00    +0.112 C 
ATOM      2  N   UNL     1      -6.307   1.965  25.496  0.00  0.00    -0.304 N 
ATOM      3  C   UNL     1      -6.523   1.836  26.281  0.00  0.00    +0.112 C 
ENDBRANCH   4   2
ENDBRANCH  10   7
ENDBRANCH  13  12
ENDBRANCH  14  13
TORSDOF 6
ENDMDL
MODEL 5
REMARK VINA RESULT:      -7.0     14.882     15.696
REMARK  Name = 
REMARK  6 active torsions:
REMARK  status: ('A' for Active; 'I' for Inactive)
REMARK    1  A    between atoms: N_2  and  C_4
REMARK    2  A    between atoms: C_7  and  C_10
REMARK    3  A    between atoms: N_12  and  C_13
REMARK    4  A    between atoms: C_13  and  C_14
REMARK    5  A    between atoms: C_21  and  C_22
REMARK    6  A    between atoms: C_24  and  C_28
REMARK                            x       y       z     vdW  Elec       q    Type
REMARK                         _______ _______ _______ _____ _____    ______ ____
ROOT
ATOM     14  C   UNL     1      -5.439 -10.443  14.682  0.00  0.00    +0.079 C 
ATOM     15  C   UNL     1      -6.184 -10.656  14.756  0.00  0.00    +0.018 C 
ATOM     16  C   UNL     1      -6.685 -10.422  15.348  0.00  0.00    +0.010 C 
ATOM     17  C   UNL     1      -7.503 -10.777  15.254  0.00  0.00    +0.018 C 
ATOM     18  C   UNL     1      -6.879 -10.668  15.093  0.00  0.00    +0.072 C 
ATOM     19  N   UNL     1      -5.956 -10.209  15.282  0.00  0.00    -0.272 NA
ATOM     20  C   UNL     1      -5.843  -9.665  16.006  0.00  0.00    +0.078 C 
ATOM     21  C   UNL     1      -6.570  -9.898  16.043  0.00  0.00    +0.056 C 
ENDROOT
BRANCH  21  22
ATOM     22  C   UNL     1      -7.129  -9.698  16.615  0.00  0.00    +0.058 A 
ATOM     23  C   UNL     1      -7.867  -9.358  16.474  0.00  0.00    +0.036 A 
ATOM     24  C   UNL     1      -8.243  -9.253  17.200  0.00  0.00    +0.108 A 
ATOM     25  N   UNL     1      -7.737  -9.528  17.791  0.00  0.00    -0.169 NA
ATOM     26  N   UNL     1      -7.048  -9.803  17.429  0.00  0.00    -0.253 N 
ATOM     27  C   UNL     1      -6.394 -10.127  17.814  0.00  0.00    +0.153 C 
BRANCH  24  28
ATOM     28  C   UNL     1      -8.993  -8.930  17.316  0.00  0.00    +0.049 A 
ATOM     29  C   UNL     1      -9.634  -9.309  17.672  0.00  0.00    +0.009 A 
ATOM     30  C   UNL     1     -10.272  -8.784  17.673  0.00  0.00    +0.008 A 
ATOM     31  C   UNL     1     -10.024  -8.082  17.319  0.00  0.00    +0.035 A 
ATOM     32  S   UNL     1      -9.234  -8.171  17.098  0.00  0.00    -0.085 S 
ENDBRANCH  24  28
ENDBRANCH  21  22
BRANCH  14  13
ATOM     13  C   UNL     1      -4.707 -10.448  14.302  0.00  0.00    +0.131 C 
BRANCH  13  12
ATOM     10  C   UNL     1      -3.939 -10.385  13.099  0.00  0.00    +0.265 C 
ATOM     11  O   UNL     1      -3.258 -10.574  13.524  0.00  0.00    -0.268 OA
ATOM     12  N   UNL     1      -4.664 -10.322  13.488  0.00  0.00    -0.200 NA
BRANCH  10   7
ATOM      4  C   UNL     1      -3.809 -10.006  10.657  0.00  0.00    +0.048 A 
ATOM      5  C   UNL     1      -3.151 -10.292  11.066  0.00  0.00    +0.015 A 
ATOM      6  C   UNL     1      -3.194 -10.418  11.880  0.00  0.00    +0.006 A 
ATOM      7  C   UNL     1      -3.895 -10.258  12.285  0.00  0.00    +0.055 A 
ATOM      8  C   UNL     1      -4.552  -9.973  11.876  0.00  0.00    +0.006 A 
ATOM      9  C   UNL     1      -4.509  -9.847  11.062  0.00  0.00    +0.015 A 
BRANCH   4   2
ATOM      1  C   UNL     1      -3.557  -9.136   9.552  0.00  0.00    +0.112 C 
ATOM      2  N   UNL     1      -3.765  -9.880   9.843  0.00  0.00    -0.304 N 
ATOM      3  C   UNL     1      -3.928 -10.496   9.320  0.00  0.00    +0.112 C 
ENDBRANCH   4   2
ENDBRANCH  10   7
ENDBRANCH  13  12
ENDBRANCH  14  13
TORSDOF 6
ENDMDL
MODEL 6
REMARK VINA RESULT:      -6.5     15.168     16.199
REMARK  Name = 
REMARK  6 active torsions:
REMARK  status: ('A' for Active; 'I' for Inactive)
REMARK    1  A    between atoms: N_2  and  C_4
REMARK    2  A    between atoms: C_7  and  C_10
REMARK    3  A    between atoms: N_12  and  C_13
REMARK    4  A    between atoms: C_13  and  C_14
REMARK    5  A    between atoms: C_21  and  C_22
REMARK    6  A    between atoms: C_24  and  C_28
REMARK                            x       y       z     vdW  Elec       q    Type
REMARK                         _______ _______ _______ _____ _____    ______ ____
ROOT
ATOM     14  C   UNL     1      -4.971 -10.264  13.894  0.00  0.00    +0.079 C 
ATOM     15  C   UNL     1      -5.534 -10.046  14.384  0.00  0.00    +0.018 C 
ATOM     16  C   UNL     1      -5.519 -10.134  15.189  0.00  0.00    +0.010 C 
ATOM     17  C   UNL     1      -6.266  -9.818  15.573  0.00  0.00    +0.018 C 
ATOM     18  C   UNL     1      -5.866  -9.958  15.076  0.00  0.00    +0.072 C 
ATOM     19  N   UNL     1      -4.963 -10.350  14.715  0.00  0.00    -0.272 NA
ATOM     20  C   UNL     1      -4.343 -10.700  15.286  0.00  0.00    +0.078 C 
ATOM     21  C   UNL     1      -4.919 -10.472  15.732  0.00  0.00    +0.056 C 
ENDROOT
BRANCH  21  22
ATOM     22  C   UNL     1      -4.967 -10.531  16.554  0.00  0.00    +0.058 A 
ATOM     23  C   UNL     1      -5.661 -10.555  16.999  0.00  0.00    +0.036 A 
ATOM     24  C   UNL     1      -5.452 -10.616  17.794  0.00  0.00    +0.108 A 
ATOM     25  N   UNL     1      -4.629 -10.629  17.842  0.00  0.00    -0.169 NA
ATOM     26  N   UNL     1      -4.328 -10.577  17.075  0.00  0.00    -0.253 N 
ATOM     27  C   UNL     1      -3.530 -10.571  16.865  0.00  0.00    +0.153 C 
BRANCH  24  28
ATOM     28  C   UNL     1      -5.974 -10.656  18.431  0.00  0.00    +0.049 A 
ATOM     29  C   UNL     1      -5.769 -10.617  19.230  0.00  0.00    +0.009 A 
ATOM     30  C   UNL     1      -6.462 -10.679  19.674  0.00  0.00    +0.008 A 
ATOM     31  C   UNL     1      -7.094 -10.756  19.151  0.00  0.00    +0.035 A 
ATOM     32  S   UNL     1      -6.794 -10.742  18.383  0.00  0.00    -0.085 S 
ENDBRANCH  24  28
ENDBRANCH  21  22
BRANCH  14  13
ATOM     13  C   UNL     1      -4.640 -10.346  13.143  0.00  0.00    +0.131 C 
BRANCH  13  12
ATOM     10  C   UNL     1      -4.680 -10.075  11.740  0.00  0.00    +0.265 C 
ATOM     11  O   UNL     1      -3.912 -10.364  11.662  0.00  0.00    -0.268 OA
ATOM     12  N   UNL     1      -5.045 -10.066  12.481  0.00  0.00    -0.200 NA
BRANCH  10   7
ATOM      4  C   UNL     1      -5.894  -9.234   9.755  0.00  0.00    +0.048 A 
ATOM      5  C   UNL     1      -5.371  -8.740  10.158  0.00  0.00    +0.015 A 
ATOM      6  C   UNL     1      -4.966  -9.020  10.819  0.00  0.00    +0.006 A 
ATOM      7  C   UNL     1      -5.085  -9.795  11.079  0.00  0.00    +0.055 A 
ATOM      8  C   UNL     1      -5.608 -10.288  10.676  0.00  0.00    +0.006 A 
ATOM      9  C   UNL     1      -6.013 -10.008  10.014  0.00  0.00    +0.015 A 
BRANCH   4   2
ATOM      1  C   UNL     1      -6.699  -8.233   9.131  0.00  0.00    +0.112 C 
ATOM      2  N   UNL     1      -6.299  -8.953   9.093  0.00  0.00    -0.304 N 
ATOM      3  C   UNL     1      -6.303  -9.391   8.394  0.00  0.00    +0.112 C 
ENDBRANCH   4   2
ENDBRANCH  10   7
ENDBRANCH  13  12
ENDBRANCH  14  13
TORSDOF 6
ENDMDL
MODEL 7
REMARK VINA RESULT:      -6.0     16.007     17.888
REMARK  Name = 
REMARK  6 active torsions:
REMARK  status: ('A' for Active; 'I' for Inactive)
REMARK    1  A    between atoms: N_2  and  C_4
REMARK    2  A    between atoms: C_7  and  C_10
REMARK    3  A    between atoms: N_12  and  C_13
REMARK    4  A    between atoms: C_13  and  C_14
REMARK    5  A    between atoms: C_21  and  C_22
REMARK    6  A    between atoms: C_24  and  C_28
REMARK                            x       y       z     vdW  Elec       q    Type
REMARK                         _______ _______ _______ _____ _____    ______ ____
ROOT
ATOM     14  C   UNL     1      -7.478  -9.696  12.447  0.00  0.00    +0.079 C 
ATOM     15  C   UNL     1      -6.960  -9.168  12.205  0.00  0.00    +0.018 C 
ATOM     16  C   UNL     1      -6.240  -9.331  11.873  0.00  0.00    +0.010 C 
ATOM     17  C   UNL     1      -5.793  -8.583  11.662  0.00  0.00    +0.018 C 
ATOM     18  C   UNL     1      -6.294  -8.931  11.896  0.00  0.00    +0.072 C 
ATOM     19  N   UNL     1      -6.742  -9.854  12.108  0.00  0.00    -0.272 NA
ATOM     20  C   UNL     1      -6.315 -10.637  11.914  0.00  0.00    +0.078 C 
ATOM     21  C   UNL     1      -5.835 -10.088  11.689  0.00  0.00    +0.056 C 
ENDROOT
BRANCH  21  22
ATOM     22  C   UNL     1      -5.091 -10.185  11.345  0.00  0.00    +0.058 A 
ATOM     23  C   UNL     1      -4.369  -9.981  11.687  0.00  0.00    +0.036 A 
ATOM     24  C   UNL     1      -3.771 -10.173  11.152  0.00  0.00    +0.108 A 
ATOM     25  N   UNL     1      -4.123 -10.495  10.480  0.00  0.00    -0.169 NA
ATOM     26  N   UNL     1      -4.940 -10.503  10.599  0.00  0.00    -0.253 N 
ATOM     27  C   UNL     1      -5.506 -10.779  10.066  0.00  0.00    +0.153 C 
BRANCH  24  28
ATOM     28  C   UNL     1      -2.962 -10.062  11.269  0.00  0.00    +0.049 A 
ATOM     29  C   UNL     1      -2.466  -9.592  10.806  0.00  0.00    +0.009 A 
ATOM     30  C   UNL     1      -1.703  -9.641  11.120  0.00  0.00    +0.008 A 
ATOM     31  C   UNL     1      -1.729 -10.141  11.775  0.00  0.00    +0.035 A 
ATOM     32  S   UNL     1      -2.506 -10.401  11.868  0.00  0.00    -0.085 S 
ENDBRANCH  24  28
ENDBRANCH  21  22
BRANCH  14  13
ATOM     13  C   UNL     1      -8.197  -9.922  12.782  0.00  0.00    +0.131 C 
BRANCH  13  12
ATOM     10  C   UNL     1      -9.175  -9.794  13.815  0.00  0.00    +0.265 C 
ATOM     11  O   UNL     1      -9.673 -10.311  13.409  0.00  0.00    -0.268 OA
ATOM     12  N   UNL     1      -8.437  -9.600  13.502  0.00  0.00    -0.200 NA
BRANCH  10   7
ATOM      4  C   UNL     1      -9.894  -8.827  15.977  0.00  0.00    +0.048 A 
ATOM      5  C   UNL     1     -10.302  -8.639  15.285  0.00  0.00    +0.015 A 
ATOM      6  C   UNL     1     -10.062  -8.961  14.564  0.00  0.00    +0.006 A 
ATOM      7  C   UNL     1      -9.414  -9.472  14.536  0.00  0.00    +0.055 A 
ATOM      8  C   UNL     1      -9.007  -9.660  15.228  0.00  0.00    +0.006 A 
ATOM      9  C   UNL     1      -9.247  -9.337  15.948  0.00  0.00    +0.015 A 
BRANCH   4   2
ATOM      1  C   UNL     1     -10.673  -8.911  17.171  0.00  0.00    +0.112 C 
ATOM      2  N   UNL     1     -10.134  -8.504  16.697  0.00  0.00    -0.304 N 
ATOM      3  C   UNL     1      -9.837  -7.775  16.943  0.00  0.00    +0.112 C 
ENDBRANCH   4   2
ENDBRANCH  10   7
ENDBRANCH  13  12
ENDBRANCH  14  13
TORSDOF 6
ENDMDL
MODEL 8
REMARK VINA RESULT:      -6.0     14.885     15.751
REMARK  Name = 
REMARK  6 active torsions:
REMARK  status: ('A' for Active; 'I' for Inactive)
REMARK    1  A    between atoms: N_2  and  C_4
REMARK    2  A    between atoms: C_7  and  C_10
REMARK    3  A    between atoms: N_12  and  C_13
REMARK    4  A    between atoms: C_13  and  C_14
REMARK    5  A    between atoms: C_21  and  C_22
REMARK    6  A    between atoms: C_24  and  C_28
REMARK                            x       y       z     vdW  Elec       q    Type
REMARK                         _______ _______ _______ _____ _____    ______ ____
ROOT
ATOM     14  C   UNL     1      -6.414  -9.982  14.196  0.00  0.00    +0.079 C 
ATOM     15  C   UNL     1      -5.939 -10.024  14.811  0.00  0.00    +0.018 C 
ATOM     16  C   UNL     1      -6.171 -10.025  15.587  0.00  0.00    +0.010 C 
ATOM     17  C   UNL     1      -5.471 -10.080  16.145  0.00  0.00    +0.018 C 
ATOM     18  C   UNL     1      -5.768 -10.050  15.564  0.00  0.00    +0.072 C 
ATOM     19  N   UNL     1      -6.643  -9.983  14.989  0.00  0.00    -0.272 NA
ATOM     20  C   UNL     1      -7.462  -9.939  15.388  0.00  0.00    +0.078 C 
ATOM     21  C   UNL     1      -6.963  -9.982  15.964  0.00  0.00    +0.056 C 
ENDROOT
BRANCH  21  22
ATOM     22  C   UNL     1      -7.132  -9.988  16.772  0.00  0.00    +0.058 A 
ATOM     23  C   UNL     1      -6.613 -10.210  17.374  0.00  0.00    +0.036 A 
ATOM     24  C   UNL     1      -7.009 -10.132  18.093  0.00  0.00    +0.108 A 
ATOM     25  N   UNL     1      -7.772  -9.861  17.936  0.00  0.00    -0.169 NA
ATOM     26  N   UNL     1      -7.848  -9.772  17.119  0.00  0.00    -0.253 N 
ATOM     27  C   UNL     1      -8.522  -9.513  16.719  0.00  0.00    +0.153 C 
BRANCH  24  28
ATOM     28  C   UNL     1      -6.697 -10.295  18.839  0.00  0.00    +0.049 A 
ATOM     29  C   UNL     1      -5.983 -10.010  19.139  0.00  0.00    +0.009 A 
ATOM     30  C   UNL     1      -5.889 -10.311  19.902  0.00  0.00    +0.008 A 
ATOM     31  C   UNL     1      -6.545 -10.781  20.073  0.00  0.00    +0.035 A 
ATOM     32  S   UNL     1      -7.044 -10.772  19.417  0.00  0.00    -0.085 S 
ENDBRANCH  24  28
ENDBRANCH  21  22
BRANCH  14  13
ATOM     13  C   UNL     1      -6.569  -9.956  13.387  0.00  0.00    +0.131 C 
BRANCH  13  12
ATOM     10  C   UNL     1      -6.097  -9.501  12.117  0.00  0.00    +0.265 C 
ATOM     11  O   UNL     1      -6.861  -9.264  11.918  0.00  0.00    -0.268 OA
ATOM     12  N   UNL     1      -5.951  -9.847  12.852  0.00  0.00    -0.200 NA
BRANCH  10   7
ATOM      4  C   UNL     1      -4.242  -9.175  10.512  0.00  0.00    +0.048 A 
ATOM      5  C   UNL     1      -4.858  -8.628  10.546  0.00  0.00    +0.015 A 
ATOM      6  C   UNL     1      -5.477  -8.736  11.081  0.00  0.00    +0.006 A 
ATOM      7  C   UNL     1      -5.479  -9.393  11.582  0.00  0.00    +0.055 A 
ATOM      8  C   UNL     1      -4.862  -9.939  11.547  0.00  0.00    +0.006 A 
ATOM      9  C   UNL     1      -4.244  -9.831  11.012  0.00  0.00    +0.015 A 
BRANCH   4   2
ATOM      1  C   UNL     1      -2.844  -9.192  10.217  0.00  0.00    +0.112 C 
ATOM      2  N   UNL     1      -3.624  -9.066   9.976  0.00  0.00    -0.304 N 
ATOM      3  C   UNL     1      -3.784  -8.831   9.203  0.00  0.00    +0.112 C 
ENDBRANCH   4   2
ENDBRANCH  10   7
ENDBRANCH  13  12
ENDBRANCH  14  13
TORSDOF 6
ENDMDL
MODEL 9
REMARK VINA RESULT:      -5.9     14.931     16.794
REMARK  Name = 
REMARK  6 active torsions:
REMARK  status: ('A' for Active; 'I' for Inactive)
REMARK    1  A    between atoms: N_2  and  C_4
REMARK    2  A    between atoms: C_7  and  C_10
REMARK    3  A    between atoms: N_12  and  C_13
REMARK    4  A    between atoms: C_13  and  C_14
REMARK    5  A    between atoms: C_21  and  C_22
REMARK    6  A    between atoms: C_24  and  C_28
REMARK                            x       y       z     vdW  Elec       q    Type
REMARK                         _______ _______ _______ _____ _____    ______ ____
ROOT
ATOM     14  C   UNL     1      -5.740 -10.209  15.450  0.00  0.00    +0.079 C 
ATOM     15  C   UNL     1      -5.921 -10.362  14.709  0.00  0.00    +0.018 C 
ATOM     16  C   UNL     1      -5.396 -10.413  14.095  0.00  0.00    +0.010 C 
ATOM     17  C   UNL     1      -5.806 -10.597  13.319  0.00  0.00    +0.018 C 
ATOM     18  C   UNL     1      -5.772 -10.479  13.960  0.00  0.00    +0.072 C 
ATOM     19  N   UNL     1      -5.210 -10.262  14.819  0.00  0.00    -0.272 NA
ATOM     20  C   UNL     1      -4.303 -10.169  14.773  0.00  0.00    +0.078 C 
ATOM     21  C   UNL     1      -4.524 -10.322  14.058  0.00  0.00    +0.056 C 
ENDROOT
BRANCH  21  22
ATOM     22  C   UNL     1      -4.042 -10.387  13.391  0.00  0.00    +0.058 A 
ATOM     23  C   UNL     1      -4.274 -10.253  12.611  0.00  0.00    +0.036 A 
ATOM     24  C   UNL     1      -3.621 -10.382  12.125  0.00  0.00    +0.108 A 
ATOM     25  N   UNL     1      -2.984 -10.595  12.605  0.00  0.00    -0.169 NA
ATOM     26  N   UNL     1      -3.245 -10.599  13.388  0.00  0.00    -0.253 N 
ATOM     27  C   UNL     1      -2.789 -10.781  14.051  0.00  0.00    +0.153 C 
BRANCH  24  28
ATOM     28  C   UNL     1      -3.605 -10.309  11.304  0.00  0.00    +0.049 A 
ATOM     29  C   UNL     1      -4.021 -10.780  10.768  0.00  0.00    +0.009 A 
ATOM     30  C   UNL     1      -3.844 -10.515  10.006  0.00  0.00    +0.008 A 
ATOM     31  C   UNL     1      -3.319  -9.882  10.072  0.00  0.00    +0.035 A 
ATOM     32  S   UNL     1      -3.172  -9.755  10.873  0.00  0.00    -0.085 S 
ENDBRANCH  24  28
ENDBRANCH  21  22
BRANCH  14  13
ATOM     13  C   UNL     1      -5.928 -10.088  16.243  0.00  0.00    +0.131 C 
BRANCH  13  12
ATOM     10  C   UNL     1      -6.915  -9.901  17.259  0.00  0.00    +0.265 C 
ATOM     11  O   UNL     1      -6.331  -9.634  17.777  0.00  0.00    -0.268 OA
ATOM     12  N   UNL     1      -6.713 -10.128  16.492  0.00  0.00    -0.200 NA
BRANCH  10   7
ATOM      4  C   UNL     1      -9.271 -10.021  18.006  0.00  0.00    +0.048 A 
ATOM      5  C   UNL     1      -8.982  -9.329  17.662  0.00  0.00    +0.015 A 
ATOM      6  C   UNL     1      -8.197  -9.289  17.413  0.00  0.00    +0.006 A 
ATOM      7  C   UNL     1      -7.700  -9.941  17.508  0.00  0.00    +0.055 A 
ATOM      8  C   UNL     1      -7.989 -10.633  17.852  0.00  0.00    +0.006 A 
ATOM      9  C   UNL     1      -8.774 -10.673  18.101  0.00  0.00    +0.015 A 
BRANCH   4   2
ATOM      1  C   UNL     1     -10.623  -9.569  17.909  0.00  0.00    +0.112 C 
ATOM      2  N   UNL     1     -10.057 -10.061  18.254  0.00  0.00    -0.304 N 
ATOM      3  C   UNL     1     -10.277 -10.591  18.846  0.00  0.00    +0.112 C 
ENDBRANCH   4   2
ENDBRANCH  10   7
ENDBRANCH  13  12
ENDBRANCH  14  13
TORSDOF 6
ENDMDL
MODEL 10
REMARK VINA RESULT:      -5.7     16.097     17.185
REMARK  Name = 
REMARK  6 active torsions:
REMARK  status: ('A' for Active; 'I' for Inactive)
REMARK    1  A    between atoms: N_2  and  C_4
REMARK    2  A    between atoms: C_7  and  C_10
REMARK    3  A    between atoms: N_12  and  C_13
REMARK    4  A    between atoms: C_13  and  C_14
REMARK    5  A    between atoms: C_21  and  C_22
REMARK    6  A    between atoms: C_24  and  C_28
REMARK                            x       y       z     vdW  Elec       q    Type
REMARK                         _______ _______ _______ _____ _____    ______ ____
ROOT
ATOM     14  C   UNL     1      -5.465 -10.218  12.858  0.00  0.00    +0.079 C 
ATOM     15  C   UNL     1      -6.033 -10.459  12.384  0.00  0.00    +0.018 C 
ATOM     16  C   UNL     1      -6.219 -10.131  11.667  0.00  0.00    +0.010 C 
ATOM     17  C   UNL     1      -6.906 -10.555  11.275  0.00  0.00    +0.018 C 
ATOM     18  C   UNL     1      -6.466 -10.442  11.745  0.00  0.00    +0.072 C 
ATOM     19  N   UNL     1      -5.661  -9.890  12.127  0.00  0.00    -0.272 NA
ATOM     20  C   UNL     1      -5.311  -9.189  11.659  0.00  0.00    +0.078 C 
ATOM     21  C   UNL     1      -5.877  -9.456  11.222  0.00  0.00    +0.056 C 
ENDROOT
BRANCH  21  22
ATOM     22  C   UNL     1      -6.118  -9.171  10.486  0.00  0.00    +0.058 A 
ATOM     23  C   UNL     1      -6.861  -8.862  10.305  0.00  0.00    +0.036 A 
ATOM     24  C   UNL     1      -6.859  -8.644   9.510  0.00  0.00    +0.108 A 
ATOM     25  N   UNL     1      -6.116  -8.818   9.199  0.00  0.00    -0.169 NA
ATOM     26  N   UNL     1      -5.656  -9.144   9.803  0.00  0.00    -0.253 N 
ATOM     27  C   UNL     1      -4.874  -9.398   9.735  0.00  0.00    +0.153 C 
BRANCH  24  28
ATOM     28  C   UNL     1      -7.491  -8.311   9.097  0.00  0.00    +0.049 A 
ATOM     29  C   UNL     1      -7.530  -7.536   8.814  0.00  0.00    +0.009 A 
ATOM     30  C   UNL     1      -8.257  -7.439   8.436  0.00  0.00    +0.008 A 
ATOM     31  C   UNL     1      -8.668  -8.153   8.487  0.00  0.00    +0.035 A 
ATOM     32  S   UNL     1      -8.195  -8.692   8.895  0.00  0.00    -0.085 S 
ENDBRANCH  24  28
ENDBRANCH  21  22
BRANCH  14  13
ATOM     13  C   UNL     1      -5.018 -10.258  13.550  0.00  0.00    +0.131 C 
BRANCH  13  12
ATOM     10  C   UNL     1      -4.947 -10.312  14.976  0.00  0.00    +0.265 C 
ATOM     11  O   UNL     1      -4.130 -10.411  14.932  0.00  0.00    -0.268 OA
ATOM     12  N   UNL     1      -5.392 -10.236  14.285  0.00  0.00    -0.200 NA
BRANCH  10   7
ATOM      4  C   UNL     1      -6.069 -10.245  17.181  0.00  0.00    +0.048 A 
ATOM      5  C   UNL     1      -5.329 -10.604  17.105  0.00  0.00    +0.015 A 
ATOM      6  C   UNL     1      -4.956 -10.626  16.370  0.00  0.00    +0.006 A 
ATOM      7  C   UNL     1      -5.321 -10.290  15.711  0.00  0.00    +0.055 A 
ATOM      8  C   UNL     1      -6.060  -9.931  15.787  0.00  0.00    +0.006 A 
ATOM      9  C   UNL     1      -6.434  -9.909  16.522  0.00  0.00    +0.015 A 
BRANCH   4   2
ATOM      1  C   UNL     1      -6.086 -10.580  18.570  0.00  0.00    +0.112 C 
ATOM      2  N   UNL     1      -6.442 -10.223  17.917  0.00  0.00    -0.304 N 
ATOM      3  C   UNL     1      -7.170  -9.844  18.000  0.00  0.00    +0.112 C 
ENDBRANCH   4   2
ENDBRANCH  10   7
ENDBRANCH  13  12
ENDBRANCH  14  13
TORSDOF 6
ENDMDL
