MODEL 1
REMARK VINA RESULT:      -8.8      0.000      0.000
REMARK  Name = 
REMARK  6 active torsions:
REMARK  status: ('A' for Active; 'I' for Inactive)
REMARK    1  A    between atoms: C_3  and  C_4
REMARK    2  A    between atoms: C_4  and  N_5
REMARK    3  A    between atoms: C_6  and  C_8
REMARK    4  A    between atoms: C_16  and  N_17
REMARK    5  A    between atoms: N_17  and  C_18
REMARK    6  A    between atoms: C_18  and  C_19
REMARK                            x       y       z     vdW  Elec       q    Type
REMARK                         _______ _______ _______ _____ _____    ______ ____
ROOT
ATOM      1  O   UNL     1      -3.847   2.262  24.151  0.00  0.00    -0.219 OA
ATOM      2  C   UNL     1      -3.211   1.875  24.506  0.00  0.00    +0.199 C 
ATOM      3  C   UNL     1      -3.154   1.064  24.646  0.00  0.00    +0.169 C 
ATOM     14  O   UNL     1      -2.428   0.919  25.009  0.00  0.00    -0.350 OA
ATOM     15  C   UNL     1      -2.036   1.640  25.094  0.00  0.00    +0.162 C 
ATOM     16  C   UNL     1      -2.519   2.231  24.783  0.00  0.00    +0.135 C 
ENDROOT
BRANCH   3   4
ATOM      4  C   UNL     1      -3.724   0.498  24.456  0.00  0.00    +0.148 C 
BRANCH   4   5
ATOM      5  N   UNL     1      -3.533  -0.304  24.483  0.00  0.00    -0.199 NA
ATOM      6  C   UNL     1      -4.125  -0.873  24.393  0.00  0.00    +0.265 C 
ATOM      7  O   UNL     1      -4.907  -0.638  24.276  0.00  0.00    -0.268 OA
BRANCH   6   8
ATOM      8  C   UNL     1      -3.934  -1.675  24.419  0.00  0.00    +0.058 A 
ATOM      9  C   UNL     1      -4.123  -2.165  23.784  0.00  0.00    +0.025 A 
ATOM     10  C   UNL     1      -3.932  -2.968  23.810  0.00  0.00    +0.099 A 
ATOM     11  N   UNL     1      -3.552  -3.279  24.473  0.00  0.00    -0.242 NA
ATOM     12  C   UNL     1      -3.363  -2.788  25.109  0.00  0.00    +0.099 A 
ATOM     13  C   UNL     1      -3.554  -1.986  25.082  0.00  0.00    +0.025 A 
ENDBRANCH   6   8
ENDBRANCH   4   5
ENDBRANCH   3   4
BRANCH  16  17
ATOM     17  N   UNL     1      -2.344   3.035  24.753  0.00  0.00    -0.209 NA
BRANCH  17  18
ATOM     18  C   UNL     1      -1.740   3.343  25.224  0.00  0.00    +0.117 C 
BRANCH  18  19
ATOM     19  C   UNL     1      -1.493   4.124  25.121  0.00  0.00    +0.014 A 
ATOM     20  C   UNL     1      -0.758   4.283  24.782  0.00  0.00    +0.000 A 
ATOM     21  C   UNL     1      -0.512   5.064  24.679  0.00  0.00    +0.020 A 
ATOM     22  C   UNL     1      -1.001   5.685  24.915  0.00  0.00    +0.099 A 
ATOM     23  N   UNL     1      -1.736   5.526  25.254  0.00  0.00    -0.243 NA
ATOM     24  C   UNL     1      -1.982   4.745  25.357  0.00  0.00    +0.096 A 
ENDBRANCH  18  19
ENDBRANCH  17  18
ENDBRANCH  16  17
TORSDOF 6
ENDMDL
MODEL 2
REMARK VINA RESULT:      -8.7      0.928      6.132
REMARK  Name = 
REMARK  6 active torsions:
REMARK  status: ('A' for Active; 'I' for Inactive)
REMARK    1  A    between atoms: C_3  and  C_4
REMARK    2  A    between atoms: C_4  and  N_5
REMARK    3  A    between atoms: C_6  and  C_8
REMARK    4  A    between atoms: C_16  and  N_17
REMARK    5  A    between atoms: N_17  and  C_18
REMARK    6  A    between atoms: C_18  and  C_19
REMARK                            x       y       z     vdW  Elec       q    Type
REMARK                         _______ _______ _______ _____ _____    ______ ____
ROOT
ATOM      1  O   UNL     1      -1.142   0.169  25.037  0.00  0.00    -0.219 OA
ATOM      2  C   UNL     1      -1.863   0.569  24.998  0.00  0.00    +0.199 C 
ATOM      3  C   UNL     1      -1.973   1.379  25.104  0.00  0.00    +0.169 C 
ATOM     14  O   UNL     1      -2.778   1.540  25.018  0.00  0.00    -0.350 OA
ATOM     15  C   UNL     1      -3.164   0.828  24.859  0.00  0.00    +0.162 C 
ATOM     16  C   UNL     1      -2.599   0.228  24.847  0.00  0.00    +0.135 C 
ENDROOT
BRANCH   3   4
ATOM      4  C   UNL     1      -1.383   1.932  25.266  0.00  0.00    +0.148 C 
BRANCH   4   5
ATOM      5  N   UNL     1      -1.514   2.732  25.114  0.00  0.00    -0.199 NA
ATOM      6  C   UNL     1      -0.983   3.298  25.396  0.00  0.00    +0.265 C 
ATOM      7  O   UNL     1      -0.323   3.063  25.831  0.00  0.00    -0.268 OA
BRANCH   6   8
ATOM      8  C   UNL     1      -1.114   4.099  25.244  0.00  0.00    +0.058 A 
ATOM      9  C   UNL     1      -0.560   4.532  24.815  0.00  0.00    +0.025 A 
ATOM     10  C   UNL     1      -0.690   5.333  24.663  0.00  0.00    +0.099 A 
ATOM     11  N   UNL     1      -1.376   5.699  24.939  0.00  0.00    -0.242 NA
ATOM     12  C   UNL     1      -1.931   5.264  25.369  0.00  0.00    +0.099 A 
ATOM     13  C   UNL     1      -1.800   4.464  25.521  0.00  0.00    +0.025 A 
ENDBRANCH   6   8
ENDBRANCH   4   5
ENDBRANCH   3   4
BRANCH  16  17
ATOM     17  N   UNL     1      -2.744  -0.571  24.708  0.00  0.00    -0.209 NA
BRANCH  17  18
ATOM     18  C   UNL     1      -3.508  -0.872  24.790  0.00  0.00    +0.117 C 
BRANCH  18  19
ATOM     19  C   UNL     1      -3.670  -1.652  24.572  0.00  0.00    +0.014 A 
ATOM     20  C   UNL     1      -4.121  -1.806  23.899  0.00  0.00    +0.000 A 
ATOM     21  C   UNL     1      -4.284  -2.585  23.681  0.00  0.00    +0.020 A 
ATOM     22  C   UNL     1      -3.994  -3.209  24.136  0.00  0.00    +0.099 A 
ATOM     23  N   UNL     1      -3.543  -3.055  24.809  0.00  0.00    -0.243 NA
ATOM     24  C   UNL     1      -3.380  -2.276  25.027  0.00  0.00    +0.096 A 
ENDBRANCH  18  19
ENDBRANCH  17  18
ENDBRANCH  16  17
TORSDOF 6
ENDMDL
MODEL 3
REMARK VINA RESULT:      -8.6      0.915      5.930
REMARK  Name = 
REMARK  6 active torsions:
REMARK  status: ('A' for Active; 'I' for Inactive)
REMARK    1  A    between atoms: C_3  and  C_4
REMARK    2  A    between atoms: C_4  and  N_5
REMARK    3  A    between atoms: C_6  and  C_8
REMARK    4  A    between atoms: C_16  and  N_17
REMARK    5  A    between atoms: N_17  and  C_18
REMARK    6  A    between atoms: C_18  and  C_19
REMARK                            x       y       z     vdW  Elec       q    Type
REMARK                         _______ _______ _______ _____ _____    ______ ____
ROOT
ATOM      1  O   UNL     1      -3.980   1.098  25.628  0.00  0.00    -0.219 OA
ATOM      2  C   UNL     1      -3.763   1.229  24.843  0.00  0.00    +0.199 C 
ATOM      3  C   UNL     1      -3.526   1.950  24.519  0.00  0.00    +0.169 C 
ATOM     14  O   UNL     1      -3.362   1.828  23.720  0.00  0.00    -0.350 OA
ATOM     15  C   UNL     1      -3.498   1.032  23.550  0.00  0.00    +0.162 C 
ATOM     16  C   UNL     1      -3.746   0.662  24.243  0.00  0.00    +0.135 C 
ENDROOT
BRANCH   3   4
ATOM      4  C   UNL     1      -3.464   2.666  24.923  0.00  0.00    +0.148 C 
BRANCH   4   5
ATOM      5  N   UNL     1      -2.795   3.139  24.825  0.00  0.00    -0.199 NA
ATOM      6  C   UNL     1      -2.699   3.819  25.283  0.00  0.00    +0.265 C 
ATOM      7  O   UNL     1      -3.272   4.025  25.839  0.00  0.00    -0.268 OA
BRANCH   6   8
ATOM      8  C   UNL     1      -2.030   4.291  25.184  0.00  0.00    +0.058 A 
ATOM      9  C   UNL     1      -2.109   5.110  25.124  0.00  0.00    +0.025 A 
ATOM     10  C   UNL     1      -1.440   5.583  25.025  0.00  0.00    +0.099 A 
ATOM     11  N   UNL     1      -0.692   5.237  24.987  0.00  0.00    -0.242 NA
ATOM     12  C   UNL     1      -0.613   4.417  25.047  0.00  0.00    +0.099 A 
ATOM     13  C   UNL     1      -1.282   3.945  25.146  0.00  0.00    +0.025 A 
ENDBRANCH   6   8
ENDBRANCH   4   5
ENDBRANCH   3   4
BRANCH  16  17
ATOM     17  N   UNL     1      -3.942  -0.135  24.324  0.00  0.00    -0.209 NA
BRANCH  17  18
ATOM     18  C   UNL     1      -3.578  -0.700  23.846  0.00  0.00    +0.117 C 
BRANCH  18  19
ATOM     19  C   UNL     1      -3.601  -1.497  24.058  0.00  0.00    +0.014 A 
ATOM     20  C   UNL     1      -4.230  -1.970  23.813  0.00  0.00    +0.000 A 
ATOM     21  C   UNL     1      -4.254  -2.768  24.025  0.00  0.00    +0.020 A 
ATOM     22  C   UNL     1      -3.647  -3.091  24.482  0.00  0.00    +0.099 A 
ATOM     23  N   UNL     1      -3.018  -2.617  24.727  0.00  0.00    -0.243 NA
ATOM     24  C   UNL     1      -2.994  -1.820  24.515  0.00  0.00    +0.096 A 
ENDBRANCH  18  19
ENDBRANCH  17  18
ENDBRANCH  16  17
TORSDOF 6
ENDMDL
MODEL 4
REMARK VINA RESULT:      -8.4      1.569      1.772
REMARK  Name = 
REMARK  6 active torsions:
REMARK  status: ('A' for Active; 'I' for Inactive)
REMARK    1  A    between atoms: C_3  and  C_4
REMARK    2  A    between atoms: C_4  and  N_5
REMARK    3  A    between atoms: C_6  and  C_8
REMARK    4  A    between atoms: C_16  and  N_17
REMARK    5  A    between atoms: N_17  and  C_18
REMARK    6  A    between atoms: C_18  and  C_19
REMARK                            x       y       z     vdW  Elec       q    Type
REMARK                         _______ _______ _______ _____ _____    ______ ____
ROOT
ATOM      1  O   UNL     1      -1.072   1.171  23.738  0.00  0.00    -0.219 OA
ATOM      2  C   UNL     1      -1.030   1.062  24.554  0.00  0.00    +0.199 C 
ATOM      3  C   UNL     1      -1.073   0.340  24.950  0.00  0.00    +0.169 C 
ATOM     14  O   UNL     1      -1.006   0.488  25.759  0.00  0.00    -0.350 OA
ATOM     15  C   UNL     1      -0.922   1.303  25.863  0.00  0.00    +0.162 C 
ATOM     16  C   UNL     1      -0.936   1.657  25.118  0.00  0.00    +0.135 C 
ENDROOT
BRANCH   3   4
ATOM      4  C   UNL     1      -1.166  -0.401  24.599  0.00  0.00    +0.148 C 
BRANCH   4   5
ATOM      5  N   UNL     1      -1.907  -0.764  24.593  0.00  0.00    -0.199 NA
ATOM      6  C   UNL     1      -1.976  -1.558  24.378  0.00  0.00    +0.265 C 
ATOM      7  O   UNL     1      -1.303  -1.988  24.170  0.00  0.00    -0.268 OA
BRANCH   6   8
ATOM      8  C   UNL     1      -2.716  -1.921  24.371  0.00  0.00    +0.058 A 
ATOM      9  C   UNL     1      -3.352  -1.552  23.997  0.00  0.00    +0.025 A 
ATOM     10  C   UNL     1      -4.094  -1.915  23.990  0.00  0.00    +0.099 A 
ATOM     11  N   UNL     1      -4.198  -2.646  24.357  0.00  0.00    -0.242 NA
ATOM     12  C   UNL     1      -3.561  -3.015  24.731  0.00  0.00    +0.099 A 
ATOM     13  C   UNL     1      -2.820  -2.652  24.738  0.00  0.00    +0.025 A 
ENDBRANCH   6   8
ENDBRANCH   4   5
ENDBRANCH   3   4
BRANCH  16  17
ATOM     17  N   UNL     1      -0.869   2.465  24.965  0.00  0.00    -0.209 NA
BRANCH  17  18
ATOM     18  C   UNL     1      -1.045   3.013  25.556  0.00  0.00    +0.117 C 
BRANCH  18  19
ATOM     19  C   UNL     1      -1.152   3.808  25.362  0.00  0.00    +0.014 A 
ATOM     20  C   UNL     1      -1.866   4.182  25.535  0.00  0.00    +0.000 A 
ATOM     21  C   UNL     1      -1.973   4.978  25.341  0.00  0.00    +0.020 A 
ATOM     22  C   UNL     1      -1.365   5.398  24.975  0.00  0.00    +0.099 A 
ATOM     23  N   UNL     1      -0.650   5.023  24.803  0.00  0.00    -0.243 NA
ATOM     24  C   UNL     1      -0.544   4.228  24.996  0.00  0.00    +0.096 A 
ENDBRANCH  18  19
ENDBRANCH  17  18
ENDBRANCH  16  17
TORSDOF 6
ENDMDL
MODEL 5
REMARK VINA RESULT:      -6.7     15.714     18.450
REMARK  Name = 
REMARK  6 active torsions:
REMARK  status: ('A' for Active; 'I' for Inactive)
REMARK    1  A    between atoms: C_3  and  C_4
REMARK    2  A    between atoms: C_4  and  N_5
REMARK    3  A    between atoms: C_6  and  C_8
REMARK    4  A    between atoms: C_16  and  N_17
REMARK    5  A    between atoms: N_17  and  C_18
REMARK    6  A    between atoms: C_18  and  C_19
REMARK                            x       y       z     vdW  Elec       q    Type
REMARK                         _______ _______ _______ _____ _____    ______ ____
ROOT
ATOM      1  O   UNL     1      13.101   6.585  19.588  0.00  0.00    -0.219 OA
ATOM      2  C   UNL     1      13.330   7.316  19.282  0.00  0.00    +0.199 C 
ATOM      3  C   UNL     1      12.844   7.976  19.190  0.00  0.00    +0.169 C 
ATOM     14  O   UNL     1      13.298   8.583  18.865  0.00  0.00    -0.350 OA
ATOM     15  C   UNL     1      14.064   8.298  18.756  0.00  0.00    +0.162 C 
ATOM     16  C   UNL     1      14.084   7.515  19.013  0.00  0.00    +0.135 C 
ENDROOT
BRANCH   3   4
ATOM      4  C   UNL     1      12.044   8.021  19.388  0.00  0.00    +0.148 C 
BRANCH   4   5
ATOM      5  N   UNL     1      11.817   8.065  20.180  0.00  0.00    -0.199 NA
ATOM      6  C   UNL     1      11.046   8.281  20.377  0.00  0.00    +0.265 C 
ATOM      7  O   UNL     1      10.501   8.453  19.781  0.00  0.00    -0.268 OA
BRANCH   6   8
ATOM      8  C   UNL     1      10.819   8.325  21.169  0.00  0.00    +0.058 A 
ATOM      9  C   UNL     1      10.882   9.039  21.576  0.00  0.00    +0.025 A 
ATOM     10  C   UNL     1      10.655   9.084  22.369  0.00  0.00    +0.099 A 
ATOM     11  N   UNL     1      10.365   8.413  22.753  0.00  0.00    -0.242 NA
ATOM     12  C   UNL     1      10.303   7.698  22.345  0.00  0.00    +0.099 A 
ATOM     13  C   UNL     1      10.529   7.654  21.553  0.00  0.00    +0.025 A 
ENDBRANCH   6   8
ENDBRANCH   4   5
ENDBRANCH   3   4
BRANCH  16  17
ATOM     17  N   UNL     1      14.742   7.018  19.005  0.00  0.00    -0.209 NA
BRANCH  17  18
ATOM     18  C   UNL     1      15.492   7.323  19.165  0.00  0.00    +0.117 C 
BRANCH  18  19
ATOM     19  C   UNL     1      16.126   6.812  19.295  0.00  0.00    +0.014 A 
ATOM     20  C   UNL     1      16.360   6.286  18.704  0.00  0.00    +0.000 A 
ATOM     21  C   UNL     1      16.995   5.775  18.835  0.00  0.00    +0.020 A 
ATOM     22  C   UNL     1      17.395   5.790  19.556  0.00  0.00    +0.099 A 
ATOM     23  N   UNL     1      17.161   6.316  20.147  0.00  0.00    -0.243 NA
ATOM     24  C   UNL     1      16.526   6.827  20.017  0.00  0.00    +0.096 A 
ENDBRANCH  18  19
ENDBRANCH  17  18
ENDBRANCH  16  17
TORSDOF 6
ENDMDL
MODEL 6
REMARK VINA RESULT:      -6.2     17.662     19.009
REMARK  Name = 
REMARK  6 active torsions:
REMARK  status: ('A' for Active; 'I' for Inactive)
REMARK    1  A    between atoms: C_3  and  C_4
REMARK    2  A    between atoms: C_4  and  N_5
REMARK    3  A    between atoms: C_6  and  C_8
REMARK    4  A    between atoms: C_16  and  N_17
REMARK    5  A    between atoms: N_17  and  C_18
REMARK    6  A    between atoms: C_18  and  C_19
REMARK                            x       y       z     vdW  Elec       q    Type
REMARK                         _______ _______ _______ _____ _____    ______ ____
ROOT
ATOM      1  O   UNL     1      12.994   6.721  18.763  0.00  0.00    -0.219 OA
ATOM      2  C   UNL     1      12.889   7.454  19.126  0.00  0.00    +0.199 C 
ATOM      3  C   UNL     1      13.196   7.683  19.856  0.00  0.00    +0.169 C 
ATOM     14  O   UNL     1      12.955   8.457  20.003  0.00  0.00    -0.350 OA
ATOM     15  C   UNL     1      12.497   8.708  19.364  0.00  0.00    +0.162 C 
ATOM     16  C   UNL     1      12.456   8.088  18.821  0.00  0.00    +0.135 C 
ENDROOT
BRANCH   3   4
ATOM      4  C   UNL     1      13.664   7.218  20.352  0.00  0.00    +0.148 C 
BRANCH   4   5
ATOM      5  N   UNL     1      14.483   7.316  20.357  0.00  0.00    -0.199 NA
ATOM      6  C   UNL     1      14.946   6.889  20.891  0.00  0.00    +0.265 C 
ATOM      7  O   UNL     1      14.589   6.366  21.420  0.00  0.00    -0.268 OA
BRANCH   6   8
ATOM      8  C   UNL     1      15.765   6.987  20.897  0.00  0.00    +0.058 A 
ATOM      9  C   UNL     1      16.245   6.465  20.476  0.00  0.00    +0.025 A 
ATOM     10  C   UNL     1      17.065   6.562  20.481  0.00  0.00    +0.099 A 
ATOM     11  N   UNL     1      17.404   7.182  20.907  0.00  0.00    -0.242 NA
ATOM     12  C   UNL     1      16.923   7.704  21.328  0.00  0.00    +0.099 A 
ATOM     13  C   UNL     1      16.104   7.607  21.323  0.00  0.00    +0.025 A 
ENDBRANCH   6   8
ENDBRANCH   4   5
ENDBRANCH   3   4
BRANCH  16  17
ATOM     17  N   UNL     1      12.054   8.100  18.102  0.00  0.00    -0.209 NA
BRANCH  17  18
ATOM     18  C   UNL     1      11.835   8.819  17.763  0.00  0.00    +0.117 C 
BRANCH  18  19
ATOM     19  C   UNL     1      11.490   8.835  17.013  0.00  0.00    +0.014 A 
ATOM     20  C   UNL     1      10.696   8.635  16.920  0.00  0.00    +0.000 A 
ATOM     21  C   UNL     1      10.351   8.650  16.170  0.00  0.00    +0.020 A 
ATOM     22  C   UNL     1      10.803   8.866  15.514  0.00  0.00    +0.099 A 
ATOM     23  N   UNL     1      11.597   9.067  15.608  0.00  0.00    -0.243 NA
ATOM     24  C   UNL     1      11.942   9.051  16.358  0.00  0.00    +0.096 A 
ENDBRANCH  18  19
ENDBRANCH  17  18
ENDBRANCH  16  17
TORSDOF 6
ENDMDL
MODEL 7
REMARK VINA RESULT:      -6.0     17.595     19.192
REMARK  Name = 
REMARK  6 active torsions:
REMARK  status: ('A' for Active; 'I' for Inactive)
REMARK    1  A    between atoms: C_3  and  C_4
REMARK    2  A    between atoms: C_4  and  N_5
REMARK    3  A    between atoms: C_6  and  C_8
REMARK    4  A    between atoms: C_16  and  N_17
REMARK    5  A    between atoms: N_17  and  C_18
REMARK    6  A    between atoms: C_18  and  C_19
REMARK                            x       y       z     vdW  Elec       q    Type
REMARK                         _______ _______ _______ _____ _____    ______ ____
ROOT
ATOM      1  O   UNL     1      13.163   7.033  19.639  0.00  0.00    -0.219 OA
ATOM      2  C   UNL     1      13.472   7.795  19.570  0.00  0.00    +0.199 C 
ATOM      3  C   UNL     1      13.086   8.447  19.243  0.00  0.00    +0.169 C 
ATOM     14  O   UNL     1      13.597   9.093  19.286  0.00  0.00    -0.350 OA
ATOM     15  C   UNL     1      14.298   8.840  19.640  0.00  0.00    +0.162 C 
ATOM     16  C   UNL     1      14.221   8.039  19.815  0.00  0.00    +0.135 C 
ENDROOT
BRANCH   3   4
ATOM      4  C   UNL     1      12.323   8.451  18.928  0.00  0.00    +0.148 C 
BRANCH   4   5
ATOM      5  N   UNL     1      12.210   8.596  18.124  0.00  0.00    -0.199 NA
ATOM      6  C   UNL     1      11.450   8.571  17.803  0.00  0.00    +0.265 C 
ATOM      7  O   UNL     1      10.804   8.401  18.287  0.00  0.00    -0.268 OA
BRANCH   6   8
ATOM      8  C   UNL     1      11.337   8.717  16.999  0.00  0.00    +0.058 A 
ATOM      9  C   UNL     1      11.973   8.948  16.528  0.00  0.00    +0.025 A 
ATOM     10  C   UNL     1      11.860   9.093  15.723  0.00  0.00    +0.099 A 
ATOM     11  N   UNL     1      11.110   9.007  15.391  0.00  0.00    -0.242 NA
ATOM     12  C   UNL     1      10.473   8.776  15.862  0.00  0.00    +0.099 A 
ATOM     13  C   UNL     1      10.586   8.631  16.666  0.00  0.00    +0.025 A 
ENDBRANCH   6   8
ENDBRANCH   4   5
ENDBRANCH   3   4
BRANCH  16  17
ATOM     17  N   UNL     1      14.792   7.564  20.173  0.00  0.00    -0.209 NA
BRANCH  17  18
ATOM     18  C   UNL     1      15.569   7.833  20.240  0.00  0.00    +0.117 C 
BRANCH  18  19
ATOM     19  C   UNL     1      16.181   7.297  20.381  0.00  0.00    +0.014 A 
ATOM     20  C   UNL     1      16.485   7.209  21.143  0.00  0.00    +0.000 A 
ATOM     21  C   UNL     1      17.097   6.673  21.284  0.00  0.00    +0.020 A 
ATOM     22  C   UNL     1      17.403   6.225  20.663  0.00  0.00    +0.099 A 
ATOM     23  N   UNL     1      17.099   6.313  19.901  0.00  0.00    -0.243 NA
ATOM     24  C   UNL     1      16.488   6.849  19.760  0.00  0.00    +0.096 A 
ENDBRANCH  18  19
ENDBRANCH  17  18
ENDBRANCH  16  17
TORSDOF 6
ENDMDL
MODEL 8
REMARK VINA RESULT:      -5.5     15.555     18.272
REMARK  Name = 
REMARK  6 active torsions:
REMARK  status: ('A' for Active; 'I' for Inactive)
REMARK    1  A    between atoms: C_3  and  C_4
REMARK    2  A    between atoms: C_4  and  N_5
REMARK    3  A    between atoms: C_6  and  C_8
REMARK    4  A    between atoms: C_16  and  N_17
REMARK    5  A    between atoms: N_17  and  C_18
REMARK    6  A    between atoms: C_18  and  C_19
REMARK                            x       y       z     vdW  Elec       q    Type
REMARK                         _______ _______ _______ _____ _____    ______ ____
ROOT
ATOM      1  O   UNL     1      13.058   6.973  18.571  0.00  0.00    -0.219 OA
ATOM      2  C   UNL     1      13.319   7.675  18.918  0.00  0.00    +0.199 C 
ATOM      3  C   UNL     1      13.260   7.872  19.717  0.00  0.00    +0.169 C 
ATOM     14  O   UNL     1      13.589   8.621  19.819  0.00  0.00    -0.350 OA
ATOM     15  C   UNL     1      13.852   8.887  19.084  0.00  0.00    +0.162 C 
ATOM     16  C   UNL     1      13.685   8.303  18.527  0.00  0.00    +0.135 C 
ENDROOT
BRANCH   3   4
ATOM      4  C   UNL     1      12.930   7.402  20.309  0.00  0.00    +0.148 C 
BRANCH   4   5
ATOM      5  N   UNL     1      12.294   7.683  20.753  0.00  0.00    -0.199 NA
ATOM      6  C   UNL     1      11.984   7.226  21.366  0.00  0.00    +0.265 C 
ATOM      7  O   UNL     1      12.310   6.488  21.536  0.00  0.00    -0.268 OA
BRANCH   6   8
ATOM      8  C   UNL     1      11.348   7.508  21.810  0.00  0.00    +0.058 A 
ATOM      9  C   UNL     1      10.614   7.135  21.761  0.00  0.00    +0.025 A 
ATOM     10  C   UNL     1       9.977   7.416  22.204  0.00  0.00    +0.099 A 
ATOM     11  N   UNL     1      10.076   8.071  22.696  0.00  0.00    -0.242 NA
ATOM     12  C   UNL     1      10.810   8.444  22.745  0.00  0.00    +0.099 A 
ATOM     13  C   UNL     1      11.446   8.163  22.302  0.00  0.00    +0.025 A 
ENDBRANCH   6   8
ENDBRANCH   4   5
ENDBRANCH   3   4
BRANCH  16  17
ATOM     17  N   UNL     1      13.853   8.339  17.721  0.00  0.00    -0.209 NA
BRANCH  17  18
ATOM     18  C   UNL     1      13.703   9.031  17.299  0.00  0.00    +0.117 C 
BRANCH  18  19
ATOM     19  C   UNL     1      13.823   9.051  16.482  0.00  0.00    +0.014 A 
ATOM     20  C   UNL     1      14.589   9.061  16.178  0.00  0.00    +0.000 A 
ATOM     21  C   UNL     1      14.709   9.081  15.362  0.00  0.00    +0.020 A 
ATOM     22  C   UNL     1      14.062   9.092  14.850  0.00  0.00    +0.099 A 
ATOM     23  N   UNL     1      13.295   9.083  15.154  0.00  0.00    -0.243 NA
ATOM     24  C   UNL     1      13.175   9.063  15.971  0.00  0.00    +0.096 A 
ENDBRANCH  18  19
ENDBRANCH  17  18
ENDBRANCH  16  17
TORSDOF 6
ENDMDL
MODEL 9
REMARK VINA RESULT:      -4.9     16.170     18.923
REMARK  Name = 
REMARK  6 active torsions:
REMARK  status: ('A' for Active; 'I' for Inactive)
REMARK    1  A    between atoms: C_3  and  C_4
REMARK    2  A    between atoms: C_4  and  N_5
REMARK    3  A    between atoms: C_6  and  C_8
REMARK    4  A    between atoms: C_16  and  N_17
REMARK    5  A    between atoms: N_17  and  C_18
REMARK    6  A    between atoms: C_18  and  C_19
REMARK                            x       y       z     vdW  Elec       q    Type
REMARK                         _______ _______ _______ _____ _____    ______ ____
ROOT
ATOM      1  O   UNL     1      13.918   9.000  21.077  0.00  0.00    -0.219 OA
ATOM      2  C   UNL     1      13.635   8.651  20.385  0.00  0.00    +0.199 C 
ATOM      3  C   UNL     1      14.095   8.359  19.766  0.00  0.00    +0.169 C 
ATOM     14  O   UNL     1      13.587   8.061  19.189  0.00  0.00    -0.350 OA
ATOM     15  C   UNL     1      12.812   8.169  19.452  0.00  0.00    +0.162 C 
ATOM     16  C   UNL     1      12.842   8.533  20.191  0.00  0.00    +0.135 C 
ENDROOT
BRANCH   3   4
ATOM      4  C   UNL     1      14.920   8.364  19.730  0.00  0.00    +0.148 C 
BRANCH   4   5
ATOM      5  N   UNL     1      15.334   7.654  19.662  0.00  0.00    -0.199 NA
ATOM      6  C   UNL     1      16.159   7.658  19.637  0.00  0.00    +0.265 C 
ATOM      7  O   UNL     1      16.569   8.372  19.682  0.00  0.00    -0.268 OA
BRANCH   6   8
ATOM      8  C   UNL     1      16.573   6.948  19.569  0.00  0.00    +0.058 A 
ATOM      9  C   UNL     1      16.592   6.550  18.847  0.00  0.00    +0.025 A 
ATOM     10  C   UNL     1      17.007   5.839  18.778  0.00  0.00    +0.099 A 
ATOM     11  N   UNL     1      17.402   5.528  19.432  0.00  0.00    -0.242 NA
ATOM     12  C   UNL     1      17.382   5.926  20.154  0.00  0.00    +0.099 A 
ATOM     13  C   UNL     1      16.968   6.636  20.223  0.00  0.00    +0.025 A 
ENDBRANCH   6   8
ENDBRANCH   4   5
ENDBRANCH   3   4
BRANCH  16  17
ATOM     17  N   UNL     1      12.193   8.744  20.654  0.00  0.00    -0.209 NA
BRANCH  17  18
ATOM     18  C   UNL     1      11.498   8.301  20.616  0.00  0.00    +0.117 C 
BRANCH  18  19
ATOM     19  C   UNL     1      11.022   8.221  21.286  0.00  0.00    +0.014 A 
ATOM     20  C   UNL     1      10.787   7.472  21.538  0.00  0.00    +0.000 A 
ATOM     21  C   UNL     1      10.311   7.393  22.208  0.00  0.00    +0.020 A 
ATOM     22  C   UNL     1      10.071   8.063  22.624  0.00  0.00    +0.099 A 
ATOM     23  N   UNL     1      10.306   8.812  22.372  0.00  0.00    -0.243 NA
ATOM     24  C   UNL     1      10.782   8.892  21.702  0.00  0.00    +0.096 A 
ENDBRANCH  18  19
ENDBRANCH  17  18
ENDBRANCH  16  17
TORSDOF 6
ENDMDL
