MODEL 1
REMARK VINA RESULT:     -10.0      0.000      0.000
REMARK  Name = 
REMARK  3 active torsions:
REMARK  status: ('A' for Active; 'I' for Inactive)
REMARK    1  A    between atoms: C_2  and  C_3
REMARK    2  A    between atoms: C_12  and  O_14
REMARK    3  A    between atoms: O_14  and  C_15
REMARK                            x       y       z     vdW  Elec       q    Type
REMARK                         _______ _______ _______ _____ _____    ______ ____
ROOT
ATOM      1  O   UNL     1      -4.709  -0.903  24.102  0.00  0.00    -0.275 OA
ATOM      2  C   UNL     1      -3.950  -0.935  24.422  0.00  0.00    +0.225 C 
ATOM      7  N   UNL     1      -3.515  -0.240  24.522  0.00  0.00    -0.273 N 
ATOM      8  C   UNL     1      -2.763  -0.333  24.846  0.00  0.00    +0.126 C 
ATOM      9  C   UNL     1      -2.199   0.246  25.014  0.00  0.00    +0.164 C 
ATOM     10  O   UNL     1      -2.251   1.062  24.898  0.00  0.00    -0.348 OA
ATOM     11  C   UNL     1      -2.877   1.499  24.586  0.00  0.00    +0.187 C 
ATOM     12  C   UNL     1      -3.607   1.229  24.313  0.00  0.00    +0.215 C 
ATOM     13  C   UNL     1      -3.892   0.455  24.285  0.00  0.00    +0.139 C 
ENDROOT
BRANCH   2   3
ATOM      3  C   UNL     1      -3.624  -1.661  24.642  0.00  0.00    +0.077 C 
ATOM      4  C   UNL     1      -3.251  -2.277  24.242  0.00  0.00    +0.009 C 
ATOM      5  C   UNL     1      -3.164  -2.686  24.952  0.00  0.00    +0.001 C 
ATOM      6  C   UNL     1      -3.538  -2.069  25.353  0.00  0.00    +0.009 C 
ENDBRANCH   2   3
BRANCH  12  14
ATOM     14  O   UNL     1      -4.121   1.809  24.032  0.00  0.00    -0.473 OA
BRANCH  14  15
ATOM     15  C   UNL     1      -4.490   2.325  24.559  0.00  0.00    +0.158 A 
ATOM     16  C   UNL     1      -5.220   2.129  24.889  0.00  0.00    +0.040 A 
ATOM     17  C   UNL     1      -5.588   2.645  25.416  0.00  0.00    +0.024 A 
ATOM     18  C   UNL     1      -5.225   3.359  25.614  0.00  0.00    +0.099 A 
ATOM     19  N   UNL     1      -4.495   3.556  25.285  0.00  0.00    -0.239 NA
ATOM     20  C   UNL     1      -4.127   3.040  24.758  0.00  0.00    +0.136 A 
ENDBRANCH  14  15
ENDBRANCH  12  14
TORSDOF 3
ENDMDL
MODEL 2
REMARK VINA RESULT:      -9.8      1.053      4.042
REMARK  Name = 
REMARK  3 active torsions:
REMARK  status: ('A' for Active; 'I' for Inactive)
REMARK    1  A    between atoms: C_2  and  C_3
REMARK    2  A    between atoms: C_12  and  O_14
REMARK    3  A    between atoms: O_14  and  C_15
REMARK                            x       y       z     vdW  Elec       q    Type
REMARK                         _______ _______ _______ _____ _____    ______ ____
ROOT
ATOM      1  O   UNL     1      -5.123   1.736  24.681  0.00  0.00    -0.275 OA
ATOM      2  C   UNL     1      -4.329   1.954  24.625  0.00  0.00    +0.225 C 
ATOM      7  N   UNL     1      -3.738   1.402  24.791  0.00  0.00    -0.273 N 
ATOM      8  C   UNL     1      -2.963   1.676  24.718  0.00  0.00    +0.126 C 
ATOM      9  C   UNL     1      -2.258   1.265  24.844  0.00  0.00    +0.164 C 
ATOM     10  O   UNL     1      -2.155   0.479  25.073  0.00  0.00    -0.348 OA
ATOM     11  C   UNL     1      -2.730  -0.090  25.233  0.00  0.00    +0.187 C 
ATOM     12  C   UNL     1      -3.552  -0.014  25.203  0.00  0.00    +0.215 C 
ATOM     13  C   UNL     1      -4.000   0.650  25.007  0.00  0.00    +0.139 C 
ENDROOT
BRANCH   2   3
ATOM      3  C   UNL     1      -4.126   2.722  24.404  0.00  0.00    +0.077 C 
ATOM      4  C   UNL     1      -3.936   3.093  23.693  0.00  0.00    +0.009 C 
ATOM      5  C   UNL     1      -3.839   3.809  24.091  0.00  0.00    +0.001 C 
ATOM      6  C   UNL     1      -4.030   3.438  24.804  0.00  0.00    +0.009 C 
ENDBRANCH   2   3
BRANCH  12  14
ATOM     14  O   UNL     1      -3.981  -0.691  25.396  0.00  0.00    -0.473 OA
BRANCH  14  15
ATOM     15  C   UNL     1      -3.886  -1.380  24.952  0.00  0.00    +0.158 A 
ATOM     16  C   UNL     1      -4.255  -1.453  24.218  0.00  0.00    +0.040 A 
ATOM     17  C   UNL     1      -4.160  -2.142  23.774  0.00  0.00    +0.024 A 
ATOM     18  C   UNL     1      -3.696  -2.759  24.066  0.00  0.00    +0.099 A 
ATOM     19  N   UNL     1      -3.327  -2.687  24.800  0.00  0.00    -0.239 NA
ATOM     20  C   UNL     1      -3.422  -1.998  25.243  0.00  0.00    +0.136 A 
ENDBRANCH  14  15
ENDBRANCH  12  14
TORSDOF 3
ENDMDL
MODEL 3
REMARK VINA RESULT:      -9.5      1.257      1.993
REMARK  Name = 
REMARK  3 active torsions:
REMARK  status: ('A' for Active; 'I' for Inactive)
REMARK    1  A    between atoms: C_2  and  C_3
REMARK    2  A    between atoms: C_12  and  O_14
REMARK    3  A    between atoms: O_14  and  C_15
REMARK                            x       y       z     vdW  Elec       q    Type
REMARK                         _______ _______ _______ _____ _____    ______ ____
ROOT
ATOM      1  O   UNL     1      -2.177  -0.268  24.273  0.00  0.00    -0.275 OA
ATOM      2  C   UNL     1      -2.957  -0.345  24.532  0.00  0.00    +0.225 C 
ATOM      7  N   UNL     1      -3.437   0.323  24.597  0.00  0.00    -0.273 N 
ATOM      8  C   UNL     1      -4.206   0.185  24.860  0.00  0.00    +0.126 C 
ATOM      9  C   UNL     1      -4.814   0.731  24.983  0.00  0.00    +0.164 C 
ATOM     10  O   UNL     1      -4.801   1.548  24.871  0.00  0.00    -0.348 OA
ATOM     11  C   UNL     1      -4.178   2.022  24.610  0.00  0.00    +0.187 C 
ATOM     12  C   UNL     1      -3.414   1.796  24.397  0.00  0.00    +0.215 C 
ATOM     13  C   UNL     1      -3.084   1.039  24.391  0.00  0.00    +0.139 C 
ENDROOT
BRANCH   2   3
ATOM      3  C   UNL     1      -3.256  -1.090  24.725  0.00  0.00    +0.077 C 
ATOM      4  C   UNL     1      -3.296  -1.541  25.413  0.00  0.00    +0.009 C 
ATOM      5  C   UNL     1      -3.679  -2.141  24.997  0.00  0.00    +0.001 C 
ATOM      6  C   UNL     1      -3.639  -1.690  24.308  0.00  0.00    +0.009 C 
ENDBRANCH   2   3
BRANCH  12  14
ATOM     14  O   UNL     1      -2.913   2.406  24.157  0.00  0.00    -0.473 OA
BRANCH  14  15
ATOM     15  C   UNL     1      -2.656   2.968  24.704  0.00  0.00    +0.158 A 
ATOM     16  C   UNL     1      -1.961   2.843  25.129  0.00  0.00    +0.040 A 
ATOM     17  C   UNL     1      -1.704   3.404  25.676  0.00  0.00    +0.024 A 
ATOM     18  C   UNL     1      -2.143   4.092  25.797  0.00  0.00    +0.099 A 
ATOM     19  N   UNL     1      -2.839   4.218  25.373  0.00  0.00    -0.239 NA
ATOM     20  C   UNL     1      -3.096   3.656  24.826  0.00  0.00    +0.136 A 
ENDBRANCH  14  15
ENDBRANCH  12  14
TORSDOF 3
ENDMDL
MODEL 4
REMARK VINA RESULT:      -9.4      2.361      2.850
REMARK  Name = 
REMARK  3 active torsions:
REMARK  status: ('A' for Active; 'I' for Inactive)
REMARK    1  A    between atoms: C_2  and  C_3
REMARK    2  A    between atoms: C_12  and  O_14
REMARK    3  A    between atoms: O_14  and  C_15
REMARK                            x       y       z     vdW  Elec       q    Type
REMARK                         _______ _______ _______ _____ _____    ______ ____
ROOT
ATOM      1  O   UNL     1      -3.593  -0.568  25.531  0.00  0.00    -0.275 OA
ATOM      2  C   UNL     1      -3.109  -1.085  25.109  0.00  0.00    +0.225 C 
ATOM      7  N   UNL     1      -2.306  -0.915  25.017  0.00  0.00    -0.273 N 
ATOM      8  C   UNL     1      -1.872  -1.467  24.586  0.00  0.00    +0.126 C 
ATOM      9  C   UNL     1      -1.068  -1.457  24.398  0.00  0.00    +0.164 C 
ATOM     10  O   UNL     1      -0.501  -0.891  24.597  0.00  0.00    -0.348 OA
ATOM     11  C   UNL     1      -0.598  -0.195  25.031  0.00  0.00    +0.187 C 
ATOM     12  C   UNL     1      -1.285   0.105  25.374  0.00  0.00    +0.215 C 
ATOM     13  C   UNL     1      -2.046  -0.215  25.368  0.00  0.00    +0.139 C 
ENDROOT
BRANCH   2   3
ATOM      3  C   UNL     1      -3.426  -1.771  24.780  0.00  0.00    +0.077 C 
ATOM      4  C   UNL     1      -3.455  -2.565  25.001  0.00  0.00    +0.009 C 
ATOM      5  C   UNL     1      -3.874  -2.742  24.313  0.00  0.00    +0.001 C 
ATOM      6  C   UNL     1      -3.846  -1.948  24.091  0.00  0.00    +0.009 C 
ENDBRANCH   2   3
BRANCH  12  14
ATOM     14  O   UNL     1      -1.201   0.820  25.777  0.00  0.00    -0.473 OA
BRANCH  14  15
ATOM     15  C   UNL     1      -1.018   1.508  25.361  0.00  0.00    +0.158 A 
ATOM     16  C   UNL     1      -1.621   1.973  25.043  0.00  0.00    +0.040 A 
ATOM     17  C   UNL     1      -1.437   2.661  24.628  0.00  0.00    +0.024 A 
ATOM     18  C   UNL     1      -0.649   2.886  24.530  0.00  0.00    +0.099 A 
ATOM     19  N   UNL     1      -0.046   2.422  24.848  0.00  0.00    -0.239 NA
ATOM     20  C   UNL     1      -0.229   1.734  25.264  0.00  0.00    +0.136 A 
ENDBRANCH  14  15
ENDBRANCH  12  14
TORSDOF 3
ENDMDL
