MODEL 1
REMARK VINA RESULT:      -9.3      0.000      0.000
REMARK  Name = 
REMARK  9 active torsions:
REMARK  status: ('A' for Active; 'I' for Inactive)
REMARK    1  A    between atoms: C_2  and  C_4
REMARK    2  A    between atoms: C_6  and  C_7
REMARK    3  A    between atoms: C_7  and  C_8
REMARK    4  A    between atoms: C_11  and  C_13
REMARK    5  A    between atoms: C_16  and  N_19
REMARK    6  A    between atoms: C_25  and  C_26
REMARK    7  A    between atoms: C_26  and  N_27
REMARK    8  A    between atoms: N_27  and  C_28
REMARK    9  A    between atoms: C_28  and  C_29
REMARK                            x       y       z     vdW  Elec       q    Type
REMARK                         _______ _______ _______ _____ _____    ______ ____
ROOT
ATOM      4  C   UNL     1      -3.566   3.638  25.584  0.00  0.00    +0.006 C 
ATOM      5  C   UNL     1      -4.158   3.108  25.361  0.00  0.00    +0.005 C 
ATOM      6  C   UNL     1      -4.258   2.911  24.566  0.00  0.00    +0.027 C 
ATOM     22  C   UNL     1      -3.765   3.243  23.994  0.00  0.00    -0.048 C 
ATOM     23  C   UNL     1      -3.865   3.046  23.200  0.00  0.00    +0.026 C 
ATOM     24  C   UNL     1      -3.174   3.773  24.216  0.00  0.00    -0.033 C 
ATOM     25  C   UNL     1      -3.073   3.970  25.011  0.00  0.00    +0.039 C 
ENDROOT
BRANCH   4   2
ATOM      1  C   UNL     1      -2.896   3.446  26.831  0.00  0.00    +0.000 C 
ATOM      2  C   UNL     1      -3.466   3.835  26.378  0.00  0.00    +0.000 C 
ATOM      3  C   UNL     1      -3.936   4.419  26.721  0.00  0.00    +0.000 C 
ENDBRANCH   4   2
BRANCH   6   7
ATOM      7  C   UNL     1      -4.850   2.381  24.345  0.00  0.00    +0.091 C 
BRANCH   7   8
ATOM      8  C   UNL     1      -4.854   1.615  24.652  0.00  0.00    +0.227 A 
ATOM      9  N   UNL     1      -5.367   1.327  25.231  0.00  0.00    -0.111 NA
ATOM     10  N   UNL     1      -5.176   0.537  25.371  0.00  0.00    -0.107 NA
ATOM     11  C   UNL     1      -4.544   0.337  24.879  0.00  0.00    +0.250 A 
ATOM     12  O   UNL     1      -4.345   1.003  24.435  0.00  0.00    -0.420 OA
BRANCH  11  13
ATOM     13  C   UNL     1      -4.176  -0.400  24.839  0.00  0.00    +0.055 A 
ATOM     14  C   UNL     1      -3.675  -0.646  25.446  0.00  0.00    +0.006 A 
ATOM     15  C   UNL     1      -3.307  -1.383  25.406  0.00  0.00    +0.024 A 
ATOM     16  C   UNL     1      -3.441  -1.876  24.757  0.00  0.00    +0.143 A 
ATOM     17  C   UNL     1      -3.943  -1.630  24.150  0.00  0.00    +0.024 A 
ATOM     18  C   UNL     1      -4.310  -0.894  24.191  0.00  0.00    +0.006 A 
BRANCH  16  19
ATOM     19  N   UNL     1      -3.074  -2.613  24.717  0.00  0.00    +0.058 N 
ATOM     20  O   UNL     1      -3.519  -3.302  24.812  0.00  0.00    -0.126 OA
ATOM     21  O   UNL     1      -2.262  -2.663  24.580  0.00  0.00    -0.126 OA
ENDBRANCH  16  19
ENDBRANCH  11  13
ENDBRANCH   7   8
ENDBRANCH   6   7
BRANCH  25  26
ATOM     26  C   UNL     1      -2.482   4.499  25.234  0.00  0.00    +0.094 C 
BRANCH  26  27
ATOM     27  N   UNL     1      -1.882   4.695  24.702  0.00  0.00    -0.204 NA
BRANCH  27  28
ATOM     28  C   UNL     1      -1.254   5.172  24.945  0.00  0.00    +0.165 C 
BRANCH  28  29
ATOM     29  C   UNL     1      -0.518   5.102  24.578  0.00  0.00    -0.059 C 
ATOM     30  C   UNL     1       0.218   5.031  24.212  0.00  0.00    -0.013 C 
ENDBRANCH  28  29
ENDBRANCH  27  28
ENDBRANCH  26  27
ENDBRANCH  25  26
TORSDOF 9
ENDMDL
MODEL 2
REMARK VINA RESULT:      -8.6      2.937      4.496
REMARK  Name = 
REMARK  9 active torsions:
REMARK  status: ('A' for Active; 'I' for Inactive)
REMARK    1  A    between atoms: C_2  and  C_4
REMARK    2  A    between atoms: C_6  and  C_7
REMARK    3  A    between atoms: C_7  and  C_8
REMARK    4  A    between atoms: C_11  and  C_13
REMARK    5  A    between atoms: C_16  and  N_19
REMARK    6  A    between atoms: C_25  and  C_26
REMARK    7  A    between atoms: C_26  and  N_27
REMARK    8  A    between atoms: N_27  and  C_28
REMARK    9  A    between atoms: C_28  and  C_29
REMARK                            x       y       z     vdW  Elec       q    Type
REMARK                         _______ _______ _______ _____ _____    ______ ____
ROOT
ATOM      4  C   UNL     1      -0.811   0.960  24.774  0.00  0.00    +0.006 C 
ATOM      5  C   UNL     1      -1.195   1.593  25.139  0.00  0.00    +0.005 C 
ATOM      6  C   UNL     1      -0.921   2.362  25.025  0.00  0.00    +0.027 C 
ATOM     22  C   UNL     1      -0.264   2.500  24.545  0.00  0.00    -0.048 C 
ATOM     23  C   UNL     1       0.009   3.269  24.431  0.00  0.00    +0.026 C 
ATOM     24  C   UNL     1       0.119   1.868  24.181  0.00  0.00    -0.033 C 
ATOM     25  C   UNL     1      -0.154   1.097  24.295  0.00  0.00    +0.039 C 
ENDROOT
BRANCH   4   2
ATOM      1  C   UNL     1      -0.848  -0.237  25.554  0.00  0.00    +0.000 C 
ATOM      2  C   UNL     1      -1.085   0.190  24.889  0.00  0.00    +0.000 C 
ATOM      3  C   UNL     1      -1.595  -0.153  24.339  0.00  0.00    +0.000 C 
ENDBRANCH   4   2
BRANCH   6   7
ATOM      7  C   UNL     1      -1.305   2.994  25.390  0.00  0.00    +0.091 C 
BRANCH   7   8
ATOM      8  C   UNL     1      -2.094   3.158  25.208  0.00  0.00    +0.227 A 
ATOM      9  N   UNL     1      -2.371   3.824  24.806  0.00  0.00    -0.111 NA
ATOM     10  N   UNL     1      -3.191   3.763  24.746  0.00  0.00    -0.107 NA
ATOM     11  C   UNL     1      -3.421   3.058  25.109  0.00  0.00    +0.250 A 
ATOM     12  O   UNL     1      -2.743   2.685  25.395  0.00  0.00    -0.420 OA
BRANCH  11  13
ATOM     13  C   UNL     1      -4.194   2.777  25.175  0.00  0.00    +0.055 A 
ATOM     14  C   UNL     1      -4.718   3.129  25.706  0.00  0.00    +0.006 A 
ATOM     15  C   UNL     1      -5.490   2.849  25.772  0.00  0.00    +0.024 A 
ATOM     16  C   UNL     1      -5.740   2.215  25.306  0.00  0.00    +0.143 A 
ATOM     17  C   UNL     1      -5.215   1.862  24.774  0.00  0.00    +0.024 A 
ATOM     18  C   UNL     1      -4.443   2.143  24.709  0.00  0.00    +0.006 A 
BRANCH  16  19
ATOM     19  N   UNL     1      -6.512   1.933  25.371  0.00  0.00    +0.058 N 
ATOM     20  O   UNL     1      -6.821   1.744  26.113  0.00  0.00    -0.126 OA
ATOM     21  O   UNL     1      -6.976   1.841  24.695  0.00  0.00    -0.126 OA
ENDBRANCH  16  19
ENDBRANCH  11  13
ENDBRANCH   7   8
ENDBRANCH   6   7
BRANCH  25  26
ATOM     26  C   UNL     1       0.230   0.465  23.930  0.00  0.00    +0.094 C 
BRANCH  26  27
ATOM     27  N   UNL     1       0.894   0.601  23.460  0.00  0.00    -0.204 NA
BRANCH  27  28
ATOM     28  C   UNL     1       1.218  -0.014  23.015  0.00  0.00    +0.165 C 
BRANCH  28  29
ATOM     29  C   UNL     1       1.974   0.064  22.695  0.00  0.00    -0.059 C 
ATOM     30  C   UNL     1       2.731   0.142  22.374  0.00  0.00    -0.013 C 
ENDBRANCH  28  29
ENDBRANCH  27  28
ENDBRANCH  26  27
ENDBRANCH  25  26
TORSDOF 9
ENDMDL
MODEL 3
REMARK VINA RESULT:      -8.5      3.129      4.727
REMARK  Name = 
REMARK  9 active torsions:
REMARK  status: ('A' for Active; 'I' for Inactive)
REMARK    1  A    between atoms: C_2  and  C_4
REMARK    2  A    between atoms: C_6  and  C_7
REMARK    3  A    between atoms: C_7  and  C_8
REMARK    4  A    between atoms: C_11  and  C_13
REMARK    5  A    between atoms: C_16  and  N_19
REMARK    6  A    between atoms: C_25  and  C_26
REMARK    7  A    between atoms: C_26  and  N_27
REMARK    8  A    between atoms: N_27  and  C_28
REMARK    9  A    between atoms: C_28  and  C_29
REMARK                            x       y       z     vdW  Elec       q    Type
REMARK                         _______ _______ _______ _____ _____    ______ ____
ROOT
ATOM      4  C   UNL     1      -0.510   0.802  24.243  0.00  0.00    +0.006 C 
ATOM      5  C   UNL     1      -1.203   0.558  24.620  0.00  0.00    +0.005 C 
ATOM      6  C   UNL     1      -1.403  -0.242  24.636  0.00  0.00    +0.027 C 
ATOM     22  C   UNL     1      -0.911  -0.798  24.277  0.00  0.00    -0.048 C 
ATOM     23  C   UNL     1      -1.112  -1.597  24.294  0.00  0.00    +0.026 C 
ATOM     24  C   UNL     1      -0.219  -0.554  23.901  0.00  0.00    -0.033 C 
ATOM     25  C   UNL     1      -0.018   0.246  23.884  0.00  0.00    +0.039 C 
ENDROOT
BRANCH   4   2
ATOM      1  C   UNL     1      -0.559   2.076  23.599  0.00  0.00    +0.000 C 
ATOM      2  C   UNL     1      -0.310   1.602  24.227  0.00  0.00    +0.000 C 
ATOM      3  C   UNL     1       0.139   1.928  24.838  0.00  0.00    +0.000 C 
ENDBRANCH   4   2
BRANCH   6   7
ATOM      7  C   UNL     1      -2.096  -0.485  25.012  0.00  0.00    +0.091 C 
BRANCH   7   8
ATOM      8  C   UNL     1      -2.812  -0.111  24.840  0.00  0.00    +0.227 A 
ATOM      9  N   UNL     1      -3.365  -0.357  24.279  0.00  0.00    -0.111 NA
ATOM     10  N   UNL     1      -3.994   0.176  24.290  0.00  0.00    -0.107 NA
ATOM     11  C   UNL     1      -3.830   0.752  24.858  0.00  0.00    +0.250 A 
ATOM     12  O   UNL     1      -3.099   0.575  25.197  0.00  0.00    -0.420 OA
BRANCH  11  13
ATOM     13  C   UNL     1      -4.312   1.393  25.052  0.00  0.00    +0.055 A 
ATOM     14  C   UNL     1      -5.053   1.265  25.389  0.00  0.00    +0.006 A 
ATOM     15  C   UNL     1      -5.536   1.905  25.583  0.00  0.00    +0.024 A 
ATOM     16  C   UNL     1      -5.276   2.676  25.439  0.00  0.00    +0.143 A 
ATOM     17  C   UNL     1      -4.534   2.804  25.101  0.00  0.00    +0.024 A 
ATOM     18  C   UNL     1      -4.052   2.163  24.908  0.00  0.00    +0.006 A 
BRANCH  16  19
ATOM     19  N   UNL     1      -5.757   3.316  25.632  0.00  0.00    +0.058 N 
ATOM     20  O   UNL     1      -6.417   3.206  26.116  0.00  0.00    -0.126 OA
ATOM     21  O   UNL     1      -5.580   4.068  25.341  0.00  0.00    -0.126 OA
ENDBRANCH  16  19
ENDBRANCH  11  13
ENDBRANCH   7   8
ENDBRANCH   6   7
BRANCH  25  26
ATOM     26  C   UNL     1       0.674   0.490  23.509  0.00  0.00    +0.094 C 
BRANCH  26  27
ATOM     27  N   UNL     1       1.211  -0.071  23.230  0.00  0.00    -0.204 NA
BRANCH  27  28
ATOM     28  C   UNL     1       1.676   0.096  22.568  0.00  0.00    +0.165 C 
BRANCH  28  29
ATOM     29  C   UNL     1       2.498   0.108  22.634  0.00  0.00    -0.059 C 
ATOM     30  C   UNL     1       3.320   0.119  22.702  0.00  0.00    -0.013 C 
ENDBRANCH  28  29
ENDBRANCH  27  28
ENDBRANCH  26  27
ENDBRANCH  25  26
TORSDOF 9
ENDMDL
MODEL 4
REMARK VINA RESULT:      -8.4      2.242      3.739
REMARK  Name = 
REMARK  9 active torsions:
REMARK  status: ('A' for Active; 'I' for Inactive)
REMARK    1  A    between atoms: C_2  and  C_4
REMARK    2  A    between atoms: C_6  and  C_7
REMARK    3  A    between atoms: C_7  and  C_8
REMARK    4  A    between atoms: C_11  and  C_13
REMARK    5  A    between atoms: C_16  and  N_19
REMARK    6  A    between atoms: C_25  and  C_26
REMARK    7  A    between atoms: C_26  and  N_27
REMARK    8  A    between atoms: N_27  and  C_28
REMARK    9  A    between atoms: C_28  and  C_29
REMARK                            x       y       z     vdW  Elec       q    Type
REMARK                         _______ _______ _______ _____ _____    ______ ____
ROOT
ATOM      4  C   UNL     1      -3.238   3.193  24.266  0.00  0.00    +0.006 C 
ATOM      5  C   UNL     1      -2.413   3.156  24.261  0.00  0.00    +0.005 C 
ATOM      6  C   UNL     1      -1.988   3.371  24.935  0.00  0.00    +0.027 C 
ATOM     22  C   UNL     1      -2.386   3.624  25.612  0.00  0.00    -0.048 C 
ATOM     23  C   UNL     1      -1.960   3.839  26.284  0.00  0.00    +0.026 C 
ATOM     24  C   UNL     1      -3.209   3.660  25.615  0.00  0.00    -0.033 C 
ATOM     25  C   UNL     1      -3.636   3.445  24.943  0.00  0.00    +0.039 C 
ENDROOT
BRANCH   4   2
ATOM      1  C   UNL     1      -3.917   3.557  23.062  0.00  0.00    +0.000 C 
ATOM      2  C   UNL     1      -3.663   2.977  23.592  0.00  0.00    +0.000 C 
ATOM      3  C   UNL     1      -3.835   2.183  23.449  0.00  0.00    +0.000 C 
ENDBRANCH   4   2
BRANCH   6   7
ATOM      7  C   UNL     1      -1.164   3.334  24.930  0.00  0.00    +0.091 C 
BRANCH   7   8
ATOM      8  C   UNL     1      -0.784   2.620  24.762  0.00  0.00    +0.227 A 
ATOM      9  N   UNL     1      -0.084   2.532  24.334  0.00  0.00    -0.111 NA
ATOM     10  N   UNL     1       0.094   1.728  24.300  0.00  0.00    -0.107 NA
ATOM     11  C   UNL     1      -0.496   1.318  24.707  0.00  0.00    +0.250 A 
ATOM     12  O   UNL     1      -1.038   1.871  24.993  0.00  0.00    -0.420 OA
BRANCH  11  13
ATOM     13  C   UNL     1      -0.535   0.501  24.811  0.00  0.00    +0.055 A 
ATOM     14  C   UNL     1      -0.868   0.186  25.496  0.00  0.00    +0.006 A 
ATOM     15  C   UNL     1      -0.907  -0.631  25.599  0.00  0.00    +0.024 A 
ATOM     16  C   UNL     1      -0.612  -1.135  25.015  0.00  0.00    +0.143 A 
ATOM     17  C   UNL     1      -0.278  -0.820  24.329  0.00  0.00    +0.024 A 
ATOM     18  C   UNL     1      -0.239  -0.003  24.227  0.00  0.00    +0.006 A 
BRANCH  16  19
ATOM     19  N   UNL     1      -0.651  -1.952  25.118  0.00  0.00    +0.058 N 
ATOM     20  O   UNL     1      -1.306  -2.372  24.842  0.00  0.00    -0.126 OA
ATOM     21  O   UNL     1      -0.035  -2.350  25.496  0.00  0.00    -0.126 OA
ENDBRANCH  16  19
ENDBRANCH  11  13
ENDBRANCH   7   8
ENDBRANCH   6   7
BRANCH  25  26
ATOM     26  C   UNL     1      -4.460   3.482  24.947  0.00  0.00    +0.094 C 
BRANCH  26  27
ATOM     27  N   UNL     1      -4.875   3.343  25.645  0.00  0.00    -0.204 NA
BRANCH  27  28
ATOM     28  C   UNL     1      -5.696   3.255  25.627  0.00  0.00    +0.165 C 
BRANCH  28  29
ATOM     29  C   UNL     1      -6.053   2.635  26.037  0.00  0.00    -0.059 C 
ATOM     30  C   UNL     1      -6.411   2.014  26.446  0.00  0.00    -0.013 C 
ENDBRANCH  28  29
ENDBRANCH  27  28
ENDBRANCH  26  27
ENDBRANCH  25  26
TORSDOF 9
ENDMDL
MODEL 5
REMARK VINA RESULT:      -8.2      2.051      5.524
REMARK  Name = 
REMARK  9 active torsions:
REMARK  status: ('A' for Active; 'I' for Inactive)
REMARK    1  A    between atoms: C_2  and  C_4
REMARK    2  A    between atoms: C_6  and  C_7
REMARK    3  A    between atoms: C_7  and  C_8
REMARK    4  A    between atoms: C_11  and  C_13
REMARK    5  A    between atoms: C_16  and  N_19
REMARK    6  A    between atoms: C_25  and  C_26
REMARK    7  A    between atoms: C_26  and  N_27
REMARK    8  A    between atoms: N_27  and  C_28
REMARK    9  A    between atoms: C_28  and  C_29
REMARK                            x       y       z     vdW  Elec       q    Type
REMARK                         _______ _______ _______ _____ _____    ______ ____
ROOT
ATOM      4  C   UNL     1      -3.748   0.820  24.067  0.00  0.00    +0.006 C 
ATOM      5  C   UNL     1      -4.032   1.559  24.301  0.00  0.00    +0.005 C 
ATOM      6  C   UNL     1      -4.709   1.610  24.770  0.00  0.00    +0.027 C 
ATOM     22  C   UNL     1      -5.101   0.924  25.006  0.00  0.00    -0.048 C 
ATOM     23  C   UNL     1      -5.778   0.976  25.475  0.00  0.00    +0.026 C 
ATOM     24  C   UNL     1      -4.817   0.186  24.772  0.00  0.00    -0.033 C 
ATOM     25  C   UNL     1      -4.141   0.134  24.303  0.00  0.00    +0.039 C 
ENDROOT
BRANCH   4   2
ATOM      1  C   UNL     1      -3.125   0.893  22.784  0.00  0.00    +0.000 C 
ATOM      2  C   UNL     1      -3.072   0.769  23.598  0.00  0.00    +0.000 C 
ATOM      3  C   UNL     1      -2.343   0.594  23.943  0.00  0.00    +0.000 C 
ENDBRANCH   4   2
BRANCH   6   7
ATOM      7  C   UNL     1      -4.993   2.349  25.004  0.00  0.00    +0.091 C 
BRANCH   7   8
ATOM      8  C   UNL     1      -4.473   2.911  25.313  0.00  0.00    +0.227 A 
ATOM      9  N   UNL     1      -4.556   3.303  26.035  0.00  0.00    -0.111 NA
ATOM     10  N   UNL     1      -3.914   3.814  26.122  0.00  0.00    -0.107 NA
ATOM     11  C   UNL     1      -3.434   3.737  25.454  0.00  0.00    +0.250 A 
ATOM     12  O   UNL     1      -3.780   3.179  24.955  0.00  0.00    -0.420 OA
BRANCH  11  13
ATOM     13  C   UNL     1      -2.733   4.147  25.313  0.00  0.00    +0.055 A 
ATOM     14  C   UNL     1      -2.752   4.889  24.954  0.00  0.00    +0.006 A 
ATOM     15  C   UNL     1      -2.051   5.299  24.813  0.00  0.00    +0.024 A 
ATOM     16  C   UNL     1      -1.327   4.966  25.030  0.00  0.00    +0.143 A 
ATOM     17  C   UNL     1      -1.308   4.222  25.389  0.00  0.00    +0.024 A 
ATOM     18  C   UNL     1      -2.009   3.814  25.530  0.00  0.00    +0.006 A 
BRANCH  16  19
ATOM     19  N   UNL     1      -0.626   5.374  24.889  0.00  0.00    +0.058 N 
ATOM     20  O   UNL     1       0.046   4.967  24.637  0.00  0.00    -0.126 OA
ATOM     21  O   UNL     1      -0.595   6.192  24.999  0.00  0.00    -0.126 OA
ENDBRANCH  16  19
ENDBRANCH  11  13
ENDBRANCH   7   8
ENDBRANCH   6   7
BRANCH  25  26
ATOM     26  C   UNL     1      -3.857  -0.604  24.069  0.00  0.00    +0.094 C 
BRANCH  26  27
ATOM     27  N   UNL     1      -4.168  -1.291  24.403  0.00  0.00    -0.204 NA
BRANCH  27  28
ATOM     28  C   UNL     1      -4.085  -2.014  24.014  0.00  0.00    +0.165 C 
BRANCH  28  29
ATOM     29  C   UNL     1      -3.759  -2.660  24.410  0.00  0.00    -0.059 C 
ATOM     30  C   UNL     1      -3.431  -3.306  24.804  0.00  0.00    -0.013 C 
ENDBRANCH  28  29
ENDBRANCH  27  28
ENDBRANCH  26  27
ENDBRANCH  25  26
TORSDOF 9
ENDMDL
MODEL 6
REMARK VINA RESULT:      -7.9      1.928      2.749
REMARK  Name = 
REMARK  9 active torsions:
REMARK  status: ('A' for Active; 'I' for Inactive)
REMARK    1  A    between atoms: C_2  and  C_4
REMARK    2  A    between atoms: C_6  and  C_7
REMARK    3  A    between atoms: C_7  and  C_8
REMARK    4  A    between atoms: C_11  and  C_13
REMARK    5  A    between atoms: C_16  and  N_19
REMARK    6  A    between atoms: C_25  and  C_26
REMARK    7  A    between atoms: C_26  and  N_27
REMARK    8  A    between atoms: N_27  and  C_28
REMARK    9  A    between atoms: C_28  and  C_29
REMARK                            x       y       z     vdW  Elec       q    Type
REMARK                         _______ _______ _______ _____ _____    ______ ____
ROOT
ATOM      4  C   UNL     1      -2.098   2.344  24.940  0.00  0.00    +0.006 C 
ATOM      5  C   UNL     1      -1.723   1.609  24.961  0.00  0.00    +0.005 C 
ATOM      6  C   UNL     1      -1.000   1.527  25.350  0.00  0.00    +0.027 C 
ATOM     22  C   UNL     1      -0.652   2.178  25.716  0.00  0.00    -0.048 C 
ATOM     23  C   UNL     1       0.071   2.096  26.104  0.00  0.00    +0.026 C 
ATOM     24  C   UNL     1      -1.027   2.912  25.695  0.00  0.00    -0.033 C 
ATOM     25  C   UNL     1      -1.750   2.996  25.307  0.00  0.00    +0.039 C 
ENDROOT
BRANCH   4   2
ATOM      1  C   UNL     1      -3.525   2.412  24.983  0.00  0.00    +0.000 C 
ATOM      2  C   UNL     1      -2.822   2.426  24.552  0.00  0.00    +0.000 C 
ATOM      3  C   UNL     1      -2.842   2.521  23.732  0.00  0.00    +0.000 C 
ENDBRANCH   4   2
BRANCH   6   7
ATOM      7  C   UNL     1      -0.625   0.792  25.371  0.00  0.00    +0.091 C 
BRANCH   7   8
ATOM      8  C   UNL     1      -1.066   0.109  25.517  0.00  0.00    +0.227 A 
ATOM      9  N   UNL     1      -1.076  -0.320  26.222  0.00  0.00    -0.111 NA
ATOM     10  N   UNL     1      -1.589  -0.959  26.124  0.00  0.00    -0.107 NA
ATOM     11  C   UNL     1      -1.896  -0.924  25.358  0.00  0.00    +0.250 A 
ATOM     12  O   UNL     1      -1.572  -0.264  24.984  0.00  0.00    -0.420 OA
BRANCH  11  13
ATOM     13  C   UNL     1      -2.432  -1.456  25.027  0.00  0.00    +0.055 A 
ATOM     14  C   UNL     1      -3.242  -1.347  25.134  0.00  0.00    +0.006 A 
ATOM     15  C   UNL     1      -3.778  -1.879  24.803  0.00  0.00    +0.024 A 
ATOM     16  C   UNL     1      -3.504  -2.522  24.364  0.00  0.00    +0.143 A 
ATOM     17  C   UNL     1      -2.692  -2.631  24.257  0.00  0.00    +0.024 A 
ATOM     18  C   UNL     1      -2.157  -2.099  24.588  0.00  0.00    +0.006 A 
BRANCH  16  19
ATOM     19  N   UNL     1      -4.039  -3.054  24.033  0.00  0.00    +0.058 N 
ATOM     20  O   UNL     1      -3.970  -3.862  24.192  0.00  0.00    -0.126 OA
ATOM     21  O   UNL     1      -4.643  -2.781  23.542  0.00  0.00    -0.126 OA
ENDBRANCH  16  19
ENDBRANCH  11  13
ENDBRANCH   7   8
ENDBRANCH   6   7
BRANCH  25  26
ATOM     26  C   UNL     1      -2.125   3.729  25.285  0.00  0.00    +0.094 C 
BRANCH  26  27
ATOM     27  N   UNL     1      -1.705   4.413  25.476  0.00  0.00    -0.204 NA
BRANCH  27  28
ATOM     28  C   UNL     1      -2.055   5.154  25.378  0.00  0.00    +0.165 C 
BRANCH  28  29
ATOM     29  C   UNL     1      -1.628   5.769  25.032  0.00  0.00    -0.059 C 
ATOM     30  C   UNL     1      -1.199   6.384  24.687  0.00  0.00    -0.013 C 
ENDBRANCH  28  29
ENDBRANCH  27  28
ENDBRANCH  26  27
ENDBRANCH  25  26
TORSDOF 9
ENDMDL
MODEL 7
REMARK VINA RESULT:      -7.9      2.270      2.780
REMARK  Name = 
REMARK  9 active torsions:
REMARK  status: ('A' for Active; 'I' for Inactive)
REMARK    1  A    between atoms: C_2  and  C_4
REMARK    2  A    between atoms: C_6  and  C_7
REMARK    3  A    between atoms: C_7  and  C_8
REMARK    4  A    between atoms: C_11  and  C_13
REMARK    5  A    between atoms: C_16  and  N_19
REMARK    6  A    between atoms: C_25  and  C_26
REMARK    7  A    between atoms: C_26  and  N_27
REMARK    8  A    between atoms: N_27  and  C_28
REMARK    9  A    between atoms: C_28  and  C_29
REMARK                            x       y       z     vdW  Elec       q    Type
REMARK                         _______ _______ _______ _____ _____    ______ ____
ROOT
ATOM      4  C   UNL     1      -0.829   2.157  25.073  0.00  0.00    +0.006 C 
ATOM      5  C   UNL     1      -1.576   2.214  24.727  0.00  0.00    +0.005 C 
ATOM      6  C   UNL     1      -2.148   2.706  25.062  0.00  0.00    +0.027 C 
ATOM     22  C   UNL     1      -1.974   3.140  25.741  0.00  0.00    -0.048 C 
ATOM     23  C   UNL     1      -2.546   3.630  26.075  0.00  0.00    +0.026 C 
ATOM     24  C   UNL     1      -1.227   3.082  26.087  0.00  0.00    -0.033 C 
ATOM     25  C   UNL     1      -0.654   2.591  25.753  0.00  0.00    +0.039 C 
ENDROOT
BRANCH   4   2
ATOM      1  C   UNL     1      -0.230   0.866  24.943  0.00  0.00    +0.000 C 
ATOM      2  C   UNL     1      -0.257   1.666  24.739  0.00  0.00    +0.000 C 
ATOM      3  C   UNL     1       0.288   1.973  24.201  0.00  0.00    +0.000 C 
ENDBRANCH   4   2
BRANCH   6   7
ATOM      7  C   UNL     1      -2.895   2.762  24.716  0.00  0.00    +0.091 C 
BRANCH   7   8
ATOM      8  C   UNL     1      -3.399   2.108  24.714  0.00  0.00    +0.227 A 
ATOM      9  N   UNL     1      -4.219   2.128  24.806  0.00  0.00    -0.111 NA
ATOM     10  N   UNL     1      -4.498   1.353  24.769  0.00  0.00    -0.107 NA
ATOM     11  C   UNL     1      -3.851   0.854  24.654  0.00  0.00    +0.250 A 
ATOM     12  O   UNL     1      -3.172   1.321  24.620  0.00  0.00    -0.420 OA
BRANCH  11  13
ATOM     13  C   UNL     1      -3.879   0.033  24.585  0.00  0.00    +0.055 A 
ATOM     14  C   UNL     1      -3.785  -0.442  25.253  0.00  0.00    +0.006 A 
ATOM     15  C   UNL     1      -3.813  -1.263  25.184  0.00  0.00    +0.024 A 
ATOM     16  C   UNL     1      -3.935  -1.611  24.446  0.00  0.00    +0.143 A 
ATOM     17  C   UNL     1      -4.029  -1.136  23.777  0.00  0.00    +0.024 A 
ATOM     18  C   UNL     1      -4.001  -0.315  23.847  0.00  0.00    +0.006 A 
BRANCH  16  19
ATOM     19  N   UNL     1      -3.963  -2.432  24.377  0.00  0.00    +0.058 N 
ATOM     20  O   UNL     1      -3.573  -2.907  24.928  0.00  0.00    -0.126 OA
ATOM     21  O   UNL     1      -4.382  -2.780  23.756  0.00  0.00    -0.126 OA
ENDBRANCH  16  19
ENDBRANCH  11  13
ENDBRANCH   7   8
ENDBRANCH   6   7
BRANCH  25  26
ATOM     26  C   UNL     1       0.092   2.534  26.098  0.00  0.00    +0.094 C 
BRANCH  26  27
ATOM     27  N   UNL     1       0.181   2.651  26.910  0.00  0.00    -0.204 NA
BRANCH  27  28
ATOM     28  C   UNL     1       0.936   2.712  27.238  0.00  0.00    +0.165 C 
BRANCH  28  29
ATOM     29  C   UNL     1       1.046   2.580  28.045  0.00  0.00    -0.059 C 
ATOM     30  C   UNL     1       1.158   2.448  28.852  0.00  0.00    -0.013 C 
ENDBRANCH  28  29
ENDBRANCH  27  28
ENDBRANCH  26  27
ENDBRANCH  25  26
TORSDOF 9
ENDMDL
MODEL 8
REMARK VINA RESULT:      -7.9      3.340      4.936
REMARK  Name = 
REMARK  9 active torsions:
REMARK  status: ('A' for Active; 'I' for Inactive)
REMARK    1  A    between atoms: C_2  and  C_4
REMARK    2  A    between atoms: C_6  and  C_7
REMARK    3  A    between atoms: C_7  and  C_8
REMARK    4  A    between atoms: C_11  and  C_13
REMARK    5  A    between atoms: C_16  and  N_19
REMARK    6  A    between atoms: C_25  and  C_26
REMARK    7  A    between atoms: C_26  and  N_27
REMARK    8  A    between atoms: N_27  and  C_28
REMARK    9  A    between atoms: C_28  and  C_29
REMARK                            x       y       z     vdW  Elec       q    Type
REMARK                         _______ _______ _______ _____ _____    ______ ____
ROOT
ATOM      4  C   UNL     1      -3.299   1.049  24.218  0.00  0.00    +0.006 C 
ATOM      5  C   UNL     1      -2.736   0.449  24.154  0.00  0.00    +0.005 C 
ATOM      6  C   UNL     1      -2.898  -0.301  24.459  0.00  0.00    +0.027 C 
ATOM     22  C   UNL     1      -3.621  -0.450  24.826  0.00  0.00    -0.048 C 
ATOM     23  C   UNL     1      -3.782  -1.199  25.131  0.00  0.00    +0.026 C 
ATOM     24  C   UNL     1      -4.183   0.150  24.889  0.00  0.00    -0.033 C 
ATOM     25  C   UNL     1      -4.022   0.900  24.585  0.00  0.00    +0.039 C 
ENDROOT
BRANCH   4   2
ATOM      1  C   UNL     1      -2.817   2.382  24.402  0.00  0.00    +0.000 C 
ATOM      2  C   UNL     1      -3.137   1.799  23.913  0.00  0.00    +0.000 C 
ATOM      3  C   UNL     1      -3.295   1.965  23.121  0.00  0.00    +0.000 C 
ENDBRANCH   4   2
BRANCH   6   7
ATOM      7  C   UNL     1      -2.335  -0.901  24.396  0.00  0.00    +0.091 C 
BRANCH   7   8
ATOM      8  C   UNL     1      -1.532  -0.720  24.459  0.00  0.00    +0.227 A 
ATOM      9  N   UNL     1      -1.097  -0.683  25.160  0.00  0.00    -0.111 NA
ATOM     10  N   UNL     1      -0.320  -0.486  24.967  0.00  0.00    -0.107 NA
ATOM     11  C   UNL     1      -0.274  -0.401  24.147  0.00  0.00    +0.250 A 
ATOM     12  O   UNL     1      -1.024  -0.546  23.834  0.00  0.00    -0.420 OA
BRANCH  11  13
ATOM     13  C   UNL     1       0.402  -0.206  23.717  0.00  0.00    +0.055 A 
ATOM     14  C   UNL     1       0.782   0.514  23.848  0.00  0.00    +0.006 A 
ATOM     15  C   UNL     1       1.458   0.710  23.419  0.00  0.00    +0.024 A 
ATOM     16  C   UNL     1       1.756   0.184  22.857  0.00  0.00    +0.143 A 
ATOM     17  C   UNL     1       1.376  -0.537  22.725  0.00  0.00    +0.024 A 
ATOM     18  C   UNL     1       0.700  -0.732  23.155  0.00  0.00    +0.006 A 
BRANCH  16  19
ATOM     19  N   UNL     1       2.431   0.378  22.427  0.00  0.00    +0.058 N 
ATOM     20  O   UNL     1       3.017   0.849  22.769  0.00  0.00    -0.126 OA
ATOM     21  O   UNL     1       2.523   0.102  21.654  0.00  0.00    -0.126 OA
ENDBRANCH  16  19
ENDBRANCH  11  13
ENDBRANCH   7   8
ENDBRANCH   6   7
BRANCH  25  26
ATOM     26  C   UNL     1      -4.584   1.500  24.648  0.00  0.00    +0.094 C 
BRANCH  26  27
ATOM     27  N   UNL     1      -5.237   1.404  25.143  0.00  0.00    -0.204 NA
BRANCH  27  28
ATOM     28  C   UNL     1      -5.800   2.005  25.206  0.00  0.00    +0.165 C 
BRANCH  28  29
ATOM     29  C   UNL     1      -6.208   2.114  25.915  0.00  0.00    -0.059 C 
ATOM     30  C   UNL     1      -6.617   2.222  26.623  0.00  0.00    -0.013 C 
ENDBRANCH  28  29
ENDBRANCH  27  28
ENDBRANCH  26  27
ENDBRANCH  25  26
TORSDOF 9
ENDMDL
