MODEL 1
REMARK VINA RESULT:     -17.1      0.000      0.000
REMARK  Name = 
REMARK  4 active torsions:
REMARK  status: ('A' for Active; 'I' for Inactive)
REMARK    1  A    between atoms: C_4  and  N_5
REMARK    2  A    between atoms: C_17  and  C_22
REMARK    3  A    between atoms: C_25  and  O_26
REMARK    4  A    between atoms: O_26  and  C_27
REMARK                            x       y       z     vdW  Elec       q    Type
REMARK                         _______ _______ _______ _____ _____    ______ ____
ROOT
ATOM      5  N   UNL     1      -2.246   2.404  24.895  0.00  0.00    -0.162 NA
ATOM      6  C   UNL     1      -3.061   2.321  24.986  0.00  0.00    +0.327 C 
ATOM      7  O   UNL     1      -3.411   1.577  24.909  0.00  0.00    -0.250 OA
ATOM      8  N   UNL     1      -3.528   2.981  25.153  0.00  0.00    -0.262 N 
ATOM      9  C   UNL     1      -3.722   3.778  25.309  0.00  0.00    +0.097 C 
ATOM     10  C   UNL     1      -4.700   3.692  25.420  0.00  0.00    +0.043 C 
ATOM     11  C   UNL     1      -5.500   3.789  25.539  0.00  0.00    +0.011 C 
ATOM     12  C   UNL     1      -5.056   3.264  25.396  0.00  0.00    +0.058 C 
ATOM     13  C   UNL     1      -4.112   3.364  25.291  0.00  0.00    +0.101 C 
ATOM     14  C   UNL     1      -5.037   2.358  25.245  0.00  0.00    +0.041 A 
ATOM     15  C   UNL     1      -5.538   1.705  25.202  0.00  0.00    +0.013 A 
ATOM     16  C   UNL     1      -5.229   0.957  25.040  0.00  0.00    +0.006 A 
ATOM     17  C   UNL     1      -4.418   0.863  24.921  0.00  0.00    +0.056 A 
ATOM     18  C   UNL     1      -3.916   1.516  24.963  0.00  0.00    +0.261 A 
ATOM     19  O   UNL     1      -3.180   1.177  24.813  0.00  0.00    -0.267 OA
ATOM     20  N   UNL     1      -4.226   2.263  25.125  0.00  0.00    -0.299 N 
ATOM     21  C   UNL     1      -4.669   2.746  25.261  0.00  0.00    +0.110 C 
ENDROOT
BRANCH   5   4
ATOM      1  F   UNL     1      -0.658   0.203  25.791  0.00  0.00    -0.204 F 
ATOM      2  C   UNL     1      -0.986   0.644  25.175  0.00  0.00    +0.141 A 
ATOM      3  C   UNL     1      -1.452   1.303  25.343  0.00  0.00    +0.046 A 
ATOM      4  C   UNL     1      -1.780   1.744  24.727  0.00  0.00    +0.077 A 
ATOM     33  C   UNL     1      -1.642   1.525  23.943  0.00  0.00    +0.017 A 
ATOM     34  C   UNL     1      -1.176   0.865  23.776  0.00  0.00    +0.004 A 
ATOM     35  C   UNL     1      -0.848   0.424  24.392  0.00  0.00    +0.030 A 
ENDBRANCH   5   4
BRANCH  17  22
ATOM     22  C   UNL     1      -4.110   0.115  24.759  0.00  0.00    +0.005 A 
ATOM     23  C   UNL     1      -3.874  -0.376  25.378  0.00  0.00    +0.003 A 
ATOM     24  C   UNL     1      -3.565  -1.124  25.217  0.00  0.00    +0.037 A 
ATOM     25  C   UNL     1      -3.493  -1.380  24.436  0.00  0.00    +0.147 A 
ATOM     31  C   UNL     1      -3.729  -0.890  23.816  0.00  0.00    +0.037 A 
ATOM     32  C   UNL     1      -4.038  -0.141  23.978  0.00  0.00    +0.003 A 
BRANCH  25  26
ATOM     26  O   UNL     1      -3.185  -2.129  24.275  0.00  0.00    -0.404 OA
BRANCH  26  27
ATOM     27  C   UNL     1      -3.602  -2.803  24.498  0.00  0.00    +0.575 C 
ATOM     28  F   UNL     1      -4.020  -3.479  24.724  0.00  0.00    -0.133 F 
ATOM     29  F   UNL     1      -3.156  -2.849  25.191  0.00  0.00    -0.133 F 
ATOM     30  F   UNL     1      -4.048  -2.758  23.807  0.00  0.00    -0.133 F 
ENDBRANCH  26  27
ENDBRANCH  25  26
ENDBRANCH  17  22
TORSDOF 4
ENDMDL
MODEL 2
REMARK VINA RESULT:     -16.6      2.347      4.190
REMARK  Name = 
REMARK  4 active torsions:
REMARK  status: ('A' for Active; 'I' for Inactive)
REMARK    1  A    between atoms: C_4  and  N_5
REMARK    2  A    between atoms: C_17  and  C_22
REMARK    3  A    between atoms: C_25  and  O_26
REMARK    4  A    between atoms: O_26  and  C_27
REMARK                            x       y       z     vdW  Elec       q    Type
REMARK                         _______ _______ _______ _____ _____    ______ ____
ROOT
ATOM      5  N   UNL     1      -1.078  -0.549  24.846  0.00  0.00    -0.162 NA
ATOM      6  C   UNL     1      -1.858  -0.767  24.689  0.00  0.00    +0.327 C 
ATOM      7  O   UNL     1      -2.427  -0.188  24.539  0.00  0.00    -0.250 OA
ATOM      8  N   UNL     1      -2.070  -1.565  24.681  0.00  0.00    -0.262 N 
ATOM      9  C   UNL     1      -1.985  -2.394  24.738  0.00  0.00    +0.097 C 
ATOM     10  C   UNL     1      -2.915  -2.669  24.552  0.00  0.00    +0.043 C 
ATOM     11  C   UNL     1      -3.621  -3.053  24.418  0.00  0.00    +0.011 C 
ATOM     12  C   UNL     1      -3.386  -2.392  24.438  0.00  0.00    +0.058 C 
ATOM     13  C   UNL     1      -2.482  -2.142  24.620  0.00  0.00    +0.101 C 
ATOM     14  C   UNL     1      -3.667  -1.523  24.336  0.00  0.00    +0.041 A 
ATOM     15  C   UNL     1      -4.346  -1.085  24.170  0.00  0.00    +0.013 A 
ATOM     16  C   UNL     1      -4.308  -0.262  24.139  0.00  0.00    +0.006 A 
ATOM     17  C   UNL     1      -3.592   0.124  24.275  0.00  0.00    +0.056 A 
ATOM     18  C   UNL     1      -2.913  -0.314  24.441  0.00  0.00    +0.261 A 
ATOM     19  O   UNL     1      -2.345   0.277  24.535  0.00  0.00    -0.267 OA
ATOM     20  N   UNL     1      -2.951  -1.138  24.472  0.00  0.00    -0.299 N 
ATOM     21  C   UNL     1      -3.200  -1.758  24.447  0.00  0.00    +0.110 C 
ENDROOT
BRANCH   5   4
ATOM      1  F   UNL     1      -0.727   1.905  26.269  0.00  0.00    -0.204 F 
ATOM      2  C   UNL     1      -0.691   1.475  25.565  0.00  0.00    +0.141 A 
ATOM      3  C   UNL     1      -0.903   0.678  25.557  0.00  0.00    +0.046 A 
ATOM      4  C   UNL     1      -0.867   0.249  24.853  0.00  0.00    +0.077 A 
ATOM     33  C   UNL     1      -0.619   0.617  24.157  0.00  0.00    +0.017 A 
ATOM     34  C   UNL     1      -0.408   1.414  24.166  0.00  0.00    +0.004 A 
ATOM     35  C   UNL     1      -0.444   1.844  24.870  0.00  0.00    +0.030 A 
ENDBRANCH   5   4
BRANCH  17  22
ATOM     22  C   UNL     1      -3.554   0.947  24.244  0.00  0.00    +0.005 A 
ATOM     23  C   UNL     1      -3.710   1.392  24.921  0.00  0.00    +0.003 A 
ATOM     24  C   UNL     1      -3.673   2.216  24.891  0.00  0.00    +0.037 A 
ATOM     25  C   UNL     1      -3.481   2.594  24.184  0.00  0.00    +0.147 A 
ATOM     31  C   UNL     1      -3.325   2.150  23.506  0.00  0.00    +0.037 A 
ATOM     32  C   UNL     1      -3.362   1.325  23.536  0.00  0.00    +0.003 A 
BRANCH  25  26
ATOM     26  O   UNL     1      -3.444   3.418  24.153  0.00  0.00    -0.404 OA
BRANCH  26  27
ATOM     27  C   UNL     1      -3.630   3.863  24.821  0.00  0.00    +0.575 C 
ATOM     28  F   UNL     1      -3.814   4.309  25.491  0.00  0.00    -0.133 F 
ATOM     29  F   UNL     1      -2.834   3.869  25.038  0.00  0.00    -0.133 F 
ATOM     30  F   UNL     1      -4.425   3.858  24.605  0.00  0.00    -0.133 F 
ENDBRANCH  26  27
ENDBRANCH  25  26
ENDBRANCH  17  22
TORSDOF 4
ENDMDL
MODEL 3
REMARK VINA RESULT:     -16.4      1.281      2.134
REMARK  Name = 
REMARK  4 active torsions:
REMARK  status: ('A' for Active; 'I' for Inactive)
REMARK    1  A    between atoms: C_4  and  N_5
REMARK    2  A    between atoms: C_17  and  C_22
REMARK    3  A    between atoms: C_25  and  O_26
REMARK    4  A    between atoms: O_26  and  C_27
REMARK                            x       y       z     vdW  Elec       q    Type
REMARK                         _______ _______ _______ _____ _____    ______ ____
ROOT
ATOM      5  N   UNL     1      -0.696   1.145  25.416  0.00  0.00    -0.162 NA
ATOM      6  C   UNL     1      -1.290   1.701  25.284  0.00  0.00    +0.327 C 
ATOM      7  O   UNL     1      -2.046   1.453  25.065  0.00  0.00    -0.250 OA
ATOM      8  N   UNL     1      -1.128   2.506  25.371  0.00  0.00    -0.262 N 
ATOM      9  C   UNL     1      -0.691   3.200  25.527  0.00  0.00    +0.097 C 
ATOM     10  C   UNL     1      -1.394   3.877  25.371  0.00  0.00    +0.043 C 
ATOM     11  C   UNL     1      -1.850   4.546  25.283  0.00  0.00    +0.011 C 
ATOM     12  C   UNL     1      -1.931   3.851  25.224  0.00  0.00    +0.058 C 
ATOM     13  C   UNL     1      -1.241   3.209  25.378  0.00  0.00    +0.101 C 
ATOM     14  C   UNL     1      -2.560   3.213  25.019  0.00  0.00    +0.041 A 
ATOM     15  C   UNL     1      -3.352   3.142  24.800  0.00  0.00    +0.013 A 
ATOM     16  C   UNL     1      -3.678   2.395  24.671  0.00  0.00    +0.006 A 
ATOM     17  C   UNL     1      -3.213   1.720  24.762  0.00  0.00    +0.056 A 
ATOM     18  C   UNL     1      -2.421   1.791  24.981  0.00  0.00    +0.261 A 
ATOM     19  O   UNL     1      -2.178   1.004  25.005  0.00  0.00    -0.267 OA
ATOM     20  N   UNL     1      -2.094   2.538  25.110  0.00  0.00    -0.299 N 
ATOM     21  C   UNL     1      -2.044   3.203  25.159  0.00  0.00    +0.110 C 
ENDROOT
BRANCH   5   4
ATOM      1  F   UNL     1      -0.747  -1.209  23.795  0.00  0.00    -0.204 F 
ATOM      2  C   UNL     1      -0.883  -0.837  24.519  0.00  0.00    +0.141 A 
ATOM      3  C   UNL     1      -0.721  -0.033  24.605  0.00  0.00    +0.046 A 
ATOM      4  C   UNL     1      -0.857   0.340  25.329  0.00  0.00    +0.077 A 
ATOM     33  C   UNL     1      -1.155  -0.093  25.966  0.00  0.00    +0.017 A 
ATOM     34  C   UNL     1      -1.316  -0.897  25.879  0.00  0.00    +0.004 A 
ATOM     35  C   UNL     1      -1.180  -1.269  25.155  0.00  0.00    +0.030 A 
ENDBRANCH   5   4
BRANCH  17  22
ATOM     22  C   UNL     1      -3.540   0.974  24.633  0.00  0.00    +0.005 A 
ATOM     23  C   UNL     1      -3.522   0.641  23.878  0.00  0.00    +0.003 A 
ATOM     24  C   UNL     1      -3.849  -0.105  23.749  0.00  0.00    +0.037 A 
ATOM     25  C   UNL     1      -4.194  -0.518  24.374  0.00  0.00    +0.147 A 
ATOM     31  C   UNL     1      -4.212  -0.186  25.129  0.00  0.00    +0.037 A 
ATOM     32  C   UNL     1      -3.885   0.561  25.258  0.00  0.00    +0.003 A 
BRANCH  25  26
ATOM     26  O   UNL     1      -4.522  -1.265  24.245  0.00  0.00    -0.404 OA
BRANCH  26  27
ATOM     27  C   UNL     1      -4.034  -1.900  24.049  0.00  0.00    +0.575 C 
ATOM     28  F   UNL     1      -3.545  -2.536  23.855  0.00  0.00    -0.133 F 
ATOM     29  F   UNL     1      -3.994  -2.113  24.845  0.00  0.00    -0.133 F 
ATOM     30  F   UNL     1      -4.074  -1.687  23.254  0.00  0.00    -0.133 F 
ENDBRANCH  26  27
ENDBRANCH  25  26
ENDBRANCH  17  22
TORSDOF 4
ENDMDL
MODEL 4
REMARK VINA RESULT:     -16.4      1.444      2.921
REMARK  Name = 
REMARK  4 active torsions:
REMARK  status: ('A' for Active; 'I' for Inactive)
REMARK    1  A    between atoms: C_4  and  N_5
REMARK    2  A    between atoms: C_17  and  C_22
REMARK    3  A    between atoms: C_25  and  O_26
REMARK    4  A    between atoms: O_26  and  C_27
REMARK                            x       y       z     vdW  Elec       q    Type
REMARK                         _______ _______ _______ _____ _____    ______ ____
ROOT
ATOM      5  N   UNL     1      -4.137   3.407  25.334  0.00  0.00    -0.162 NA
ATOM      6  C   UNL     1      -3.365   3.134  25.237  0.00  0.00    +0.327 C 
ATOM      7  O   UNL     1      -3.226   2.341  25.057  0.00  0.00    -0.250 OA
ATOM      8  N   UNL     1      -2.730   3.655  25.322  0.00  0.00    -0.262 N 
ATOM      9  C   UNL     1      -2.323   4.372  25.459  0.00  0.00    +0.097 C 
ATOM     10  C   UNL     1      -1.393   4.059  25.347  0.00  0.00    +0.043 C 
ATOM     11  C   UNL     1      -0.586   3.963  25.287  0.00  0.00    +0.011 C 
ATOM     12  C   UNL     1      -1.162   3.566  25.228  0.00  0.00    +0.058 C 
ATOM     13  C   UNL     1      -2.055   3.884  25.340  0.00  0.00    +0.101 C 
ATOM     14  C   UNL     1      -1.428   2.704  25.051  0.00  0.00    +0.041 A 
ATOM     15  C   UNL     1      -1.117   1.961  24.874  0.00  0.00    +0.013 A 
ATOM     16  C   UNL     1      -1.622   1.319  24.757  0.00  0.00    +0.006 A 
ATOM     17  C   UNL     1      -2.438   1.421  24.818  0.00  0.00    +0.056 A 
ATOM     18  C   UNL     1      -2.750   2.163  24.996  0.00  0.00    +0.261 A 
ATOM     19  O   UNL     1      -3.561   2.013  25.001  0.00  0.00    -0.267 OA
ATOM     20  N   UNL     1      -2.245   2.805  25.112  0.00  0.00    -0.299 N 
ATOM     21  C   UNL     1      -1.680   3.161  25.164  0.00  0.00    +0.110 C 
ENDROOT
BRANCH   5   4
ATOM      1  F   UNL     1      -6.048   1.625  26.494  0.00  0.00    -0.204 F 
ATOM      2  C   UNL     1      -5.727   1.995  25.829  0.00  0.00    +0.141 A 
ATOM      3  C   UNL     1      -5.093   2.516  25.914  0.00  0.00    +0.046 A 
ATOM      4  C   UNL     1      -4.771   2.886  25.249  0.00  0.00    +0.077 A 
ATOM     33  C   UNL     1      -5.085   2.734  24.501  0.00  0.00    +0.017 A 
ATOM     34  C   UNL     1      -5.719   2.214  24.417  0.00  0.00    +0.004 A 
ATOM     35  C   UNL     1      -6.040   1.844  25.082  0.00  0.00    +0.030 A 
ENDBRANCH   5   4
BRANCH  17  22
ATOM     22  C   UNL     1      -2.943   0.779  24.701  0.00  0.00    +0.005 A 
ATOM     23  C   UNL     1      -3.156   0.301  25.339  0.00  0.00    +0.003 A 
ATOM     24  C   UNL     1      -3.661  -0.341  25.223  0.00  0.00    +0.037 A 
ATOM     25  C   UNL     1      -3.951  -0.506  24.469  0.00  0.00    +0.147 A 
ATOM     31  C   UNL     1      -3.739  -0.029  23.831  0.00  0.00    +0.037 A 
ATOM     32  C   UNL     1      -3.233   0.614  23.947  0.00  0.00    +0.003 A 
BRANCH  25  26
ATOM     26  O   UNL     1      -4.456  -1.149  24.353  0.00  0.00    -0.404 OA
BRANCH  26  27
ATOM     27  C   UNL     1      -4.152  -1.869  24.094  0.00  0.00    +0.575 C 
ATOM     28  F   UNL     1      -3.847  -2.591  23.832  0.00  0.00    -0.133 F 
ATOM     29  F   UNL     1      -4.308  -1.654  23.313  0.00  0.00    -0.133 F 
ATOM     30  F   UNL     1      -3.996  -2.085  24.873  0.00  0.00    -0.133 F 
ENDBRANCH  26  27
ENDBRANCH  25  26
ENDBRANCH  17  22
TORSDOF 4
ENDMDL
MODEL 5
REMARK VINA RESULT:     -15.9      2.449      4.636
REMARK  Name = 
REMARK  4 active torsions:
REMARK  status: ('A' for Active; 'I' for Inactive)
REMARK    1  A    between atoms: C_4  and  N_5
REMARK    2  A    between atoms: C_17  and  C_22
REMARK    3  A    between atoms: C_25  and  O_26
REMARK    4  A    between atoms: O_26  and  C_27
REMARK                            x       y       z     vdW  Elec       q    Type
REMARK                         _______ _______ _______ _____ _____    ______ ____
ROOT
ATOM      5  N   UNL     1      -4.379   1.383  24.447  0.00  0.00    -0.162 NA
ATOM      6  C   UNL     1      -3.767   0.843  24.568  0.00  0.00    +0.327 C 
ATOM      7  O   UNL     1      -3.004   1.113  24.728  0.00  0.00    -0.250 OA
ATOM      8  N   UNL     1      -3.919   0.033  24.529  0.00  0.00    -0.262 N 
ATOM      9  C   UNL     1      -4.352  -0.675  24.433  0.00  0.00    +0.097 C 
ATOM     10  C   UNL     1      -3.628  -1.332  24.576  0.00  0.00    +0.043 C 
ATOM     11  C   UNL     1      -3.155  -1.989  24.668  0.00  0.00    +0.011 C 
ATOM     12  C   UNL     1      -3.084  -1.291  24.689  0.00  0.00    +0.058 C 
ATOM     13  C   UNL     1      -3.794  -0.668  24.548  0.00  0.00    +0.101 C 
ATOM     14  C   UNL     1      -2.456  -0.634  24.825  0.00  0.00    +0.041 A 
ATOM     15  C   UNL     1      -1.653  -0.540  24.992  0.00  0.00    +0.013 A 
ATOM     16  C   UNL     1      -1.334   0.217  25.065  0.00  0.00    +0.006 A 
ATOM     17  C   UNL     1      -1.816   0.880  24.972  0.00  0.00    +0.056 A 
ATOM     18  C   UNL     1      -2.619   0.786  24.805  0.00  0.00    +0.261 A 
ATOM     19  O   UNL     1      -2.878   1.567  24.759  0.00  0.00    -0.267 OA
ATOM     20  N   UNL     1      -2.938   0.029  24.732  0.00  0.00    -0.299 N 
ATOM     21  C   UNL     1      -2.979  -0.639  24.717  0.00  0.00    +0.110 C 
ENDROOT
BRANCH   5   4
ATOM      1  F   UNL     1      -4.246   3.807  25.956  0.00  0.00    -0.204 F 
ATOM      2  C   UNL     1      -4.161   3.405  25.240  0.00  0.00    +0.141 A 
ATOM      3  C   UNL     1      -4.313   2.595  25.202  0.00  0.00    +0.046 A 
ATOM      4  C   UNL     1      -4.227   2.194  24.486  0.00  0.00    +0.077 A 
ATOM     33  C   UNL     1      -3.991   2.602  23.808  0.00  0.00    +0.017 A 
ATOM     34  C   UNL     1      -3.840   3.412  23.848  0.00  0.00    +0.004 A 
ATOM     35  C   UNL     1      -3.925   3.814  24.564  0.00  0.00    +0.030 A 
ENDBRANCH   5   4
BRANCH  17  22
ATOM     22  C   UNL     1      -1.496   1.636  25.045  0.00  0.00    +0.005 A 
ATOM     23  C   UNL     1      -1.470   2.003  25.784  0.00  0.00    +0.003 A 
ATOM     24  C   UNL     1      -1.150   2.759  25.858  0.00  0.00    +0.037 A 
ATOM     25  C   UNL     1      -0.856   3.149  25.193  0.00  0.00    +0.147 A 
ATOM     31  C   UNL     1      -0.881   2.784  24.454  0.00  0.00    +0.037 A 
ATOM     32  C   UNL     1      -1.202   2.026  24.380  0.00  0.00    +0.003 A 
BRANCH  25  26
ATOM     26  O   UNL     1      -0.535   3.907  25.267  0.00  0.00    -0.404 OA
BRANCH  26  27
ATOM     27  C   UNL     1      -0.973   4.564  25.033  0.00  0.00    +0.575 C 
ATOM     28  F   UNL     1      -1.412   5.222  24.796  0.00  0.00    -0.133 F 
ATOM     29  F   UNL     1      -0.641   4.515  24.279  0.00  0.00    -0.133 F 
ATOM     30  F   UNL     1      -1.306   4.612  25.786  0.00  0.00    -0.133 F 
ENDBRANCH  26  27
ENDBRANCH  25  26
ENDBRANCH  17  22
TORSDOF 4
ENDMDL
MODEL 6
REMARK VINA RESULT:     -15.8      1.154      2.938
REMARK  Name = 
REMARK  4 active torsions:
REMARK  status: ('A' for Active; 'I' for Inactive)
REMARK    1  A    between atoms: C_4  and  N_5
REMARK    2  A    between atoms: C_17  and  C_22
REMARK    3  A    between atoms: C_25  and  O_26
REMARK    4  A    between atoms: O_26  and  C_27
REMARK                            x       y       z     vdW  Elec       q    Type
REMARK                         _______ _______ _______ _____ _____    ______ ____
ROOT
ATOM      5  N   UNL     1      -4.762   0.253  25.006  0.00  0.00    -0.162 NA
ATOM      6  C   UNL     1      -4.483   1.029  25.034  0.00  0.00    +0.327 C 
ATOM      7  O   UNL     1      -3.678   1.182  24.938  0.00  0.00    -0.250 OA
ATOM      8  N   UNL     1      -5.010   1.651  25.160  0.00  0.00    -0.262 N 
ATOM      9  C   UNL     1      -5.736   2.043  25.292  0.00  0.00    +0.097 C 
ATOM     10  C   UNL     1      -5.416   2.977  25.328  0.00  0.00    +0.043 C 
ATOM     11  C   UNL     1      -5.316   3.784  25.384  0.00  0.00    +0.011 C 
ATOM     12  C   UNL     1      -4.915   3.217  25.281  0.00  0.00    +0.058 C 
ATOM     13  C   UNL     1      -5.240   2.320  25.248  0.00  0.00    +0.101 C 
ATOM     14  C   UNL     1      -4.042   2.969  25.140  0.00  0.00    +0.041 A 
ATOM     15  C   UNL     1      -3.287   3.294  25.066  0.00  0.00    +0.013 A 
ATOM     16  C   UNL     1      -2.638   2.802  24.935  0.00  0.00    +0.006 A 
ATOM     17  C   UNL     1      -2.742   1.986  24.879  0.00  0.00    +0.056 A 
ATOM     18  C   UNL     1      -3.497   1.661  24.954  0.00  0.00    +0.261 A 
ATOM     19  O   UNL     1      -3.346   0.855  24.865  0.00  0.00    -0.267 OA
ATOM     20  N   UNL     1      -4.146   2.152  25.085  0.00  0.00    -0.299 N 
ATOM     21  C   UNL     1      -4.506   2.708  25.181  0.00  0.00    +0.110 C 
ENDROOT
BRANCH   5   4
ATOM      1  F   UNL     1      -2.995  -1.741  26.043  0.00  0.00    -0.204 F 
ATOM      2  C   UNL     1      -3.352  -1.367  25.399  0.00  0.00    +0.141 A 
ATOM      3  C   UNL     1      -3.878  -0.745  25.524  0.00  0.00    +0.046 A 
ATOM      4  C   UNL     1      -4.235  -0.370  24.881  0.00  0.00    +0.077 A 
ATOM     33  C   UNL     1      -4.064  -0.618  24.112  0.00  0.00    +0.017 A 
ATOM     34  C   UNL     1      -3.537  -1.241  23.988  0.00  0.00    +0.004 A 
ATOM     35  C   UNL     1      -3.181  -1.615  24.632  0.00  0.00    +0.030 A 
ENDBRANCH   5   4
BRANCH  17  22
ATOM     22  C   UNL     1      -2.093   1.495  24.749  0.00  0.00    +0.005 A 
ATOM     23  C   UNL     1      -1.873   1.299  23.978  0.00  0.00    +0.003 A 
ATOM     24  C   UNL     1      -1.223   0.808  23.847  0.00  0.00    +0.037 A 
ATOM     25  C   UNL     1      -0.793   0.514  24.486  0.00  0.00    +0.147 A 
ATOM     31  C   UNL     1      -1.012   0.710  25.257  0.00  0.00    +0.037 A 
ATOM     32  C   UNL     1      -1.663   1.201  25.388  0.00  0.00    +0.003 A 
BRANCH  25  26
ATOM     26  O   UNL     1      -0.142   0.023  24.355  0.00  0.00    -0.404 OA
BRANCH  26  27
ATOM     27  C   UNL     1       0.180  -0.040  23.599  0.00  0.00    +0.575 C 
ATOM     28  F   UNL     1       0.502  -0.105  22.842  0.00  0.00    -0.133 F 
ATOM     29  F   UNL     1      -0.242  -0.739  23.478  0.00  0.00    -0.133 F 
ATOM     30  F   UNL     1       0.602   0.658  23.720  0.00  0.00    -0.133 F 
ENDBRANCH  26  27
ENDBRANCH  25  26
ENDBRANCH  17  22
TORSDOF 4
ENDMDL
MODEL 7
REMARK VINA RESULT:     -15.8      1.425      2.898
REMARK  Name = 
REMARK  4 active torsions:
REMARK  status: ('A' for Active; 'I' for Inactive)
REMARK    1  A    between atoms: C_4  and  N_5
REMARK    2  A    between atoms: C_17  and  C_22
REMARK    3  A    between atoms: C_25  and  O_26
REMARK    4  A    between atoms: O_26  and  C_27
REMARK                            x       y       z     vdW  Elec       q    Type
REMARK                         _______ _______ _______ _____ _____    ______ ____
ROOT
ATOM      5  N   UNL     1      -3.638   1.981  24.652  0.00  0.00    -0.162 NA
ATOM      6  C   UNL     1      -2.890   2.266  24.849  0.00  0.00    +0.327 C 
ATOM      7  O   UNL     1      -2.262   1.741  24.957  0.00  0.00    -0.250 OA
ATOM      8  N   UNL     1      -2.769   3.078  24.939  0.00  0.00    -0.262 N 
ATOM      9  C   UNL     1      -2.944   3.894  24.959  0.00  0.00    +0.097 C 
ATOM     10  C   UNL     1      -2.053   4.250  25.195  0.00  0.00    +0.043 C 
ATOM     11  C   UNL     1      -1.396   4.693  25.383  0.00  0.00    +0.011 C 
ATOM     12  C   UNL     1      -1.557   4.016  25.294  0.00  0.00    +0.058 C 
ATOM     13  C   UNL     1      -2.424   3.688  25.066  0.00  0.00    +0.101 C 
ATOM     14  C   UNL     1      -1.181   3.177  25.319  0.00  0.00    +0.041 A 
ATOM     15  C   UNL     1      -0.461   2.802  25.461  0.00  0.00    +0.013 A 
ATOM     16  C   UNL     1      -0.407   1.980  25.412  0.00  0.00    +0.006 A 
ATOM     17  C   UNL     1      -1.074   1.534  25.221  0.00  0.00    +0.056 A 
ATOM     18  C   UNL     1      -1.795   1.909  25.080  0.00  0.00    +0.261 A 
ATOM     19  O   UNL     1      -2.291   1.271  24.915  0.00  0.00    -0.267 OA
ATOM     20  N   UNL     1      -1.849   2.731  25.129  0.00  0.00    -0.299 N 
ATOM     21  C   UNL     1      -1.670   3.370  25.219  0.00  0.00    +0.110 C 
ENDROOT
BRANCH   5   4
ATOM      1  F   UNL     1      -4.361  -0.552  25.763  0.00  0.00    -0.204 F 
ATOM      2  C   UNL     1      -4.121  -0.097  25.118  0.00  0.00    +0.141 A 
ATOM      3  C   UNL     1      -3.999   0.714  25.208  0.00  0.00    +0.046 A 
ATOM      4  C   UNL     1      -3.759   1.169  24.562  0.00  0.00    +0.077 A 
ATOM     33  C   UNL     1      -3.640   0.813  23.827  0.00  0.00    +0.017 A 
ATOM     34  C   UNL     1      -3.762   0.002  23.738  0.00  0.00    +0.004 A 
ATOM     35  C   UNL     1      -4.002  -0.453  24.384  0.00  0.00    +0.030 A 
ENDBRANCH   5   4
BRANCH  17  22
ATOM     22  C   UNL     1      -1.020   0.713  25.172  0.00  0.00    +0.005 A 
ATOM     23  C   UNL     1      -0.811   0.355  24.458  0.00  0.00    +0.003 A 
ATOM     24  C   UNL     1      -0.756  -0.466  24.408  0.00  0.00    +0.037 A 
ATOM     25  C   UNL     1      -0.911  -0.931  25.072  0.00  0.00    +0.147 A 
ATOM     31  C   UNL     1      -1.120  -0.574  25.786  0.00  0.00    +0.037 A 
ATOM     32  C   UNL     1      -1.174   0.248  25.836  0.00  0.00    +0.003 A 
BRANCH  25  26
ATOM     26  O   UNL     1      -0.856  -1.753  25.023  0.00  0.00    -0.404 OA
BRANCH  26  27
ATOM     27  C   UNL     1      -1.436  -2.180  24.622  0.00  0.00    +0.575 C 
ATOM     28  F   UNL     1      -2.015  -2.608  24.219  0.00  0.00    -0.133 F 
ATOM     29  F   UNL     1      -1.045  -2.040  23.909  0.00  0.00    -0.133 F 
ATOM     30  F   UNL     1      -1.826  -2.321  25.335  0.00  0.00    -0.133 F 
ENDBRANCH  26  27
ENDBRANCH  25  26
ENDBRANCH  17  22
TORSDOF 4
ENDMDL
