MODEL 1
REMARK VINA RESULT:      -8.6      0.000      0.000
REMARK  Name = 
REMARK  5 active torsions:
REMARK  status: ('A' for Active; 'I' for Inactive)
REMARK    1  A    between atoms: C_2  and  N_4
REMARK    2  A    between atoms: N_4  and  C_5
REMARK    3  A    between atoms: C_5  and  C_6
REMARK    4  A    between atoms: C_8  and  C_9
REMARK    5  A    between atoms: C_13  and  N_14
REMARK                            x       y       z     vdW  Elec       q    Type
REMARK                         _______ _______ _______ _____ _____    ______ ____
ROOT
ATOM      6  C   UNL     1      -3.294   1.279  24.809  0.00  0.00    +0.150 C 
ATOM      7  O   UNL     1      -3.605   2.038  24.891  0.00  0.00    -0.350 OA
ATOM      8  C   UNL     1      -4.426   1.972  24.937  0.00  0.00    +0.180 C 
ATOM     11  C   UNL     1      -4.622   1.172  24.884  0.00  0.00    +0.198 C 
ATOM     12  O   UNL     1      -5.384   0.857  24.906  0.00  0.00    -0.219 OA
ATOM     13  C   UNL     1      -3.921   0.744  24.805  0.00  0.00    +0.120 C 
ENDROOT
BRANCH  13  14
ATOM     14  N   UNL     1      -3.860  -0.076  24.734  0.00  0.00    -0.270 NA
ATOM     15  C   UNL     1      -3.741  -0.541  25.404  0.00  0.00    +0.072 C 
ATOM     16  C   UNL     1      -3.681  -1.360  25.333  0.00  0.00    +0.017 C 
ATOM     17  C   UNL     1      -3.739  -1.715  24.591  0.00  0.00    +0.003 C 
ATOM     18  C   UNL     1      -3.679  -2.534  24.519  0.00  0.00    +0.000 C 
ATOM     19  C   UNL     1      -3.859  -1.250  23.920  0.00  0.00    +0.017 C 
ATOM     20  C   UNL     1      -3.919  -0.430  23.991  0.00  0.00    +0.072 C 
ENDBRANCH  13  14
BRANCH   8   9
ATOM      9  C   UNL     1      -4.959   2.597  25.021  0.00  0.00    +0.214 C 
ATOM     10  O   UNL     1      -4.681   3.360  25.165  0.00  0.00    -0.218 OA
ENDBRANCH   8   9
BRANCH   6   5
ATOM      5  C   UNL     1      -2.493   1.088  24.743  0.00  0.00    +0.120 C 
BRANCH   5   4
ATOM      4  N   UNL     1      -1.923   1.683  24.782  0.00  0.00    -0.217 NA
BRANCH   4   2
ATOM      1  C   UNL     1      -0.746   1.342  24.047  0.00  0.00    +0.019 C 
ATOM      2  C   UNL     1      -1.121   1.487  24.767  0.00  0.00    +0.073 C 
ATOM      3  C   UNL     1      -0.694   1.437  25.471  0.00  0.00    +0.019 C 
ENDBRANCH   4   2
ENDBRANCH   5   4
ENDBRANCH   6   5
TORSDOF 5
ENDMDL
MODEL 2
REMARK VINA RESULT:      -8.3      1.151      2.653
REMARK  Name = 
REMARK  5 active torsions:
REMARK  status: ('A' for Active; 'I' for Inactive)
REMARK    1  A    between atoms: C_2  and  N_4
REMARK    2  A    between atoms: N_4  and  C_5
REMARK    3  A    between atoms: C_5  and  C_6
REMARK    4  A    between atoms: C_8  and  C_9
REMARK    5  A    between atoms: C_13  and  N_14
REMARK                            x       y       z     vdW  Elec       q    Type
REMARK                         _______ _______ _______ _____ _____    ______ ____
ROOT
ATOM      6  C   UNL     1      -3.664   1.449  24.733  0.00  0.00    +0.150 C 
ATOM      7  O   UNL     1      -3.238   2.152  24.668  0.00  0.00    -0.350 OA
ATOM      8  C   UNL     1      -2.464   1.962  24.454  0.00  0.00    +0.180 C 
ATOM     11  C   UNL     1      -2.412   1.141  24.387  0.00  0.00    +0.198 C 
ATOM     12  O   UNL     1      -1.736   0.713  24.184  0.00  0.00    -0.219 OA
ATOM     13  C   UNL     1      -3.154   0.824  24.560  0.00  0.00    +0.120 C 
ENDROOT
BRANCH  13  14
ATOM     14  N   UNL     1      -3.351   0.022  24.558  0.00  0.00    -0.270 NA
ATOM     15  C   UNL     1      -3.250  -0.429  25.241  0.00  0.00    +0.072 C 
ATOM     16  C   UNL     1      -3.446  -1.230  25.239  0.00  0.00    +0.017 C 
ATOM     17  C   UNL     1      -3.743  -1.580  24.554  0.00  0.00    +0.003 C 
ATOM     18  C   UNL     1      -3.940  -2.381  24.551  0.00  0.00    +0.000 C 
ATOM     19  C   UNL     1      -3.844  -1.129  23.871  0.00  0.00    +0.017 C 
ATOM     20  C   UNL     1      -3.648  -0.328  23.872  0.00  0.00    +0.072 C 
ENDBRANCH  13  14
BRANCH   8   9
ATOM      9  C   UNL     1      -1.849   2.498  24.329  0.00  0.00    +0.214 C 
ATOM     10  O   UNL     1      -1.951   3.294  24.521  0.00  0.00    -0.218 OA
ENDBRANCH   8   9
BRANCH   6   5
ATOM      5  C   UNL     1      -4.462   1.382  24.936  0.00  0.00    +0.120 C 
BRANCH   5   4
ATOM      4  N   UNL     1      -4.915   2.060  25.054  0.00  0.00    -0.217 NA
BRANCH   4   2
ATOM      1  C   UNL     1      -5.865   2.130  26.119  0.00  0.00    +0.019 C 
ATOM      2  C   UNL     1      -5.692   1.995  25.324  0.00  0.00    +0.073 C 
ATOM      3  C   UNL     1      -6.296   1.796  24.799  0.00  0.00    +0.019 C 
ENDBRANCH   4   2
ENDBRANCH   5   4
ENDBRANCH   6   5
TORSDOF 5
ENDMDL
MODEL 3
REMARK VINA RESULT:      -8.2      0.717      3.071
REMARK  Name = 
REMARK  5 active torsions:
REMARK  status: ('A' for Active; 'I' for Inactive)
REMARK    1  A    between atoms: C_2  and  N_4
REMARK    2  A    between atoms: N_4  and  C_5
REMARK    3  A    between atoms: C_5  and  C_6
REMARK    4  A    between atoms: C_8  and  C_9
REMARK    5  A    between atoms: C_13  and  N_14
REMARK                            x       y       z     vdW  Elec       q    Type
REMARK                         _______ _______ _______ _____ _____    ______ ____
ROOT
ATOM      6  C   UNL     1      -4.049   0.712  24.648  0.00  0.00    +0.150 C 
ATOM      7  O   UNL     1      -4.834   0.916  24.794  0.00  0.00    -0.350 OA
ATOM      8  C   UNL     1      -4.879   1.739  24.836  0.00  0.00    +0.180 C 
ATOM     11  C   UNL     1      -4.122   2.042  24.715  0.00  0.00    +0.198 C 
ATOM     12  O   UNL     1      -3.915   2.841  24.711  0.00  0.00    -0.219 OA
ATOM     13  C   UNL     1      -3.608   1.407  24.599  0.00  0.00    +0.120 C 
ENDROOT
BRANCH  13  14
ATOM     14  N   UNL     1      -2.796   1.460  24.459  0.00  0.00    -0.270 NA
ATOM     15  C   UNL     1      -2.512   1.499  23.687  0.00  0.00    +0.072 C 
ATOM     16  C   UNL     1      -1.701   1.552  23.547  0.00  0.00    +0.017 C 
ATOM     17  C   UNL     1      -1.174   1.566  24.181  0.00  0.00    +0.003 C 
ATOM     18  C   UNL     1      -0.363   1.619  24.043  0.00  0.00    +0.000 C 
ATOM     19  C   UNL     1      -1.458   1.528  24.955  0.00  0.00    +0.017 C 
ATOM     20  C   UNL     1      -2.269   1.475  25.095  0.00  0.00    +0.072 C 
ENDBRANCH  13  14
BRANCH   8   9
ATOM      9  C   UNL     1      -5.563   2.181  24.973  0.00  0.00    +0.214 C 
ATOM     10  O   UNL     1      -6.302   1.815  24.948  0.00  0.00    -0.218 OA
ENDBRANCH   8   9
BRANCH   6   5
ATOM      5  C   UNL     1      -3.754  -0.056  24.566  0.00  0.00    +0.120 C 
BRANCH   5   4
ATOM      4  N   UNL     1      -4.251  -0.703  24.685  0.00  0.00    -0.217 NA
BRANCH   4   2
ATOM      1  C   UNL     1      -3.530  -1.855  25.128  0.00  0.00    +0.019 C 
ATOM      2  C   UNL     1      -3.972  -1.467  24.549  0.00  0.00    +0.073 C 
ATOM      3  C   UNL     1      -4.134  -1.845  23.834  0.00  0.00    +0.019 C 
ENDBRANCH   4   2
ENDBRANCH   5   4
ENDBRANCH   6   5
TORSDOF 5
ENDMDL
MODEL 4
REMARK VINA RESULT:      -8.1      1.825      3.952
REMARK  Name = 
REMARK  5 active torsions:
REMARK  status: ('A' for Active; 'I' for Inactive)
REMARK    1  A    between atoms: C_2  and  N_4
REMARK    2  A    between atoms: N_4  and  C_5
REMARK    3  A    between atoms: C_5  and  C_6
REMARK    4  A    between atoms: C_8  and  C_9
REMARK    5  A    between atoms: C_13  and  N_14
REMARK                            x       y       z     vdW  Elec       q    Type
REMARK                         _______ _______ _______ _____ _____    ______ ____
ROOT
ATOM      6  C   UNL     1      -2.028   0.515  24.314  0.00  0.00    +0.150 C 
ATOM      7  O   UNL     1      -1.303   0.149  24.175  0.00  0.00    -0.350 OA
ATOM      8  C   UNL     1      -0.760   0.734  23.963  0.00  0.00    +0.180 C 
ATOM     11  C   UNL     1      -1.151   1.460  23.971  0.00  0.00    +0.198 C 
ATOM     12  O   UNL     1      -0.816   2.193  23.794  0.00  0.00    -0.219 OA
ATOM     13  C   UNL     1      -1.936   1.325  24.188  0.00  0.00    +0.120 C 
ENDROOT
BRANCH  13  14
ATOM     14  N   UNL     1      -2.522   1.900  24.266  0.00  0.00    -0.270 NA
ATOM     15  C   UNL     1      -2.634   2.283  24.987  0.00  0.00    +0.072 C 
ATOM     16  C   UNL     1      -3.220   2.857  25.064  0.00  0.00    +0.017 C 
ATOM     17  C   UNL     1      -3.696   3.049  24.418  0.00  0.00    +0.003 C 
ATOM     18  C   UNL     1      -4.283   3.623  24.494  0.00  0.00    +0.000 C 
ATOM     19  C   UNL     1      -3.585   2.666  23.696  0.00  0.00    +0.017 C 
ATOM     20  C   UNL     1      -2.999   2.091  23.619  0.00  0.00    +0.072 C 
ENDBRANCH  13  14
BRANCH   8   9
ATOM      9  C   UNL     1       0.035   0.613  23.776  0.00  0.00    +0.214 C 
ATOM     10  O   UNL     1       0.291  -0.131  23.528  0.00  0.00    -0.218 OA
ENDBRANCH   8   9
BRANCH   6   5
ATOM      5  C   UNL     1      -2.727   0.136  24.540  0.00  0.00    +0.120 C 
BRANCH   5   4
ATOM      4  N   UNL     1      -2.745  -0.684  24.617  0.00  0.00    -0.217 NA
BRANCH   4   2
ATOM      1  C   UNL     1      -3.548  -1.202  25.680  0.00  0.00    +0.019 C 
ATOM      2  C   UNL     1      -3.433  -1.059  24.876  0.00  0.00    +0.073 C 
ATOM      3  C   UNL     1      -4.006  -1.292  24.330  0.00  0.00    +0.019 C 
ENDBRANCH   4   2
ENDBRANCH   5   4
ENDBRANCH   6   5
TORSDOF 5
ENDMDL
