MODEL 1
REMARK VINA RESULT:     -10.2      0.000      0.000
REMARK  Name = 
REMARK  7 active torsions:
REMARK  status: ('A' for Active; 'I' for Inactive)
REMARK    1  A    between atoms: N_2  and  C_4
REMARK    2  A    between atoms: C_7  and  C_8
REMARK    3  A    between atoms: C_8  and  N_9
REMARK    4  A    between atoms: N_9  and  C_10
REMARK    5  A    between atoms: C_10  and  C_11
REMARK    6  A    between atoms: C_18  and  C_19
REMARK    7  A    between atoms: C_21  and  C_25
REMARK                            x       y       z     vdW  Elec       q    Type
REMARK                         _______ _______ _______ _____ _____    ______ ____
ROOT
ATOM     11  C   UNL     1       0.240   0.193  23.368  0.00  0.00    +0.075 C 
ATOM     12  C   UNL     1      -0.186   0.007  23.992  0.00  0.00    +0.018 C 
ATOM     13  C   UNL     1      -0.812   0.433  24.279  0.00  0.00    +0.010 C 
ATOM     14  C   UNL     1      -1.170   0.050  25.006  0.00  0.00    +0.018 C 
ATOM     15  C   UNL     1      -0.751   0.105  24.508  0.00  0.00    +0.072 C 
ATOM     16  N   UNL     1      -0.399   0.621  23.666  0.00  0.00    -0.272 NA
ATOM     17  C   UNL     1      -0.796   1.396  23.393  0.00  0.00    +0.078 C 
ATOM     18  C   UNL     1      -1.189   1.178  24.010  0.00  0.00    +0.056 C 
ENDROOT
BRANCH  18  19
ATOM     19  C   UNL     1      -1.833   1.564  24.353  0.00  0.00    +0.058 A 
ATOM     20  C   UNL     1      -2.621   1.325  24.306  0.00  0.00    +0.035 A 
ATOM     21  C   UNL     1      -3.077   1.869  24.726  0.00  0.00    +0.102 A 
ATOM     22  N   UNL     1      -2.572   2.443  25.033  0.00  0.00    -0.170 NA
ATOM     23  N   UNL     1      -1.802   2.255  24.802  0.00  0.00    -0.253 N 
ATOM     24  C   UNL     1      -1.121   2.682  24.987  0.00  0.00    +0.153 C 
BRANCH  21  25
ATOM     25  C   UNL     1      -3.896   1.843  24.823  0.00  0.00    +0.020 A 
ATOM     26  C   UNL     1      -4.342   2.534  24.751  0.00  0.00    +0.004 A 
ATOM     27  C   UNL     1      -5.161   2.508  24.848  0.00  0.00    +0.030 A 
ATOM     28  C   UNL     1      -5.535   1.793  25.017  0.00  0.00    +0.140 A 
ATOM     29  F   UNL     1      -6.354   1.768  25.113  0.00  0.00    -0.204 F 
ATOM     30  C   UNL     1      -5.089   1.101  25.088  0.00  0.00    +0.030 A 
ATOM     31  C   UNL     1      -4.270   1.127  24.991  0.00  0.00    +0.004 A 
ENDBRANCH  21  25
ENDBRANCH  18  19
BRANCH  11  10
ATOM     10  C   UNL     1       0.852   0.064  22.830  0.00  0.00    +0.105 C 
BRANCH  10   9
ATOM      9  N   UNL     1       1.637   0.089  23.083  0.00  0.00    -0.212 NA
BRANCH   9   8
ATOM      8  C   UNL     1       2.249   0.063  22.530  0.00  0.00    +0.115 C 
BRANCH   8   7
ATOM      4  C   UNL     1       4.603   0.135  23.290  0.00  0.00    +0.048 A 
ATOM      5  C   UNL     1       4.265   0.797  22.932  0.00  0.00    +0.014 A 
ATOM      6  C   UNL     1       3.480   0.773  22.679  0.00  0.00    -0.002 A 
ATOM      7  C   UNL     1       3.034   0.087  22.783  0.00  0.00    -0.005 A 
ATOM     32  C   UNL     1       3.372  -0.575  23.141  0.00  0.00    -0.002 A 
ATOM     33  C   UNL     1       4.157  -0.551  23.394  0.00  0.00    +0.014 A 
BRANCH   4   2
ATOM      1  C   UNL     1       5.582   0.549  24.244  0.00  0.00    +0.112 C 
ATOM      2  N   UNL     1       5.388   0.159  23.543  0.00  0.00    -0.304 N 
ATOM      3  C   UNL     1       5.978  -0.205  23.096  0.00  0.00    +0.112 C 
ENDBRANCH   4   2
ENDBRANCH   8   7
ENDBRANCH   9   8
ENDBRANCH  10   9
ENDBRANCH  11  10
TORSDOF 7
ENDMDL
MODEL 2
REMARK VINA RESULT:      -9.4      2.432      7.432
REMARK  Name = 
REMARK  7 active torsions:
REMARK  status: ('A' for Active; 'I' for Inactive)
REMARK    1  A    between atoms: N_2  and  C_4
REMARK    2  A    between atoms: C_7  and  C_8
REMARK    3  A    between atoms: C_8  and  N_9
REMARK    4  A    between atoms: N_9  and  C_10
REMARK    5  A    between atoms: C_10  and  C_11
REMARK    6  A    between atoms: C_18  and  C_19
REMARK    7  A    between atoms: C_21  and  C_25
REMARK                            x       y       z     vdW  Elec       q    Type
REMARK                         _______ _______ _______ _____ _____    ______ ____
ROOT
ATOM     11  C   UNL     1      -0.962   0.308  24.107  0.00  0.00    +0.075 C 
ATOM     12  C   UNL     1      -0.395   0.840  24.086  0.00  0.00    +0.018 C 
ATOM     13  C   UNL     1       0.333   0.741  23.745  0.00  0.00    +0.010 C 
ATOM     14  C   UNL     1       0.843   1.473  23.829  0.00  0.00    +0.018 C 
ATOM     15  C   UNL     1       0.305   1.111  23.906  0.00  0.00    +0.072 C 
ATOM     16  N   UNL     1      -0.219   0.214  23.761  0.00  0.00    -0.272 NA
ATOM     17  C   UNL     1       0.166  -0.486  23.320  0.00  0.00    +0.078 C 
ATOM     18  C   UNL     1       0.696   0.063  23.322  0.00  0.00    +0.056 C 
ENDROOT
BRANCH  18  19
ATOM     19  C   UNL     1       1.453   0.028  22.995  0.00  0.00    +0.058 A 
ATOM     20  C   UNL     1       2.162   0.151  23.398  0.00  0.00    +0.035 A 
ATOM     21  C   UNL     1       2.780   0.062  22.860  0.00  0.00    +0.102 A 
ATOM     22  N   UNL     1       2.454  -0.116  22.123  0.00  0.00    -0.170 NA
ATOM     23  N   UNL     1       1.633  -0.137  22.207  0.00  0.00    -0.253 N 
ATOM     24  C   UNL     1       1.088  -0.296  21.608  0.00  0.00    +0.153 C 
BRANCH  21  25
ATOM     25  C   UNL     1       3.584   0.137  23.027  0.00  0.00    +0.020 A 
ATOM     26  C   UNL     1       3.988  -0.479  23.400  0.00  0.00    +0.004 A 
ATOM     27  C   UNL     1       4.792  -0.403  23.568  0.00  0.00    +0.030 A 
ATOM     28  C   UNL     1       5.193   0.288  23.363  0.00  0.00    +0.140 A 
ATOM     29  F   UNL     1       5.998   0.363  23.531  0.00  0.00    -0.204 F 
ATOM     30  C   UNL     1       4.790   0.904  22.990  0.00  0.00    +0.030 A 
ATOM     31  C   UNL     1       3.985   0.828  22.822  0.00  0.00    +0.004 A 
ENDBRANCH  21  25
ENDBRANCH  18  19
BRANCH  11  10
ATOM     10  C   UNL     1      -1.716   0.043  24.312  0.00  0.00    +0.105 C 
BRANCH  10   9
ATOM      9  N   UNL     1      -2.346   0.575  24.342  0.00  0.00    -0.212 NA
BRANCH   9   8
ATOM      8  C   UNL     1      -3.122   0.298  24.290  0.00  0.00    +0.115 C 
BRANCH   8   7
ATOM      4  C   UNL     1      -5.001   1.752  24.981  0.00  0.00    +0.048 A 
ATOM      5  C   UNL     1      -4.928   0.994  25.299  0.00  0.00    +0.014 A 
ATOM      6  C   UNL     1      -4.301   0.509  25.069  0.00  0.00    -0.002 A 
ATOM      7  C   UNL     1      -3.748   0.783  24.520  0.00  0.00    -0.005 A 
ATOM     32  C   UNL     1      -3.822   1.540  24.203  0.00  0.00    -0.002 A 
ATOM     33  C   UNL     1      -4.449   2.025  24.433  0.00  0.00    +0.014 A 
BRANCH   4   2
ATOM      1  C   UNL     1      -6.402   2.033  25.006  0.00  0.00    +0.112 C 
ATOM      2  N   UNL     1      -5.629   2.236  25.212  0.00  0.00    -0.304 N 
ATOM      3  C   UNL     1      -5.483   2.920  25.647  0.00  0.00    +0.112 C 
ENDBRANCH   4   2
ENDBRANCH   8   7
ENDBRANCH   9   8
ENDBRANCH  10   9
ENDBRANCH  11  10
TORSDOF 7
ENDMDL
MODEL 3
REMARK VINA RESULT:      -7.0     15.274     17.213
REMARK  Name = 
REMARK  7 active torsions:
REMARK  status: ('A' for Active; 'I' for Inactive)
REMARK    1  A    between atoms: N_2  and  C_4
REMARK    2  A    between atoms: C_7  and  C_8
REMARK    3  A    between atoms: C_8  and  N_9
REMARK    4  A    between atoms: N_9  and  C_10
REMARK    5  A    between atoms: C_10  and  C_11
REMARK    6  A    between atoms: C_18  and  C_19
REMARK    7  A    between atoms: C_21  and  C_25
REMARK                            x       y       z     vdW  Elec       q    Type
REMARK                         _______ _______ _______ _____ _____    ______ ____
ROOT
ATOM     11  C   UNL     1      -5.900 -10.316  15.091  0.00  0.00    +0.075 C 
ATOM     12  C   UNL     1      -6.088 -10.521  14.364  0.00  0.00    +0.018 C 
ATOM     13  C   UNL     1      -5.595 -10.491  13.723  0.00  0.00    +0.010 C 
ATOM     14  C   UNL     1      -6.002 -10.770  12.975  0.00  0.00    +0.018 C 
ATOM     15  C   UNL     1      -5.958 -10.629  13.611  0.00  0.00    +0.072 C 
ATOM     16  N   UNL     1      -5.403 -10.289  14.433  0.00  0.00    -0.272 NA
ATOM     17  C   UNL     1      -4.533 -10.031  14.336  0.00  0.00    +0.078 C 
ATOM     18  C   UNL     1      -4.757 -10.242  13.637  0.00  0.00    +0.056 C 
ENDROOT
BRANCH  18  19
ATOM     19  C   UNL     1      -4.307 -10.236  12.945  0.00  0.00    +0.058 A 
ATOM     20  C   UNL     1      -4.563  -9.986  12.202  0.00  0.00    +0.035 A 
ATOM     21  C   UNL     1      -3.937 -10.075  11.674  0.00  0.00    +0.102 A 
ATOM     22  N   UNL     1      -3.293 -10.380  12.089  0.00  0.00    -0.170 NA
ATOM     23  N   UNL     1      -3.522 -10.480  12.876  0.00  0.00    -0.253 N 
ATOM     24  C   UNL     1      -3.050 -10.773  13.486  0.00  0.00    +0.153 C 
BRANCH  21  25
ATOM     25  C   UNL     1      -3.951  -9.891  10.870  0.00  0.00    +0.020 A 
ATOM     26  C   UNL     1      -4.018 -10.493  10.309  0.00  0.00    +0.004 A 
ATOM     27  C   UNL     1      -4.032 -10.309   9.505  0.00  0.00    +0.030 A 
ATOM     28  C   UNL     1      -3.978  -9.523   9.261  0.00  0.00    +0.140 A 
ATOM     29  F   UNL     1      -3.991  -9.340   8.456  0.00  0.00    -0.204 F 
ATOM     30  C   UNL     1      -3.910  -8.921   9.821  0.00  0.00    +0.030 A 
ATOM     31  C   UNL     1      -3.896  -9.105  10.625  0.00  0.00    +0.004 A 
ENDBRANCH  21  25
ENDBRANCH  18  19
BRANCH  11  10
ATOM     10  C   UNL     1      -6.067 -10.210  15.892  0.00  0.00    +0.105 C 
BRANCH  10   9
ATOM      9  N   UNL     1      -6.843 -10.081  16.138  0.00  0.00    -0.212 NA
BRANCH   9   8
ATOM      8  C   UNL     1      -6.996  -9.850  16.916  0.00  0.00    +0.115 C 
BRANCH   8   7
ATOM      4  C   UNL     1      -9.322  -9.417  17.642  0.00  0.00    +0.048 A 
ATOM      5  C   UNL     1      -8.877  -8.811  17.301  0.00  0.00    +0.014 A 
ATOM      6  C   UNL     1      -8.101  -8.956  17.059  0.00  0.00    -0.002 A 
ATOM      7  C   UNL     1      -7.771  -9.706  17.158  0.00  0.00    -0.005 A 
ATOM     32  C   UNL     1      -8.216 -10.310  17.499  0.00  0.00    -0.002 A 
ATOM     33  C   UNL     1      -8.992 -10.166  17.741  0.00  0.00    +0.014 A 
BRANCH   4   2
ATOM      1  C   UNL     1     -10.407  -9.672  18.536  0.00  0.00    +0.112 C 
ATOM      2  N   UNL     1     -10.097  -9.271  17.884  0.00  0.00    -0.304 N 
ATOM      3  C   UNL     1     -10.562  -8.727  17.475  0.00  0.00    +0.112 C 
ENDBRANCH   4   2
ENDBRANCH   8   7
ENDBRANCH   9   8
ENDBRANCH  10   9
ENDBRANCH  11  10
TORSDOF 7
ENDMDL
MODEL 4
REMARK VINA RESULT:      -7.0     15.868     17.919
REMARK  Name = 
REMARK  7 active torsions:
REMARK  status: ('A' for Active; 'I' for Inactive)
REMARK    1  A    between atoms: N_2  and  C_4
REMARK    2  A    between atoms: C_7  and  C_8
REMARK    3  A    between atoms: C_8  and  N_9
REMARK    4  A    between atoms: N_9  and  C_10
REMARK    5  A    between atoms: C_10  and  C_11
REMARK    6  A    between atoms: C_18  and  C_19
REMARK    7  A    between atoms: C_21  and  C_25
REMARK                            x       y       z     vdW  Elec       q    Type
REMARK                         _______ _______ _______ _____ _____    ______ ____
ROOT
ATOM     11  C   UNL     1      -7.370  -9.713  12.550  0.00  0.00    +0.075 C 
ATOM     12  C   UNL     1      -6.907  -9.161  12.257  0.00  0.00    +0.018 C 
ATOM     13  C   UNL     1      -6.201  -9.289  11.882  0.00  0.00    +0.010 C 
ATOM     14  C   UNL     1      -5.819  -8.521  11.618  0.00  0.00    +0.018 C 
ATOM     15  C   UNL     1      -6.280  -8.892  11.896  0.00  0.00    +0.072 C 
ATOM     16  N   UNL     1      -6.650  -9.835  12.167  0.00  0.00    -0.272 NA
ATOM     17  C   UNL     1      -6.184 -10.595  11.970  0.00  0.00    +0.078 C 
ATOM     18  C   UNL     1      -5.758 -10.023  11.696  0.00  0.00    +0.056 C 
ENDROOT
BRANCH  18  19
ATOM     19  C   UNL     1      -5.033 -10.084  11.306  0.00  0.00    +0.058 A 
ATOM     20  C   UNL     1      -4.308  -9.807  11.585  0.00  0.00    +0.035 A 
ATOM     21  C   UNL     1      -3.734  -9.984  11.021  0.00  0.00    +0.102 A 
ATOM     22  N   UNL     1      -4.103 -10.370  10.392  0.00  0.00    -0.170 NA
ATOM     23  N   UNL     1      -4.907 -10.432  10.568  0.00  0.00    -0.253 N 
ATOM     24  C   UNL     1      -5.483 -10.781  10.092  0.00  0.00    +0.153 C 
BRANCH  21  25
ATOM     25  C   UNL     1      -2.930  -9.806  11.074  0.00  0.00    +0.020 A 
ATOM     26  C   UNL     1      -2.453 -10.208  11.615  0.00  0.00    +0.004 A 
ATOM     27  C   UNL     1      -1.650 -10.030  11.669  0.00  0.00    +0.030 A 
ATOM     28  C   UNL     1      -1.321  -9.451  11.181  0.00  0.00    +0.140 A 
ATOM     29  F   UNL     1      -0.517  -9.274  11.236  0.00  0.00    -0.204 F 
ATOM     30  C   UNL     1      -1.798  -9.049  10.640  0.00  0.00    +0.030 A 
ATOM     31  C   UNL     1      -2.602  -9.227  10.587  0.00  0.00    +0.004 A 
ENDBRANCH  21  25
ENDBRANCH  18  19
BRANCH  11  10
ATOM     10  C   UNL     1      -8.050  -9.973  12.939  0.00  0.00    +0.105 C 
BRANCH  10   9
ATOM      9  N   UNL     1      -8.380  -9.518  13.542  0.00  0.00    -0.212 NA
BRANCH   9   8
ATOM      8  C   UNL     1      -8.990  -9.826  14.004  0.00  0.00    +0.115 C 
BRANCH   8   7
ATOM      4  C   UNL     1      -9.920  -8.495  15.871  0.00  0.00    +0.048 A 
ATOM      5  C   UNL     1     -10.294  -8.491  15.136  0.00  0.00    +0.014 A 
ATOM      6  C   UNL     1      -9.985  -8.935  14.513  0.00  0.00    -0.002 A 
ATOM      7  C   UNL     1      -9.300  -9.382  14.626  0.00  0.00    -0.005 A 
ATOM     32  C   UNL     1      -8.927  -9.386  15.362  0.00  0.00    -0.002 A 
ATOM     33  C   UNL     1      -9.237  -8.942  15.984  0.00  0.00    +0.014 A 
BRANCH   4   2
ATOM      1  C   UNL     1     -10.386  -7.247  16.388  0.00  0.00    +0.112 C 
ATOM      2  N   UNL     1     -10.231  -8.050  16.493  0.00  0.00    -0.304 N 
ATOM      3  C   UNL     1     -10.386  -8.409  17.219  0.00  0.00    +0.112 C 
ENDBRANCH   4   2
ENDBRANCH   8   7
ENDBRANCH   9   8
ENDBRANCH  10   9
ENDBRANCH  11  10
TORSDOF 7
ENDMDL
MODEL 5
REMARK VINA RESULT:      -6.8     15.205     16.107
REMARK  Name = 
REMARK  7 active torsions:
REMARK  status: ('A' for Active; 'I' for Inactive)
REMARK    1  A    between atoms: N_2  and  C_4
REMARK    2  A    between atoms: C_7  and  C_8
REMARK    3  A    between atoms: C_8  and  N_9
REMARK    4  A    between atoms: N_9  and  C_10
REMARK    5  A    between atoms: C_10  and  C_11
REMARK    6  A    between atoms: C_18  and  C_19
REMARK    7  A    between atoms: C_21  and  C_25
REMARK                            x       y       z     vdW  Elec       q    Type
REMARK                         _______ _______ _______ _____ _____    ______ ____
ROOT
ATOM     11  C   UNL     1      -5.334 -10.447  13.981  0.00  0.00    +0.075 C 
ATOM     12  C   UNL     1      -6.085 -10.602  14.114  0.00  0.00    +0.018 C 
ATOM     13  C   UNL     1      -6.487 -10.436  14.797  0.00  0.00    +0.010 C 
ATOM     14  C   UNL     1      -7.345 -10.693  14.751  0.00  0.00    +0.018 C 
ATOM     15  C   UNL     1      -6.735 -10.613  14.531  0.00  0.00    +0.072 C 
ATOM     16  N   UNL     1      -5.751 -10.281  14.674  0.00  0.00    -0.272 NA
ATOM     17  C   UNL     1      -5.498  -9.891  15.459  0.00  0.00    +0.078 C 
ATOM     18  C   UNL     1      -6.237 -10.060  15.550  0.00  0.00    +0.056 C 
ENDROOT
BRANCH  18  19
ATOM     19  C   UNL     1      -6.704  -9.919  16.216  0.00  0.00    +0.058 A 
ATOM     20  C   UNL     1      -7.477  -9.633  16.214  0.00  0.00    +0.035 A 
ATOM     21  C   UNL     1      -7.730  -9.576  16.997  0.00  0.00    +0.102 A 
ATOM     22  N   UNL     1      -7.112  -9.826  17.483  0.00  0.00    -0.170 NA
ATOM     23  N   UNL     1      -6.477 -10.038  17.000  0.00  0.00    -0.253 N 
ATOM     24  C   UNL     1      -5.745 -10.320  17.256  0.00  0.00    +0.153 C 
BRANCH  21  25
ATOM     25  C   UNL     1      -8.470  -9.315  17.250  0.00  0.00    +0.020 A 
ATOM     26  C   UNL     1      -8.665  -8.514  17.198  0.00  0.00    +0.004 A 
ATOM     27  C   UNL     1      -9.406  -8.253  17.452  0.00  0.00    +0.030 A 
ATOM     28  C   UNL     1      -9.951  -8.791  17.758  0.00  0.00    +0.140 A 
ATOM     29  F   UNL     1     -10.691  -8.529  18.011  0.00  0.00    -0.204 F 
ATOM     30  C   UNL     1      -9.755  -9.591  17.810  0.00  0.00    +0.030 A 
ATOM     31  C   UNL     1      -9.015  -9.853  17.557  0.00  0.00    +0.004 A 
ENDBRANCH  21  25
ENDBRANCH  18  19
BRANCH  11  10
ATOM     10  C   UNL     1      -4.655 -10.448  13.514  0.00  0.00    +0.105 C 
BRANCH  10   9
ATOM      9  N   UNL     1      -4.719 -10.434  12.692  0.00  0.00    -0.212 NA
BRANCH   9   8
ATOM      8  C   UNL     1      -4.051 -10.290  12.229  0.00  0.00    +0.115 C 
BRANCH   8   7
ATOM      4  C   UNL     1      -4.270 -10.095   9.772  0.00  0.00    +0.048 A 
ATOM      5  C   UNL     1      -3.829  -9.537  10.192  0.00  0.00    +0.014 A 
ATOM      6  C   UNL     1      -3.757  -9.602  11.011  0.00  0.00    -0.002 A 
ATOM      7  C   UNL     1      -4.124 -10.225  11.410  0.00  0.00    -0.005 A 
ATOM     32  C   UNL     1      -4.564 -10.781  10.989  0.00  0.00    -0.002 A 
ATOM     33  C   UNL     1      -4.637 -10.716  10.170  0.00  0.00    +0.014 A 
BRANCH   4   2
ATOM      1  C   UNL     1      -4.351 -10.708   8.484  0.00  0.00    +0.112 C 
ATOM      2  N   UNL     1      -4.342 -10.029   8.952  0.00  0.00    -0.304 N 
ATOM      3  C   UNL     1      -4.406  -9.285   8.601  0.00  0.00    +0.112 C 
ENDBRANCH   4   2
ENDBRANCH   8   7
ENDBRANCH   9   8
ENDBRANCH  10   9
ENDBRANCH  11  10
TORSDOF 7
ENDMDL
MODEL 6
REMARK VINA RESULT:      -6.4     17.714     18.432
REMARK  Name = 
REMARK  7 active torsions:
REMARK  status: ('A' for Active; 'I' for Inactive)
REMARK    1  A    between atoms: N_2  and  C_4
REMARK    2  A    between atoms: C_7  and  C_8
REMARK    3  A    between atoms: C_8  and  N_9
REMARK    4  A    between atoms: N_9  and  C_10
REMARK    5  A    between atoms: C_10  and  C_11
REMARK    6  A    between atoms: C_18  and  C_19
REMARK    7  A    between atoms: C_21  and  C_25
REMARK                            x       y       z     vdW  Elec       q    Type
REMARK                         _______ _______ _______ _____ _____    ______ ____
ROOT
ATOM     11  C   UNL     1      -6.213  -9.590   9.550  0.00  0.00    +0.075 C 
ATOM     12  C   UNL     1      -6.360  -9.080   8.980  0.00  0.00    +0.018 C 
ATOM     13  C   UNL     1      -7.059  -8.688   8.867  0.00  0.00    +0.010 C 
ATOM     14  C   UNL     1      -7.026  -8.144   8.155  0.00  0.00    +0.018 C 
ATOM     15  C   UNL     1      -6.793  -8.580   8.582  0.00  0.00    +0.072 C 
ATOM     16  N   UNL     1      -6.923  -9.186   9.428  0.00  0.00    -0.272 NA
ATOM     17  C   UNL     1      -7.716  -9.196   9.879  0.00  0.00    +0.078 C 
ATOM     18  C   UNL     1      -7.819  -8.702   9.306  0.00  0.00    +0.056 C 
ENDROOT
BRANCH  18  19
ATOM     19  C   UNL     1      -8.502  -8.271   9.135  0.00  0.00    +0.058 A 
ATOM     20  C   UNL     1      -8.565  -7.449   9.118  0.00  0.00    +0.035 A 
ATOM     21  C   UNL     1      -9.343  -7.258   8.924  0.00  0.00    +0.102 A 
ATOM     22  N   UNL     1      -9.762  -7.961   8.822  0.00  0.00    -0.170 NA
ATOM     23  N   UNL     1      -9.242  -8.588   8.952  0.00  0.00    -0.253 N 
ATOM     24  C   UNL     1      -9.428  -9.391   8.908  0.00  0.00    +0.153 C 
BRANCH  21  25
ATOM     25  C   UNL     1      -9.651  -6.496   8.846  0.00  0.00    +0.020 A 
ATOM     26  C   UNL     1     -10.412  -6.328   9.117  0.00  0.00    +0.004 A 
ATOM     27  C   UNL     1     -10.720  -5.567   9.039  0.00  0.00    +0.030 A 
ATOM     28  C   UNL     1     -10.266  -4.972   8.690  0.00  0.00    +0.140 A 
ATOM     29  F   UNL     1     -10.574  -4.211   8.612  0.00  0.00    -0.204 F 
ATOM     30  C   UNL     1      -9.504  -5.140   8.419  0.00  0.00    +0.030 A 
ATOM     31  C   UNL     1      -9.197  -5.901   8.497  0.00  0.00    +0.004 A 
ENDBRANCH  21  25
ENDBRANCH  18  19
BRANCH  11  10
ATOM     10  C   UNL     1      -5.729 -10.119   9.957  0.00  0.00    +0.105 C 
BRANCH  10   9
ATOM      9  N   UNL     1      -4.930  -9.945  10.068  0.00  0.00    -0.212 NA
BRANCH   9   8
ATOM      8  C   UNL     1      -4.418 -10.525  10.355  0.00  0.00    +0.115 C 
BRANCH   8   7
ATOM      4  C   UNL     1      -2.192  -9.889  11.228  0.00  0.00    +0.048 A 
ATOM      5  C   UNL     1      -2.561  -9.420  10.658  0.00  0.00    +0.014 A 
ATOM      6  C   UNL     1      -3.303  -9.632  10.367  0.00  0.00    -0.002 A 
ATOM      7  C   UNL     1      -3.676 -10.313  10.646  0.00  0.00    -0.005 A 
ATOM     32  C   UNL     1      -3.307 -10.781  11.216  0.00  0.00    -0.002 A 
ATOM     33  C   UNL     1      -2.565 -10.569  11.507  0.00  0.00    +0.014 A 
BRANCH   4   2
ATOM      1  C   UNL     1      -1.163 -10.023  12.210  0.00  0.00    +0.112 C 
ATOM      2  N   UNL     1      -1.450  -9.675  11.519  0.00  0.00    -0.304 N 
ATOM      3  C   UNL     1      -0.995  -9.116  11.120  0.00  0.00    +0.112 C 
ENDBRANCH   4   2
ENDBRANCH   8   7
ENDBRANCH   9   8
ENDBRANCH  10   9
ENDBRANCH  11  10
TORSDOF 7
ENDMDL
MODEL 7
REMARK VINA RESULT:      -6.3     14.710     15.496
REMARK  Name = 
REMARK  7 active torsions:
REMARK  status: ('A' for Active; 'I' for Inactive)
REMARK    1  A    between atoms: N_2  and  C_4
REMARK    2  A    between atoms: C_7  and  C_8
REMARK    3  A    between atoms: C_8  and  N_9
REMARK    4  A    between atoms: N_9  and  C_10
REMARK    5  A    between atoms: C_10  and  C_11
REMARK    6  A    between atoms: C_18  and  C_19
REMARK    7  A    between atoms: C_21  and  C_25
REMARK                            x       y       z     vdW  Elec       q    Type
REMARK                         _______ _______ _______ _____ _____    ______ ____
ROOT
ATOM     11  C   UNL     1      -4.818 -10.502  12.926  0.00  0.00    +0.075 C 
ATOM     12  C   UNL     1      -5.486 -10.158  13.131  0.00  0.00    +0.018 C 
ATOM     13  C   UNL     1      -5.753 -10.063  13.889  0.00  0.00    +0.010 C 
ATOM     14  C   UNL     1      -6.544  -9.641  13.913  0.00  0.00    +0.018 C 
ATOM     15  C   UNL     1      -6.019  -9.904  13.628  0.00  0.00    +0.072 C 
ATOM     16  N   UNL     1      -5.098 -10.401  13.696  0.00  0.00    -0.272 NA
ATOM     17  C   UNL     1      -4.752 -10.636  14.507  0.00  0.00    +0.078 C 
ATOM     18  C   UNL     1      -5.415 -10.292  14.666  0.00  0.00    +0.056 C 
ENDROOT
BRANCH  18  19
ATOM     19  C   UNL     1      -5.744 -10.163  15.412  0.00  0.00    +0.058 A 
ATOM     20  C   UNL     1      -6.549 -10.150  15.591  0.00  0.00    +0.035 A 
ATOM     21  C   UNL     1      -6.628 -10.003  16.398  0.00  0.00    +0.102 A 
ATOM     22  N   UNL     1      -5.872  -9.924  16.719  0.00  0.00    -0.170 NA
ATOM     23  N   UNL     1      -5.325 -10.023  16.108  0.00  0.00    -0.253 N 
ATOM     24  C   UNL     1      -4.504  -9.988  16.182  0.00  0.00    +0.153 C 
BRANCH  21  25
ATOM     25  C   UNL     1      -7.338  -9.945  16.813  0.00  0.00    +0.020 A 
ATOM     26  C   UNL     1      -7.720 -10.628  17.076  0.00  0.00    +0.004 A 
ATOM     27  C   UNL     1      -8.431 -10.569  17.491  0.00  0.00    +0.030 A 
ATOM     28  C   UNL     1      -8.760  -9.829  17.645  0.00  0.00    +0.140 A 
ATOM     29  F   UNL     1      -9.470  -9.771  18.060  0.00  0.00    -0.204 F 
ATOM     30  C   UNL     1      -8.377  -9.145  17.382  0.00  0.00    +0.030 A 
ATOM     31  C   UNL     1      -7.667  -9.204  16.967  0.00  0.00    +0.004 A 
ENDBRANCH  21  25
ENDBRANCH  18  19
BRANCH  11  10
ATOM     10  C   UNL     1      -4.265 -10.764  12.373  0.00  0.00    +0.105 C 
BRANCH  10   9
ATOM      9  N   UNL     1      -3.685 -10.248  12.094  0.00  0.00    -0.212 NA
BRANCH   9   8
ATOM      8  C   UNL     1      -3.081 -10.531  11.609  0.00  0.00    +0.115 C 
BRANCH   8   7
ATOM      4  C   UNL     1      -0.979  -9.246  11.375  0.00  0.00    +0.048 A 
ATOM      5  C   UNL     1      -1.041  -9.834  11.951  0.00  0.00    +0.014 A 
ATOM      6  C   UNL     1      -1.741 -10.262  12.029  0.00  0.00    -0.002 A 
ATOM      7  C   UNL     1      -2.380 -10.103  11.531  0.00  0.00    -0.005 A 
ATOM     32  C   UNL     1      -2.317  -9.515  10.956  0.00  0.00    -0.002 A 
ATOM     33  C   UNL     1      -1.617  -9.087  10.878  0.00  0.00    +0.014 A 
BRANCH   4   2
ATOM      1  C   UNL     1      -0.131  -8.176  11.795  0.00  0.00    +0.112 C 
ATOM      2  N   UNL     1      -0.277  -8.818  11.298  0.00  0.00    -0.304 N 
ATOM      3  C   UNL     1       0.276  -9.032  10.726  0.00  0.00    +0.112 C 
ENDBRANCH   4   2
ENDBRANCH   8   7
ENDBRANCH   9   8
ENDBRANCH  10   9
ENDBRANCH  11  10
TORSDOF 7
ENDMDL
MODEL 8
REMARK VINA RESULT:      -6.3     16.920     17.772
REMARK  Name = 
REMARK  7 active torsions:
REMARK  status: ('A' for Active; 'I' for Inactive)
REMARK    1  A    between atoms: N_2  and  C_4
REMARK    2  A    between atoms: C_7  and  C_8
REMARK    3  A    between atoms: C_8  and  N_9
REMARK    4  A    between atoms: N_9  and  C_10
REMARK    5  A    between atoms: C_10  and  C_11
REMARK    6  A    between atoms: C_18  and  C_19
REMARK    7  A    between atoms: C_21  and  C_25
REMARK                            x       y       z     vdW  Elec       q    Type
REMARK                         _______ _______ _______ _____ _____    ______ ____
ROOT
ATOM     11  C   UNL     1      -4.877  -9.789  10.506  0.00  0.00    +0.075 C 
ATOM     12  C   UNL     1      -4.908  -9.062  10.230  0.00  0.00    +0.018 C 
ATOM     13  C   UNL     1      -5.511  -8.751   9.789  0.00  0.00    +0.010 C 
ATOM     14  C   UNL     1      -5.356  -7.895   9.569  0.00  0.00    +0.018 C 
ATOM     15  C   UNL     1      -5.224  -8.471   9.847  0.00  0.00    +0.072 C 
ATOM     16  N   UNL     1      -5.488  -9.464  10.056  0.00  0.00    -0.272 NA
ATOM     17  C   UNL     1      -6.273  -9.814   9.750  0.00  0.00    +0.078 C 
ATOM     18  C   UNL     1      -6.265  -9.093   9.498  0.00  0.00    +0.056 C 
ENDROOT
BRANCH  18  19
ATOM     19  C   UNL     1      -6.843  -8.716   9.046  0.00  0.00    +0.058 A 
ATOM     20  C   UNL     1      -7.107  -7.941   9.146  0.00  0.00    +0.035 A 
ATOM     21  C   UNL     1      -7.686  -7.794   8.578  0.00  0.00    +0.102 A 
ATOM     22  N   UNL     1      -7.780  -8.477   8.126  0.00  0.00    -0.170 NA
ATOM     23  N   UNL     1      -7.258  -9.048   8.415  0.00  0.00    -0.253 N 
ATOM     24  C   UNL     1      -7.168  -9.815   8.125  0.00  0.00    +0.153 C 
BRANCH  21  25
ATOM     25  C   UNL     1      -8.099  -7.087   8.478  0.00  0.00    +0.020 A 
ATOM     26  C   UNL     1      -7.687  -6.375   8.405  0.00  0.00    +0.004 A 
ATOM     27  C   UNL     1      -8.101  -5.668   8.305  0.00  0.00    +0.030 A 
ATOM     28  C   UNL     1      -8.925  -5.672   8.278  0.00  0.00    +0.140 A 
ATOM     29  F   UNL     1      -9.338  -4.964   8.178  0.00  0.00    -0.204 F 
ATOM     30  C   UNL     1      -9.337  -6.384   8.351  0.00  0.00    +0.030 A 
ATOM     31  C   UNL     1      -8.923  -7.091   8.451  0.00  0.00    +0.004 A 
ENDBRANCH  21  25
ENDBRANCH  18  19
BRANCH  11  10
ATOM     10  C   UNL     1      -4.517 -10.403  10.922  0.00  0.00    +0.105 C 
BRANCH  10   9
ATOM      9  N   UNL     1      -4.100 -10.243  11.616  0.00  0.00    -0.212 NA
BRANCH   9   8
ATOM      8  C   UNL     1      -3.540 -10.781  11.894  0.00  0.00    +0.115 C 
BRANCH   8   7
ATOM      4  C   UNL     1      -2.045 -10.154  13.764  0.00  0.00    +0.048 A 
ATOM      5  C   UNL     1      -2.808 -10.427  13.919  0.00  0.00    +0.014 A 
ATOM      6  C   UNL     1      -3.306 -10.636  13.296  0.00  0.00    -0.002 A 
ATOM      7  C   UNL     1      -3.041 -10.572  12.517  0.00  0.00    -0.005 A 
ATOM     32  C   UNL     1      -2.279 -10.299  12.362  0.00  0.00    -0.002 A 
ATOM     33  C   UNL     1      -1.781 -10.090  12.985  0.00  0.00    +0.014 A 
BRANCH   4   2
ATOM      1  C   UNL     1      -1.102  -9.251  14.345  0.00  0.00    +0.112 C 
ATOM      2  N   UNL     1      -1.547  -9.945  14.388  0.00  0.00    -0.304 N 
ATOM      3  C   UNL     1      -1.494 -10.429  15.053  0.00  0.00    +0.112 C 
ENDBRANCH   4   2
ENDBRANCH   8   7
ENDBRANCH   9   8
ENDBRANCH  10   9
ENDBRANCH  11  10
TORSDOF 7
ENDMDL
MODEL 9
REMARK VINA RESULT:      -6.2     15.956     17.879
REMARK  Name = 
REMARK  7 active torsions:
REMARK  status: ('A' for Active; 'I' for Inactive)
REMARK    1  A    between atoms: N_2  and  C_4
REMARK    2  A    between atoms: C_7  and  C_8
REMARK    3  A    between atoms: C_8  and  N_9
REMARK    4  A    between atoms: N_9  and  C_10
REMARK    5  A    between atoms: C_10  and  C_11
REMARK    6  A    between atoms: C_18  and  C_19
REMARK    7  A    between atoms: C_21  and  C_25
REMARK                            x       y       z     vdW  Elec       q    Type
REMARK                         _______ _______ _______ _____ _____    ______ ____
ROOT
ATOM     11  C   UNL     1      -8.147  -9.657  13.722  0.00  0.00    +0.075 C 
ATOM     12  C   UNL     1      -7.446  -9.994  13.695  0.00  0.00    +0.018 C 
ATOM     13  C   UNL     1      -6.962 -10.026  13.046  0.00  0.00    +0.010 C 
ATOM     14  C   UNL     1      -6.197 -10.459  13.221  0.00  0.00    +0.018 C 
ATOM     15  C   UNL     1      -6.786 -10.212  13.359  0.00  0.00    +0.072 C 
ATOM     16  N   UNL     1      -7.648  -9.694  13.065  0.00  0.00    -0.272 NA
ATOM     17  C   UNL     1      -7.737  -9.378  12.213  0.00  0.00    +0.078 C 
ATOM     18  C   UNL     1      -7.054  -9.720  12.229  0.00  0.00    +0.056 C 
ENDROOT
BRANCH  18  19
ATOM     19  C   UNL     1      -6.515  -9.787  11.607  0.00  0.00    +0.058 A 
ATOM     20  C   UNL     1      -5.730  -9.535  11.617  0.00  0.00    +0.035 A 
ATOM     21  C   UNL     1      -5.397  -9.710  10.884  0.00  0.00    +0.102 A 
ATOM     22  N   UNL     1      -5.976 -10.070  10.419  0.00  0.00    -0.170 NA
ATOM     23  N   UNL     1      -6.668 -10.118  10.867  0.00  0.00    -0.253 N 
ATOM     24  C   UNL     1      -7.386 -10.439  10.618  0.00  0.00    +0.153 C 
BRANCH  21  25
ATOM     25  C   UNL     1      -4.621  -9.554  10.653  0.00  0.00    +0.020 A 
ATOM     26  C   UNL     1      -4.408  -8.794  10.407  0.00  0.00    +0.004 A 
ATOM     27  C   UNL     1      -3.632  -8.638  10.177  0.00  0.00    +0.030 A 
ATOM     28  C   UNL     1      -3.067  -9.239  10.192  0.00  0.00    +0.140 A 
ATOM     29  F   UNL     1      -2.291  -9.081   9.961  0.00  0.00    -0.204 F 
ATOM     30  C   UNL     1      -3.280  -9.998  10.437  0.00  0.00    +0.030 A 
ATOM     31  C   UNL     1      -4.056 -10.155  10.668  0.00  0.00    +0.004 A 
ENDBRANCH  21  25
ENDBRANCH  18  19
BRANCH  11  10
ATOM     10  C   UNL     1      -8.843  -9.436  14.105  0.00  0.00    +0.105 C 
BRANCH  10   9
ATOM      9  N   UNL     1      -8.919  -9.547  14.919  0.00  0.00    -0.212 NA
BRANCH   9   8
ATOM      8  C   UNL     1      -9.586  -9.263  15.313  0.00  0.00    +0.115 C 
BRANCH   8   7
ATOM      4  C   UNL     1      -9.946  -9.825  17.696  0.00  0.00    +0.048 A 
ATOM      5  C   UNL     1     -10.195 -10.347  17.107  0.00  0.00    +0.014 A 
ATOM      6  C   UNL     1     -10.075 -10.159  16.313  0.00  0.00    -0.002 A 
ATOM      7  C   UNL     1      -9.706  -9.450  16.107  0.00  0.00    -0.005 A 
ATOM     32  C   UNL     1      -9.457  -8.930  16.696  0.00  0.00    -0.002 A 
ATOM     33  C   UNL     1      -9.577  -9.117  17.491  0.00  0.00    +0.014 A 
BRANCH   4   2
ATOM      1  C   UNL     1     -10.719  -9.707  18.891  0.00  0.00    +0.112 C 
ATOM      2  N   UNL     1     -10.066 -10.014  18.490  0.00  0.00    -0.304 N 
ATOM      3  C   UNL     1      -9.535 -10.507  18.883  0.00  0.00    +0.112 C 
ENDBRANCH   4   2
ENDBRANCH   8   7
ENDBRANCH   9   8
ENDBRANCH  10   9
ENDBRANCH  11  10
TORSDOF 7
ENDMDL
