MODEL 1
REMARK VINA RESULT:      -9.6      0.000      0.000
REMARK  Name = 
REMARK  7 active torsions:
REMARK  status: ('A' for Active; 'I' for Inactive)
REMARK    1  A    between atoms: N_2  and  C_4
REMARK    2  A    between atoms: C_7  and  C_8
REMARK    3  A    between atoms: C_8  and  N_9
REMARK    4  A    between atoms: N_9  and  C_10
REMARK    5  A    between atoms: C_14  and  N_18
REMARK    6  A    between atoms: C_20  and  C_21
REMARK    7  A    between atoms: C_21  and  C_22
REMARK                            x       y       z     vdW  Elec       q    Type
REMARK                         _______ _______ _______ _____ _____    ______ ____
ROOT
ATOM     10  C   UNL     1       0.933   0.476  23.310  0.00  0.00    +0.132 C 
ATOM     11  C   UNL     1       0.540  -0.148  22.941  0.00  0.00    +0.162 C 
ATOM     12  O   UNL     1      -0.250  -0.126  23.175  0.00  0.00    -0.350 OA
ATOM     13  C   UNL     1      -0.347   0.512  23.688  0.00  0.00    +0.168 C 
ATOM     14  C   UNL     1      -0.894   0.921  24.151  0.00  0.00    +0.166 C 
ATOM     15  C   UNL     1      -0.502   1.546  24.520  0.00  0.00    +0.169 C 
ATOM     16  O   UNL     1       0.289   1.523  24.285  0.00  0.00    -0.350 OA
ATOM     17  C   UNL     1       0.385   0.884  23.772  0.00  0.00    +0.163 C 
ENDROOT
BRANCH  14  18
ATOM     18  N   UNL     1      -1.695   0.737  24.230  0.00  0.00    -0.227 N 
ATOM     19  C   UNL     1      -2.016   0.186  24.754  0.00  0.00    +0.113 A 
ATOM     20  C   UNL     1      -2.834   0.180  24.647  0.00  0.00    +0.101 A 
ATOM     28  N   UNL     1      -3.018   0.727  24.058  0.00  0.00    -0.133 NA
ATOM     29  N   UNL     1      -2.314   1.071  23.801  0.00  0.00    -0.064 NA
BRANCH  20  21
ATOM     21  C   UNL     1      -3.373  -0.291  25.058  0.00  0.00    +0.049 C 
BRANCH  21  22
ATOM     22  C   UNL     1      -3.560  -1.044  24.778  0.00  0.00    +0.006 C 
ATOM     23  C   UNL     1      -4.091  -1.131  24.153  0.00  0.00    +0.000 C 
ATOM     24  C   UNL     1      -4.278  -1.884  23.873  0.00  0.00    +0.000 C 
ATOM     25  C   UNL     1      -3.935  -2.550  24.219  0.00  0.00    +0.000 C 
ATOM     26  C   UNL     1      -3.404  -2.463  24.844  0.00  0.00    +0.000 C 
ATOM     27  C   UNL     1      -3.216  -1.709  25.124  0.00  0.00    +0.000 C 
ENDBRANCH  21  22
ENDBRANCH  20  21
ENDBRANCH  14  18
BRANCH  10   9
ATOM      9  N   UNL     1       1.733   0.661  23.230  0.00  0.00    -0.210 NA
BRANCH   9   8
ATOM      8  C   UNL     1       2.230   0.165  22.797  0.00  0.00    +0.115 C 
BRANCH   8   7
ATOM      4  C   UNL     1       4.660   0.134  23.260  0.00  0.00    +0.048 A 
ATOM      5  C   UNL     1       4.205  -0.539  23.403  0.00  0.00    +0.014 A 
ATOM      6  C   UNL     1       3.395  -0.528  23.249  0.00  0.00    -0.002 A 
ATOM      7  C   UNL     1       3.040   0.154  22.951  0.00  0.00    -0.005 A 
ATOM     30  C   UNL     1       3.495   0.827  22.808  0.00  0.00    -0.002 A 
ATOM     31  C   UNL     1       4.306   0.817  22.962  0.00  0.00    +0.014 A 
BRANCH   4   2
ATOM      1  C   UNL     1       5.760   0.432  24.123  0.00  0.00    +0.112 C 
ATOM      2  N   UNL     1       5.471   0.124  23.414  0.00  0.00    -0.304 N 
ATOM      3  C   UNL     1       5.993  -0.194  22.859  0.00  0.00    +0.112 C 
ENDBRANCH   4   2
ENDBRANCH   8   7
ENDBRANCH   9   8
ENDBRANCH  10   9
TORSDOF 7
ENDMDL
MODEL 2
REMARK VINA RESULT:      -8.6      1.263      1.930
REMARK  Name = 
REMARK  7 active torsions:
REMARK  status: ('A' for Active; 'I' for Inactive)
REMARK    1  A    between atoms: N_2  and  C_4
REMARK    2  A    between atoms: C_7  and  C_8
REMARK    3  A    between atoms: C_8  and  N_9
REMARK    4  A    between atoms: N_9  and  C_10
REMARK    5  A    between atoms: C_14  and  N_18
REMARK    6  A    between atoms: C_20  and  C_21
REMARK    7  A    between atoms: C_21  and  C_22
REMARK                            x       y       z     vdW  Elec       q    Type
REMARK                         _______ _______ _______ _____ _____    ______ ____
ROOT
ATOM     10  C   UNL     1       0.923   0.489  23.379  0.00  0.00    +0.132 C 
ATOM     11  C   UNL     1       0.529  -0.186  23.115  0.00  0.00    +0.162 C 
ATOM     12  O   UNL     1      -0.246  -0.154  23.395  0.00  0.00    -0.350 OA
ATOM     13  C   UNL     1      -0.331   0.540  23.832  0.00  0.00    +0.168 C 
ATOM     14  C   UNL     1      -0.862   0.989  24.276  0.00  0.00    +0.166 C 
ATOM     15  C   UNL     1      -0.468   1.664  24.540  0.00  0.00    +0.169 C 
ATOM     16  O   UNL     1       0.307   1.632  24.259  0.00  0.00    -0.350 OA
ATOM     17  C   UNL     1       0.392   0.937  23.822  0.00  0.00    +0.163 C 
ENDROOT
BRANCH  14  18
ATOM     18  N   UNL     1      -1.650   0.797  24.428  0.00  0.00    -0.227 N 
ATOM     19  C   UNL     1      -2.303   1.035  23.982  0.00  0.00    +0.113 A 
ATOM     20  C   UNL     1      -2.979   0.718  24.332  0.00  0.00    +0.101 A 
ATOM     28  N   UNL     1      -2.745   0.285  24.993  0.00  0.00    -0.133 NA
ATOM     29  N   UNL     1      -1.924   0.334  25.053  0.00  0.00    -0.064 NA
BRANCH  20  21
ATOM     21  C   UNL     1      -3.754   0.817  24.066  0.00  0.00    +0.049 C 
BRANCH  21  22
ATOM     22  C   UNL     1      -4.260   1.339  24.456  0.00  0.00    +0.006 C 
ATOM     23  C   UNL     1      -4.793   1.055  25.017  0.00  0.00    +0.000 C 
ATOM     24  C   UNL     1      -5.299   1.577  25.407  0.00  0.00    +0.000 C 
ATOM     25  C   UNL     1      -5.272   2.383  25.236  0.00  0.00    +0.000 C 
ATOM     26  C   UNL     1      -4.739   2.668  24.674  0.00  0.00    +0.000 C 
ATOM     27  C   UNL     1      -4.233   2.146  24.284  0.00  0.00    +0.000 C 
ENDBRANCH  21  22
ENDBRANCH  20  21
ENDBRANCH  14  18
BRANCH  10   9
ATOM      9  N   UNL     1       1.711   0.681  23.227  0.00  0.00    -0.210 NA
BRANCH   9   8
ATOM      8  C   UNL     1       2.196   0.147  22.826  0.00  0.00    +0.115 C 
BRANCH   8   7
ATOM      4  C   UNL     1       4.635   0.137  23.241  0.00  0.00    +0.048 A 
ATOM      5  C   UNL     1       4.275   0.804  22.916  0.00  0.00    +0.014 A 
ATOM      6  C   UNL     1       3.462   0.808  22.778  0.00  0.00    -0.002 A 
ATOM      7  C   UNL     1       3.009   0.144  22.964  0.00  0.00    -0.005 A 
ATOM     30  C   UNL     1       3.369  -0.523  23.289  0.00  0.00    -0.002 A 
ATOM     31  C   UNL     1       4.183  -0.527  23.427  0.00  0.00    +0.014 A 
BRANCH   4   2
ATOM      1  C   UNL     1       5.754   0.495  24.055  0.00  0.00    +0.112 C 
ATOM      2  N   UNL     1       5.449   0.134  23.379  0.00  0.00    -0.304 N 
ATOM      3  C   UNL     1       5.958  -0.231  22.842  0.00  0.00    +0.112 C 
ENDBRANCH   4   2
ENDBRANCH   8   7
ENDBRANCH   9   8
ENDBRANCH  10   9
TORSDOF 7
ENDMDL
MODEL 3
REMARK VINA RESULT:      -8.3      1.428      6.935
REMARK  Name = 
REMARK  7 active torsions:
REMARK  status: ('A' for Active; 'I' for Inactive)
REMARK    1  A    between atoms: N_2  and  C_4
REMARK    2  A    between atoms: C_7  and  C_8
REMARK    3  A    between atoms: C_8  and  N_9
REMARK    4  A    between atoms: N_9  and  C_10
REMARK    5  A    between atoms: C_14  and  N_18
REMARK    6  A    between atoms: C_20  and  C_21
REMARK    7  A    between atoms: C_21  and  C_22
REMARK                            x       y       z     vdW  Elec       q    Type
REMARK                         _______ _______ _______ _____ _____    ______ ____
ROOT
ATOM     10  C   UNL     1      -0.955   0.535  24.094  0.00  0.00    +0.132 C 
ATOM     11  C   UNL     1      -0.857  -0.221  23.780  0.00  0.00    +0.162 C 
ATOM     12  O   UNL     1      -0.090  -0.276  23.484  0.00  0.00    -0.350 OA
ATOM     13  C   UNL     1       0.287   0.445  23.615  0.00  0.00    +0.168 C 
ATOM     14  C   UNL     1       0.994   0.859  23.513  0.00  0.00    +0.166 C 
ATOM     15  C   UNL     1       0.896   1.615  23.827  0.00  0.00    +0.169 C 
ATOM     16  O   UNL     1       0.128   1.670  24.123  0.00  0.00    -0.350 OA
ATOM     17  C   UNL     1      -0.249   0.947  23.992  0.00  0.00    +0.163 C 
ENDROOT
BRANCH  14  18
ATOM     18  N   UNL     1       1.679   0.566  23.159  0.00  0.00    -0.227 N 
ATOM     19  C   UNL     1       2.417   0.936  23.151  0.00  0.00    +0.113 A 
ATOM     20  C   UNL     1       2.941   0.450  22.738  0.00  0.00    +0.101 A 
ATOM     28  N   UNL     1       2.527  -0.219  22.491  0.00  0.00    -0.133 NA
ATOM     29  N   UNL     1       1.748  -0.147  22.751  0.00  0.00    -0.064 NA
BRANCH  20  21
ATOM     21  C   UNL     1       3.739   0.607  22.597  0.00  0.00    +0.049 C 
BRANCH  21  22
ATOM     22  C   UNL     1       4.315   0.303  23.103  0.00  0.00    +0.006 C 
ATOM     23  C   UNL     1       4.379  -0.512  23.212  0.00  0.00    +0.000 C 
ATOM     24  C   UNL     1       4.955  -0.816  23.717  0.00  0.00    +0.000 C 
ATOM     25  C   UNL     1       5.467  -0.306  24.115  0.00  0.00    +0.000 C 
ATOM     26  C   UNL     1       5.403   0.510  24.005  0.00  0.00    +0.000 C 
ATOM     27  C   UNL     1       4.827   0.814  23.499  0.00  0.00    +0.000 C 
ENDBRANCH  21  22
ENDBRANCH  20  21
ENDBRANCH  14  18
BRANCH  10   9
ATOM      9  N   UNL     1      -1.641   0.828  24.448  0.00  0.00    -0.210 NA
BRANCH   9   8
ATOM      8  C   UNL     1      -2.382   0.590  24.173  0.00  0.00    +0.115 C 
BRANCH   8   7
ATOM      4  C   UNL     1      -4.417   1.799  24.893  0.00  0.00    +0.048 A 
ATOM      5  C   UNL     1      -3.902   2.146  24.350  0.00  0.00    +0.014 A 
ATOM      6  C   UNL     1      -3.224   1.743  24.110  0.00  0.00    -0.002 A 
ATOM      7  C   UNL     1      -3.060   0.993  24.413  0.00  0.00    -0.005 A 
ATOM     30  C   UNL     1      -3.575   0.646  24.956  0.00  0.00    -0.002 A 
ATOM     31  C   UNL     1      -4.254   1.049  25.196  0.00  0.00    +0.014 A 
BRANCH   4   2
ATOM      1  C   UNL     1      -5.033   2.954  25.465  0.00  0.00    +0.112 C 
ATOM      2  N   UNL     1      -5.096   2.202  25.133  0.00  0.00    -0.304 N 
ATOM      3  C   UNL     1      -5.838   1.853  25.040  0.00  0.00    +0.112 C 
ENDBRANCH   4   2
ENDBRANCH   8   7
ENDBRANCH   9   8
ENDBRANCH  10   9
TORSDOF 7
ENDMDL
MODEL 4
REMARK VINA RESULT:      -8.0      2.460      3.265
REMARK  Name = 
REMARK  7 active torsions:
REMARK  status: ('A' for Active; 'I' for Inactive)
REMARK    1  A    between atoms: N_2  and  C_4
REMARK    2  A    between atoms: C_7  and  C_8
REMARK    3  A    between atoms: C_8  and  N_9
REMARK    4  A    between atoms: N_9  and  C_10
REMARK    5  A    between atoms: C_14  and  N_18
REMARK    6  A    between atoms: C_20  and  C_21
REMARK    7  A    between atoms: C_21  and  C_22
REMARK                            x       y       z     vdW  Elec       q    Type
REMARK                         _______ _______ _______ _____ _____    ______ ____
ROOT
ATOM     10  C   UNL     1      -0.503   1.798  24.509  0.00  0.00    +0.132 C 
ATOM     11  C   UNL     1      -1.105   1.271  24.710  0.00  0.00    +0.162 C 
ATOM     12  O   UNL     1      -1.754   1.711  24.964  0.00  0.00    -0.350 OA
ATOM     13  C   UNL     1      -1.554   2.510  24.921  0.00  0.00    +0.168 C 
ATOM     14  C   UNL     1      -1.831   3.276  25.051  0.00  0.00    +0.166 C 
ATOM     15  C   UNL     1      -1.229   3.803  24.851  0.00  0.00    +0.169 C 
ATOM     16  O   UNL     1      -0.580   3.363  24.597  0.00  0.00    -0.350 OA
ATOM     17  C   UNL     1      -0.780   2.563  24.640  0.00  0.00    +0.163 C 
ENDROOT
BRANCH  14  18
ATOM     18  N   UNL     1      -2.580   3.479  25.332  0.00  0.00    -0.227 N 
ATOM     19  C   UNL     1      -3.292   3.391  24.925  0.00  0.00    +0.113 A 
ATOM     20  C   UNL     1      -3.900   3.664  25.411  0.00  0.00    +0.101 A 
ATOM     28  N   UNL     1      -3.563   3.920  26.119  0.00  0.00    -0.133 NA
ATOM     29  N   UNL     1      -2.748   3.806  26.070  0.00  0.00    -0.064 NA
BRANCH  20  21
ATOM     21  C   UNL     1      -4.703   3.677  25.223  0.00  0.00    +0.049 C 
BRANCH  21  22
ATOM     22  C   UNL     1      -5.158   2.994  25.307  0.00  0.00    +0.006 C 
ATOM     23  C   UNL     1      -5.555   2.849  26.015  0.00  0.00    +0.000 C 
ATOM     24  C   UNL     1      -6.010   2.166  26.100  0.00  0.00    +0.000 C 
ATOM     25  C   UNL     1      -6.068   1.629  25.477  0.00  0.00    +0.000 C 
ATOM     26  C   UNL     1      -5.670   1.775  24.768  0.00  0.00    +0.000 C 
ATOM     27  C   UNL     1      -5.215   2.457  24.684  0.00  0.00    +0.000 C 
ENDBRANCH  21  22
ENDBRANCH  20  21
ENDBRANCH  14  18
BRANCH  10   9
ATOM      9  N   UNL     1       0.246   1.595  24.228  0.00  0.00    -0.210 NA
BRANCH   9   8
ATOM      8  C   UNL     1       0.350   0.900  23.796  0.00  0.00    +0.115 C 
BRANCH   8   7
ATOM      4  C   UNL     1       2.536   0.407  22.748  0.00  0.00    +0.048 A 
ATOM      5  C   UNL     1       2.448   1.077  23.221  0.00  0.00    +0.014 A 
ATOM      6  C   UNL     1       1.719   1.241  23.571  0.00  0.00    -0.002 A 
ATOM      7  C   UNL     1       1.078   0.735  23.447  0.00  0.00    -0.005 A 
ATOM     30  C   UNL     1       1.167   0.066  22.973  0.00  0.00    -0.002 A 
ATOM     31  C   UNL     1       1.897  -0.099  22.624  0.00  0.00    +0.014 A 
BRANCH   4   2
ATOM      1  C   UNL     1       3.307   0.067  21.593  0.00  0.00    +0.112 C 
ATOM      2  N   UNL     1       3.266   0.242  22.399  0.00  0.00    -0.304 N 
ATOM      3  C   UNL     1       3.954   0.253  22.854  0.00  0.00    +0.112 C 
ENDBRANCH   4   2
ENDBRANCH   8   7
ENDBRANCH   9   8
ENDBRANCH  10   9
TORSDOF 7
ENDMDL
