MODEL 1
REMARK VINA RESULT:     -11.7      0.000      0.000
REMARK  Name = 
REMARK  5 active torsions:
REMARK  status: ('A' for Active; 'I' for Inactive)
REMARK    1  A    between atoms: C_2  and  C_4
REMARK    2  A    between atoms: C_7  and  C_8
REMARK    3  A    between atoms: C_8  and  N_9
REMARK    4  A    between atoms: N_16  and  C_17
REMARK    5  A    between atoms: C_17  and  C_18
REMARK                            x       y       z     vdW  Elec       q    Type
REMARK                         _______ _______ _______ _____ _____    ______ ____
ROOT
ATOM      9  N   UNL     1      -3.459   1.537  24.160  0.00  0.00    -0.265 NA
ATOM     10  C   UNL     1      -4.209   1.880  24.171  0.00  0.00    +0.104 C 
ATOM     11  C   UNL     1      -4.191   2.514  24.697  0.00  0.00    +0.151 C 
ATOM     12  O   UNL     1      -4.770   3.054  24.931  0.00  0.00    -0.344 OA
ATOM     13  C   UNL     1      -4.587   3.643  25.478  0.00  0.00    +0.227 C 
ATOM     14  C   UNL     1      -3.826   3.694  25.792  0.00  0.00    +0.256 C 
ATOM     15  O   UNL     1      -3.642   4.283  26.340  0.00  0.00    -0.272 OA
ATOM     16  N   UNL     1      -3.247   3.155  25.558  0.00  0.00    -0.271 N 
ATOM     24  C   UNL     1      -3.430   2.565  25.010  0.00  0.00    +0.120 C 
ATOM     25  C   UNL     1      -2.977   1.961  24.678  0.00  0.00    +0.095 C 
ENDROOT
BRANCH   9   8
ATOM      8  C   UNL     1      -3.230   0.885  23.708  0.00  0.00    +0.099 C 
BRANCH   8   7
ATOM      4  C   UNL     1      -3.472  -1.402  24.625  0.00  0.00    +0.080 A 
ATOM      5  C   UNL     1      -2.766  -0.988  24.729  0.00  0.00    +0.006 A 
ATOM      6  C   UNL     1      -2.685  -0.226  24.423  0.00  0.00    -0.003 A 
ATOM      7  C   UNL     1      -3.311   0.122  24.014  0.00  0.00    -0.006 A 
ATOM     26  C   UNL     1      -4.017  -0.291  23.911  0.00  0.00    -0.003 A 
ATOM     27  C   UNL     1      -4.098  -1.052  24.216  0.00  0.00    +0.006 A 
BRANCH   4   2
ATOM      1  O   UNL     1      -3.528  -2.285  25.746  0.00  0.00    -0.241 OA
ATOM      2  C   UNL     1      -3.552  -2.163  24.930  0.00  0.00    +0.388 C 
ATOM      3  O   UNL     1      -3.657  -2.803  24.421  0.00  0.00    -0.241 OA
ENDBRANCH   4   2
ENDBRANCH   8   7
ENDBRANCH   9   8
BRANCH  16  17
ATOM     17  C   UNL     1      -2.485   3.205  25.871  0.00  0.00    +0.122 C 
BRANCH  17  18
ATOM     18  C   UNL     1      -1.935   3.720  25.536  0.00  0.00    +0.017 A 
ATOM     19  C   UNL     1      -1.226   3.425  25.233  0.00  0.00    +0.001 A 
ATOM     20  C   UNL     1      -0.675   3.939  24.898  0.00  0.00    +0.020 A 
ATOM     21  C   UNL     1      -0.833   4.749  24.865  0.00  0.00    +0.099 A 
ATOM     22  N   UNL     1      -1.542   5.044  25.168  0.00  0.00    -0.243 NA
ATOM     23  C   UNL     1      -2.092   4.528  25.503  0.00  0.00    +0.096 A 
ENDBRANCH  17  18
ENDBRANCH  16  17
TORSDOF 5
ENDMDL
MODEL 2
REMARK VINA RESULT:     -11.6      1.363      1.685
REMARK  Name = 
REMARK  5 active torsions:
REMARK  status: ('A' for Active; 'I' for Inactive)
REMARK    1  A    between atoms: C_2  and  C_4
REMARK    2  A    between atoms: C_7  and  C_8
REMARK    3  A    between atoms: C_8  and  N_9
REMARK    4  A    between atoms: N_16  and  C_17
REMARK    5  A    between atoms: C_17  and  C_18
REMARK                            x       y       z     vdW  Elec       q    Type
REMARK                         _______ _______ _______ _____ _____    ______ ____
ROOT
ATOM      9  N   UNL     1      -4.295   1.118  25.007  0.00  0.00    -0.265 NA
ATOM     10  C   UNL     1      -4.642   1.660  24.490  0.00  0.00    +0.104 C 
ATOM     11  C   UNL     1      -4.131   2.303  24.417  0.00  0.00    +0.151 C 
ATOM     12  O   UNL     1      -4.183   3.003  23.982  0.00  0.00    -0.344 OA
ATOM     13  C   UNL     1      -3.574   3.557  24.018  0.00  0.00    +0.227 C 
ATOM     14  C   UNL     1      -2.912   3.412  24.489  0.00  0.00    +0.256 C 
ATOM     15  O   UNL     1      -2.301   3.967  24.525  0.00  0.00    -0.272 OA
ATOM     16  N   UNL     1      -2.859   2.714  24.924  0.00  0.00    -0.271 N 
ATOM     24  C   UNL     1      -3.469   2.159  24.888  0.00  0.00    +0.120 C 
ATOM     25  C   UNL     1      -3.571   1.426  25.252  0.00  0.00    +0.095 C 
ENDROOT
BRANCH   9   8
ATOM      8  C   UNL     1      -4.617   0.394  25.237  0.00  0.00    +0.099 C 
BRANCH   8   7
ATOM      4  C   UNL     1      -3.485  -1.719  24.616  0.00  0.00    +0.080 A 
ATOM      5  C   UNL     1      -3.429  -1.432  25.388  0.00  0.00    +0.006 A 
ATOM      6  C   UNL     1      -3.806  -0.727  25.595  0.00  0.00    -0.003 A 
ATOM      7  C   UNL     1      -4.240  -0.311  25.030  0.00  0.00    -0.006 A 
ATOM     26  C   UNL     1      -4.296  -0.598  24.259  0.00  0.00    -0.003 A 
ATOM     27  C   UNL     1      -3.919  -1.301  24.052  0.00  0.00    +0.006 A 
BRANCH   4   2
ATOM      1  O   UNL     1      -3.543  -3.121  24.350  0.00  0.00    -0.241 OA
ATOM      2  C   UNL     1      -3.109  -2.422  24.410  0.00  0.00    +0.388 C 
ATOM      3  O   UNL     1      -2.297  -2.428  24.263  0.00  0.00    -0.241 OA
ENDBRANCH   4   2
ENDBRANCH   8   7
ENDBRANCH   9   8
BRANCH  16  17
ATOM     17  C   UNL     1      -2.197   2.569  25.394  0.00  0.00    +0.122 C 
BRANCH  17  18
ATOM     18  C   UNL     1      -1.540   2.184  25.075  0.00  0.00    +0.017 A 
ATOM     19  C   UNL     1      -1.166   1.586  25.501  0.00  0.00    +0.001 A 
ATOM     20  C   UNL     1      -0.510   1.200  25.183  0.00  0.00    +0.020 A 
ATOM     21  C   UNL     1      -0.228   1.414  24.437  0.00  0.00    +0.099 A 
ATOM     22  N   UNL     1      -0.602   2.013  24.011  0.00  0.00    -0.243 NA
ATOM     23  C   UNL     1      -1.259   2.398  24.330  0.00  0.00    +0.096 A 
ENDBRANCH  17  18
ENDBRANCH  16  17
TORSDOF 5
ENDMDL
MODEL 3
REMARK VINA RESULT:     -11.6      2.029      4.839
REMARK  Name = 
REMARK  5 active torsions:
REMARK  status: ('A' for Active; 'I' for Inactive)
REMARK    1  A    between atoms: C_2  and  C_4
REMARK    2  A    between atoms: C_7  and  C_8
REMARK    3  A    between atoms: C_8  and  N_9
REMARK    4  A    between atoms: N_16  and  C_17
REMARK    5  A    between atoms: C_17  and  C_18
REMARK                            x       y       z     vdW  Elec       q    Type
REMARK                         _______ _______ _______ _____ _____    ______ ____
ROOT
ATOM      9  N   UNL     1      -2.859   1.246  23.929  0.00  0.00    -0.265 NA
ATOM     10  C   UNL     1      -2.070   1.405  23.746  0.00  0.00    +0.104 C 
ATOM     11  C   UNL     1      -1.602   0.850  24.136  0.00  0.00    +0.151 C 
ATOM     12  O   UNL     1      -0.785   0.736  24.161  0.00  0.00    -0.344 OA
ATOM     13  C   UNL     1      -0.467   0.121  24.609  0.00  0.00    +0.227 C 
ATOM     14  C   UNL     1      -0.967  -0.381  25.033  0.00  0.00    +0.256 C 
ATOM     15  O   UNL     1      -0.649  -0.997  25.482  0.00  0.00    -0.272 OA
ATOM     16  N   UNL     1      -1.783  -0.268  25.009  0.00  0.00    -0.271 N 
ATOM     24  C   UNL     1      -2.101   0.348  24.560  0.00  0.00    +0.120 C 
ATOM     25  C   UNL     1      -2.878   0.593  24.432  0.00  0.00    +0.095 C 
ENDROOT
BRANCH   9   8
ATOM      8  C   UNL     1      -3.514   1.667  23.655  0.00  0.00    +0.099 C 
BRANCH   8   7
ATOM      4  C   UNL     1      -4.980   2.853  25.259  0.00  0.00    +0.080 A 
ATOM      5  C   UNL     1      -4.289   3.213  24.988  0.00  0.00    +0.006 A 
ATOM      6  C   UNL     1      -3.800   2.818  24.453  0.00  0.00    -0.003 A 
ATOM      7  C   UNL     1      -4.003   2.063  24.190  0.00  0.00    -0.006 A 
ATOM     26  C   UNL     1      -4.694   1.703  24.462  0.00  0.00    -0.003 A 
ATOM     27  C   UNL     1      -5.182   2.098  24.996  0.00  0.00    +0.006 A 
BRANCH   4   2
ATOM      1  O   UNL     1      -5.745   2.858  26.466  0.00  0.00    -0.241 OA
ATOM      2  C   UNL     1      -5.468   3.249  25.793  0.00  0.00    +0.388 C 
ATOM      3  O   UNL     1      -5.680   4.033  25.656  0.00  0.00    -0.241 OA
ENDBRANCH   4   2
ENDBRANCH   8   7
ENDBRANCH   9   8
BRANCH  16  17
ATOM     17  C   UNL     1      -2.283  -0.769  25.433  0.00  0.00    +0.122 C 
BRANCH  17  18
ATOM     18  C   UNL     1      -2.572  -1.457  25.080  0.00  0.00    +0.017 A 
ATOM     19  C   UNL     1      -3.379  -1.629  25.113  0.00  0.00    +0.001 A 
ATOM     20  C   UNL     1      -3.670  -2.315  24.761  0.00  0.00    +0.020 A 
ATOM     21  C   UNL     1      -3.153  -2.831  24.374  0.00  0.00    +0.099 A 
ATOM     22  N   UNL     1      -2.347  -2.659  24.341  0.00  0.00    -0.243 NA
ATOM     23  C   UNL     1      -2.057  -1.972  24.694  0.00  0.00    +0.096 A 
ENDBRANCH  17  18
ENDBRANCH  16  17
TORSDOF 5
ENDMDL
MODEL 4
REMARK VINA RESULT:     -11.4      1.692      4.127
REMARK  Name = 
REMARK  5 active torsions:
REMARK  status: ('A' for Active; 'I' for Inactive)
REMARK    1  A    between atoms: C_2  and  C_4
REMARK    2  A    between atoms: C_7  and  C_8
REMARK    3  A    between atoms: C_8  and  N_9
REMARK    4  A    between atoms: N_16  and  C_17
REMARK    5  A    between atoms: C_17  and  C_18
REMARK                            x       y       z     vdW  Elec       q    Type
REMARK                         _______ _______ _______ _____ _____    ______ ____
ROOT
ATOM      9  N   UNL     1      -3.302   3.707  25.187  0.00  0.00    -0.265 NA
ATOM     10  C   UNL     1      -3.881   3.931  25.732  0.00  0.00    +0.104 C 
ATOM     11  C   UNL     1      -4.515   3.409  25.658  0.00  0.00    +0.151 C 
ATOM     12  O   UNL     1      -5.238   3.360  26.052  0.00  0.00    -0.344 OA
ATOM     13  C   UNL     1      -5.775   2.766  25.856  0.00  0.00    +0.227 C 
ATOM     14  C   UNL     1      -5.589   2.220  25.266  0.00  0.00    +0.256 C 
ATOM     15  O   UNL     1      -6.126   1.624  25.070  0.00  0.00    -0.272 OA
ATOM     16  N   UNL     1      -4.866   2.268  24.872  0.00  0.00    -0.271 N 
ATOM     24  C   UNL     1      -4.329   2.863  25.068  0.00  0.00    +0.120 C 
ATOM     25  C   UNL     1      -3.579   3.048  24.777  0.00  0.00    +0.095 C 
ENDROOT
BRANCH   9   8
ATOM      8  C   UNL     1      -2.575   4.079  25.073  0.00  0.00    +0.099 C 
BRANCH   8   7
ATOM      4  C   UNL     1      -0.473   2.850  25.522  0.00  0.00    +0.080 A 
ATOM      5  C   UNL     1      -0.681   3.042  24.747  0.00  0.00    +0.006 A 
ATOM      6  C   UNL     1      -1.382   3.452  24.597  0.00  0.00    -0.003 A 
ATOM      7  C   UNL     1      -1.873   3.669  25.222  0.00  0.00    -0.006 A 
ATOM     26  C   UNL     1      -1.665   3.477  25.997  0.00  0.00    -0.003 A 
ATOM     27  C   UNL     1      -0.965   3.068  26.147  0.00  0.00    +0.006 A 
BRANCH   4   2
ATOM      1  O   UNL     1       0.594   2.507  26.407  0.00  0.00    -0.241 OA
ATOM      2  C   UNL     1       0.227   2.441  25.671  0.00  0.00    +0.388 C 
ATOM      3  O   UNL     1       0.561   1.967  25.085  0.00  0.00    -0.241 OA
ENDBRANCH   4   2
ENDBRANCH   8   7
ENDBRANCH   9   8
BRANCH  16  17
ATOM     17  C   UNL     1      -4.680   1.722  24.282  0.00  0.00    +0.122 C 
BRANCH  17  18
ATOM     18  C   UNL     1      -4.307   1.013  24.480  0.00  0.00    +0.017 A 
ATOM     19  C   UNL     1      -3.670   0.743  24.030  0.00  0.00    +0.001 A 
ATOM     20  C   UNL     1      -3.297   0.034  24.226  0.00  0.00    +0.020 A 
ATOM     21  C   UNL     1      -3.560  -0.405  24.874  0.00  0.00    +0.099 A 
ATOM     22  N   UNL     1      -4.197  -0.135  25.324  0.00  0.00    -0.243 NA
ATOM     23  C   UNL     1      -4.570   0.574  25.126  0.00  0.00    +0.096 A 
ENDBRANCH  17  18
ENDBRANCH  16  17
TORSDOF 5
ENDMDL
MODEL 5
REMARK VINA RESULT:     -11.3      1.834      2.855
REMARK  Name = 
REMARK  5 active torsions:
REMARK  status: ('A' for Active; 'I' for Inactive)
REMARK    1  A    between atoms: C_2  and  C_4
REMARK    2  A    between atoms: C_7  and  C_8
REMARK    3  A    between atoms: C_8  and  N_9
REMARK    4  A    between atoms: N_16  and  C_17
REMARK    5  A    between atoms: C_17  and  C_18
REMARK                            x       y       z     vdW  Elec       q    Type
REMARK                         _______ _______ _______ _____ _____    ______ ____
ROOT
ATOM      9  N   UNL     1      -1.314   0.086  25.471  0.00  0.00    -0.265 NA
ATOM     10  C   UNL     1      -0.614   0.171  25.042  0.00  0.00    +0.104 C 
ATOM     11  C   UNL     1      -0.556   0.958  24.803  0.00  0.00    +0.151 C 
ATOM     12  O   UNL     1       0.016   1.363  24.366  0.00  0.00    -0.344 OA
ATOM     13  C   UNL     1      -0.076   2.167  24.210  0.00  0.00    +0.227 C 
ATOM     14  C   UNL     1      -0.740   2.568  24.491  0.00  0.00    +0.256 C 
ATOM     15  O   UNL     1      -0.833   3.374  24.335  0.00  0.00    -0.272 OA
ATOM     16  N   UNL     1      -1.312   2.165  24.928  0.00  0.00    -0.271 N 
ATOM     24  C   UNL     1      -1.220   1.360  25.084  0.00  0.00    +0.120 C 
ATOM     25  C   UNL     1      -1.688   0.821  25.496  0.00  0.00    +0.095 C 
ENDROOT
BRANCH   9   8
ATOM      8  C   UNL     1      -1.591  -0.611  25.813  0.00  0.00    +0.099 C 
BRANCH   8   7
ATOM      4  C   UNL     1      -3.276  -1.987  24.631  0.00  0.00    +0.080 A 
ATOM      5  C   UNL     1      -3.516  -1.443  25.203  0.00  0.00    +0.006 A 
ATOM      6  C   UNL     1      -2.954  -0.984  25.598  0.00  0.00    -0.003 A 
ATOM      7  C   UNL     1      -2.153  -1.070  25.419  0.00  0.00    -0.006 A 
ATOM     26  C   UNL     1      -1.914  -1.615  24.847  0.00  0.00    -0.003 A 
ATOM     27  C   UNL     1      -2.475  -2.073  24.454  0.00  0.00    +0.006 A 
BRANCH   4   2
ATOM      1  O   UNL     1      -3.821  -3.267  24.308  0.00  0.00    -0.241 OA
ATOM      2  C   UNL     1      -3.838  -2.445  24.238  0.00  0.00    +0.388 C 
ATOM      3  O   UNL     1      -4.415  -2.082  23.775  0.00  0.00    -0.241 OA
ENDBRANCH   4   2
ENDBRANCH   8   7
ENDBRANCH   9   8
BRANCH  16  17
ATOM     17  C   UNL     1      -1.976   2.567  25.209  0.00  0.00    +0.122 C 
BRANCH  17  18
ATOM     18  C   UNL     1      -2.660   2.604  24.749  0.00  0.00    +0.017 A 
ATOM     19  C   UNL     1      -3.400   2.513  25.102  0.00  0.00    +0.001 A 
ATOM     20  C   UNL     1      -4.084   2.550  24.643  0.00  0.00    +0.020 A 
ATOM     21  C   UNL     1      -4.028   2.679  23.830  0.00  0.00    +0.099 A 
ATOM     22  N   UNL     1      -3.289   2.770  23.476  0.00  0.00    -0.243 NA
ATOM     23  C   UNL     1      -2.605   2.733  23.936  0.00  0.00    +0.096 A 
ENDBRANCH  17  18
ENDBRANCH  16  17
TORSDOF 5
ENDMDL
MODEL 6
REMARK VINA RESULT:     -11.1      1.058      2.507
REMARK  Name = 
REMARK  5 active torsions:
REMARK  status: ('A' for Active; 'I' for Inactive)
REMARK    1  A    between atoms: C_2  and  C_4
REMARK    2  A    between atoms: C_7  and  C_8
REMARK    3  A    between atoms: C_8  and  N_9
REMARK    4  A    between atoms: N_16  and  C_17
REMARK    5  A    between atoms: C_17  and  C_18
REMARK                            x       y       z     vdW  Elec       q    Type
REMARK                         _______ _______ _______ _____ _____    ______ ____
ROOT
ATOM      9  N   UNL     1      -2.327   1.288  24.290  0.00  0.00    -0.265 NA
ATOM     10  C   UNL     1      -1.768   1.606  24.807  0.00  0.00    +0.104 C 
ATOM     11  C   UNL     1      -2.075   2.307  25.114  0.00  0.00    +0.151 C 
ATOM     12  O   UNL     1      -1.771   2.856  25.649  0.00  0.00    -0.344 OA
ATOM     13  C   UNL     1      -2.214   3.520  25.856  0.00  0.00    +0.227 C 
ATOM     14  C   UNL     1      -2.963   3.635  25.529  0.00  0.00    +0.256 C 
ATOM     15  O   UNL     1      -3.407   4.299  25.736  0.00  0.00    -0.272 OA
ATOM     16  N   UNL     1      -3.268   3.087  24.993  0.00  0.00    -0.271 N 
ATOM     24  C   UNL     1      -2.824   2.422  24.786  0.00  0.00    +0.120 C 
ATOM     25  C   UNL     1      -2.979   1.792  24.277  0.00  0.00    +0.095 C 
ENDROOT
BRANCH   9   8
ATOM      8  C   UNL     1      -2.246   0.588  23.861  0.00  0.00    +0.099 C 
BRANCH   8   7
ATOM      4  C   UNL     1      -3.155  -1.530  24.766  0.00  0.00    +0.080 A 
ATOM      5  C   UNL     1      -3.612  -1.070  24.256  0.00  0.00    +0.006 A 
ATOM      6  C   UNL     1      -3.309  -0.364  23.954  0.00  0.00    -0.003 A 
ATOM      7  C   UNL     1      -2.549  -0.119  24.163  0.00  0.00    -0.006 A 
ATOM     26  C   UNL     1      -2.093  -0.579  24.673  0.00  0.00    -0.003 A 
ATOM     27  C   UNL     1      -2.395  -1.284  24.974  0.00  0.00    +0.006 A 
BRANCH   4   2
ATOM      1  O   UNL     1      -3.651  -2.853  24.556  0.00  0.00    -0.241 OA
ATOM      2  C   UNL     1      -3.458  -2.235  25.067  0.00  0.00    +0.388 C 
ATOM      3  O   UNL     1      -3.567  -2.323  25.880  0.00  0.00    -0.241 OA
ENDBRANCH   4   2
ENDBRANCH   8   7
ENDBRANCH   9   8
BRANCH  16  17
ATOM     17  C   UNL     1      -4.016   3.202  24.665  0.00  0.00    +0.122 C 
BRANCH  17  18
ATOM     18  C   UNL     1      -4.685   2.917  25.055  0.00  0.00    +0.017 A 
ATOM     19  C   UNL     1      -5.165   2.353  24.692  0.00  0.00    +0.001 A 
ATOM     20  C   UNL     1      -5.834   2.068  25.081  0.00  0.00    +0.020 A 
ATOM     21  C   UNL     1      -6.023   2.347  25.834  0.00  0.00    +0.099 A 
ATOM     22  N   UNL     1      -5.543   2.911  26.198  0.00  0.00    -0.243 NA
ATOM     23  C   UNL     1      -4.874   3.196  25.808  0.00  0.00    +0.096 A 
ENDBRANCH  17  18
ENDBRANCH  16  17
TORSDOF 5
ENDMDL
MODEL 7
REMARK VINA RESULT:     -11.1      1.646      4.732
REMARK  Name = 
REMARK  5 active torsions:
REMARK  status: ('A' for Active; 'I' for Inactive)
REMARK    1  A    between atoms: C_2  and  C_4
REMARK    2  A    between atoms: C_7  and  C_8
REMARK    3  A    between atoms: C_8  and  N_9
REMARK    4  A    between atoms: N_16  and  C_17
REMARK    5  A    between atoms: C_17  and  C_18
REMARK                            x       y       z     vdW  Elec       q    Type
REMARK                         _______ _______ _______ _____ _____    ______ ____
ROOT
ATOM      9  N   UNL     1      -1.170   0.855  25.013  0.00  0.00    -0.265 NA
ATOM     10  C   UNL     1      -1.146   0.208  25.525  0.00  0.00    +0.104 C 
ATOM     11  C   UNL     1      -1.866  -0.188  25.469  0.00  0.00    +0.151 C 
ATOM     12  O   UNL     1      -2.156  -0.863  25.844  0.00  0.00    -0.344 OA
ATOM     13  C   UNL     1      -2.915  -1.137  25.674  0.00  0.00    +0.227 C 
ATOM     14  C   UNL     1      -3.385  -0.736  25.127  0.00  0.00    +0.256 C 
ATOM     15  O   UNL     1      -4.145  -1.009  24.956  0.00  0.00    -0.272 OA
ATOM     16  N   UNL     1      -3.096  -0.061  24.751  0.00  0.00    -0.271 N 
ATOM     24  C   UNL     1      -2.336   0.213  24.922  0.00  0.00    +0.120 C 
ATOM     25  C   UNL     1      -1.906   0.858  24.641  0.00  0.00    +0.095 C 
ENDROOT
BRANCH   9   8
ATOM      8  C   UNL     1      -0.565   1.403  24.895  0.00  0.00    +0.099 C 
BRANCH   8   7
ATOM      4  C   UNL     1      -1.030   3.826  25.099  0.00  0.00    +0.080 A 
ATOM      5  C   UNL     1      -0.908   3.491  24.355  0.00  0.00    +0.006 A 
ATOM      6  C   UNL     1      -0.753   2.683  24.287  0.00  0.00    -0.003 A 
ATOM      7  C   UNL     1      -0.720   2.211  24.963  0.00  0.00    -0.006 A 
ATOM     26  C   UNL     1      -0.842   2.547  25.707  0.00  0.00    -0.003 A 
ATOM     27  C   UNL     1      -0.997   3.354  25.774  0.00  0.00    +0.006 A 
BRANCH   4   2
ATOM      1  O   UNL     1      -1.900   4.890  25.488  0.00  0.00    -0.241 OA
ATOM      2  C   UNL     1      -1.185   4.633  25.166  0.00  0.00    +0.388 C 
ATOM      3  O   UNL     1      -0.625   5.183  24.913  0.00  0.00    -0.241 OA
ENDBRANCH   4   2
ENDBRANCH   8   7
ENDBRANCH   9   8
BRANCH  16  17
ATOM     17  C   UNL     1      -3.566   0.341  24.205  0.00  0.00    +0.122 C 
BRANCH  17  18
ATOM     18  C   UNL     1      -4.087   0.928  24.461  0.00  0.00    +0.017 A 
ATOM     19  C   UNL     1      -4.070   1.674  24.111  0.00  0.00    +0.001 A 
ATOM     20  C   UNL     1      -4.590   2.262  24.367  0.00  0.00    +0.020 A 
ATOM     21  C   UNL     1      -5.127   2.102  24.974  0.00  0.00    +0.099 A 
ATOM     22  N   UNL     1      -5.143   1.355  25.324  0.00  0.00    -0.243 NA
ATOM     23  C   UNL     1      -4.622   0.768  25.067  0.00  0.00    +0.096 A 
ENDBRANCH  17  18
ENDBRANCH  16  17
TORSDOF 5
ENDMDL
