MODEL 1
REMARK VINA RESULT:      -8.1      0.000      0.000
REMARK  Name = 
REMARK  5 active torsions:
REMARK  status: ('A' for Active; 'I' for Inactive)
REMARK    1  A    between atoms: C_2  and  N_4
REMARK    2  A    between atoms: N_4  and  C_5
REMARK    3  A    between atoms: C_8  and  C_9
REMARK    4  A    between atoms: C_9  and  N_10
REMARK    5  A    between atoms: C_11  and  C_13
REMARK                            x       y       z     vdW  Elec       q    Type
REMARK                         _______ _______ _______ _____ _____    ______ ____
ROOT
ATOM      5  C   UNL     1      -2.975   2.832  24.827  0.00  0.00    +0.135 C 
ATOM      6  C   UNL     1      -2.353   2.329  25.028  0.00  0.00    +0.162 C 
ATOM      7  O   UNL     1      -2.609   1.551  24.919  0.00  0.00    -0.350 OA
ATOM      8  C   UNL     1      -3.389   1.575  24.650  0.00  0.00    +0.169 C 
ATOM     18  C   UNL     1      -3.614   2.366  24.594  0.00  0.00    +0.199 C 
ATOM     19  O   UNL     1      -4.351   2.644  24.347  0.00  0.00    -0.219 OA
ENDROOT
BRANCH   5   4
ATOM      4  N   UNL     1      -2.960   3.657  24.854  0.00  0.00    -0.216 NA
BRANCH   4   2
ATOM      1  C   UNL     1      -2.683   4.185  26.152  0.00  0.00    +0.019 C 
ATOM      2  C   UNL     1      -2.449   4.042  25.374  0.00  0.00    +0.073 C 
ATOM      3  C   UNL     1      -1.703   4.285  25.116  0.00  0.00    +0.019 C 
ENDBRANCH   4   2
ENDBRANCH   5   4
BRANCH   8   9
ATOM      9  C   UNL     1      -3.860   0.922  24.470  0.00  0.00    +0.148 C 
BRANCH   9  10
ATOM     10  N   UNL     1      -3.589   0.161  24.634  0.00  0.00    -0.199 NA
ATOM     11  C   UNL     1      -4.087  -0.488  24.519  0.00  0.00    +0.271 C 
ATOM     12  O   UNL     1      -4.855  -0.373  24.240  0.00  0.00    -0.268 OA
BRANCH  11  13
ATOM     13  C   UNL     1      -3.816  -1.249  24.683  0.00  0.00    +0.084 A 
ATOM     14  C   UNL     1      -3.533  -1.516  25.411  0.00  0.00    +0.012 A 
ATOM     15  C   UNL     1      -3.322  -2.309  25.328  0.00  0.00    +0.008 A 
ATOM     16  C   UNL     1      -3.474  -2.533  24.548  0.00  0.00    +0.036 A 
ATOM     17  S   UNL     1      -3.780  -1.878  24.151  0.00  0.00    -0.082 S 
ENDBRANCH  11  13
ENDBRANCH   9  10
ENDBRANCH   8   9
TORSDOF 5
ENDMDL
MODEL 2
REMARK VINA RESULT:      -7.9      1.766      4.650
REMARK  Name = 
REMARK  5 active torsions:
REMARK  status: ('A' for Active; 'I' for Inactive)
REMARK    1  A    between atoms: C_2  and  N_4
REMARK    2  A    between atoms: N_4  and  C_5
REMARK    3  A    between atoms: C_8  and  C_9
REMARK    4  A    between atoms: C_9  and  N_10
REMARK    5  A    between atoms: C_11  and  C_13
REMARK                            x       y       z     vdW  Elec       q    Type
REMARK                         _______ _______ _______ _____ _____    ______ ____
ROOT
ATOM      5  C   UNL     1      -3.912   0.002  24.586  0.00  0.00    +0.135 C 
ATOM      6  C   UNL     1      -3.149   0.051  24.276  0.00  0.00    +0.162 C 
ATOM      7  O   UNL     1      -2.934   0.848  24.252  0.00  0.00    -0.350 OA
ATOM      8  C   UNL     1      -3.564   1.291  24.547  0.00  0.00    +0.169 C 
ATOM     18  C   UNL     1      -4.168   0.768  24.753  0.00  0.00    +0.199 C 
ATOM     19  O   UNL     1      -4.901   0.976  25.072  0.00  0.00    -0.219 OA
ENDROOT
BRANCH   5   4
ATOM      4  N   UNL     1      -4.343  -0.691  24.708  0.00  0.00    -0.216 NA
BRANCH   4   2
ATOM      1  C   UNL     1      -4.154  -1.805  23.835  0.00  0.00    +0.019 C 
ATOM      2  C   UNL     1      -3.999  -1.423  24.549  0.00  0.00    +0.073 C 
ATOM      3  C   UNL     1      -3.499  -1.774  25.104  0.00  0.00    +0.019 C 
ENDBRANCH   4   2
ENDBRANCH   5   4
BRANCH   8   9
ATOM      9  C   UNL     1      -3.586   2.112  24.622  0.00  0.00    +0.148 C 
BRANCH   9  10
ATOM     10  N   UNL     1      -2.891   2.532  24.763  0.00  0.00    -0.199 NA
ATOM     11  C   UNL     1      -2.903   3.358  24.772  0.00  0.00    +0.271 C 
ATOM     12  O   UNL     1      -3.609   3.761  24.640  0.00  0.00    -0.268 OA
BRANCH  11  13
ATOM     13  C   UNL     1      -2.207   3.777  24.914  0.00  0.00    +0.084 A 
ATOM     14  C   UNL     1      -1.447   3.541  24.698  0.00  0.00    +0.012 A 
ATOM     15  C   UNL     1      -0.918   4.124  24.946  0.00  0.00    +0.008 A 
ATOM     16  C   UNL     1      -1.352   4.721  25.315  0.00  0.00    +0.036 A 
ATOM     17  S   UNL     1      -2.148   4.506  25.295  0.00  0.00    -0.082 S 
ENDBRANCH  11  13
ENDBRANCH   9  10
ENDBRANCH   8   9
TORSDOF 5
ENDMDL
MODEL 3
REMARK VINA RESULT:      -7.8      1.645      2.171
REMARK  Name = 
REMARK  5 active torsions:
REMARK  status: ('A' for Active; 'I' for Inactive)
REMARK    1  A    between atoms: C_2  and  N_4
REMARK    2  A    between atoms: N_4  and  C_5
REMARK    3  A    between atoms: C_8  and  C_9
REMARK    4  A    between atoms: C_9  and  N_10
REMARK    5  A    between atoms: C_11  and  C_13
REMARK                            x       y       z     vdW  Elec       q    Type
REMARK                         _______ _______ _______ _____ _____    ______ ____
ROOT
ATOM      5  C   UNL     1      -1.269   2.748  25.431  0.00  0.00    +0.135 C 
ATOM      6  C   UNL     1      -1.885   2.587  24.906  0.00  0.00    +0.162 C 
ATOM      7  O   UNL     1      -1.943   1.767  24.824  0.00  0.00    -0.350 OA
ATOM      8  C   UNL     1      -1.362   1.422  25.298  0.00  0.00    +0.169 C 
ATOM     18  C   UNL     1      -0.947   2.029  25.673  0.00  0.00    +0.199 C 
ATOM     19  O   UNL     1      -0.317   1.932  26.198  0.00  0.00    -0.219 OA
ENDROOT
BRANCH   5   4
ATOM      4  N   UNL     1      -1.020   3.497  25.671  0.00  0.00    -0.216 NA
BRANCH   4   2
ATOM      1  C   UNL     1      -0.944   4.605  24.773  0.00  0.00    +0.019 C 
ATOM      2  C   UNL     1      -1.360   4.170  25.338  0.00  0.00    +0.073 C 
ATOM      3  C   UNL     1      -2.115   4.410  25.568  0.00  0.00    +0.019 C 
ENDBRANCH   4   2
ENDBRANCH   5   4
BRANCH   8   9
ATOM      9  C   UNL     1      -1.222   0.614  25.383  0.00  0.00    +0.148 C 
BRANCH   9  10
ATOM     10  N   UNL     1      -1.821   0.072  25.218  0.00  0.00    -0.199 NA
ATOM     11  C   UNL     1      -1.687  -0.736  25.323  0.00  0.00    +0.271 C 
ATOM     12  O   UNL     1      -0.954  -1.000  25.592  0.00  0.00    -0.268 OA
BRANCH  11  13
ATOM     13  C   UNL     1      -2.287  -1.277  25.157  0.00  0.00    +0.084 A 
ATOM     14  C   UNL     1      -3.031  -1.299  25.513  0.00  0.00    +0.012 A 
ATOM     15  C   UNL     1      -3.453  -1.927  25.184  0.00  0.00    +0.008 A 
ATOM     16  C   UNL     1      -2.970  -2.293  24.624  0.00  0.00    +0.036 A 
ATOM     17  S   UNL     1      -2.250  -1.891  24.608  0.00  0.00    -0.082 S 
ENDBRANCH  11  13
ENDBRANCH   9  10
ENDBRANCH   8   9
TORSDOF 5
ENDMDL
MODEL 4
REMARK VINA RESULT:      -7.8      2.070      4.940
REMARK  Name = 
REMARK  5 active torsions:
REMARK  status: ('A' for Active; 'I' for Inactive)
REMARK    1  A    between atoms: C_2  and  N_4
REMARK    2  A    between atoms: N_4  and  C_5
REMARK    3  A    between atoms: C_8  and  C_9
REMARK    4  A    between atoms: C_9  and  N_10
REMARK    5  A    between atoms: C_11  and  C_13
REMARK                            x       y       z     vdW  Elec       q    Type
REMARK                         _______ _______ _______ _____ _____    ______ ____
ROOT
ATOM      5  C   UNL     1      -2.595  -0.501  24.669  0.00  0.00    +0.135 C 
ATOM      6  C   UNL     1      -3.204   0.041  24.791  0.00  0.00    +0.162 C 
ATOM      7  O   UNL     1      -2.866   0.755  25.030  0.00  0.00    -0.350 OA
ATOM      8  C   UNL     1      -2.048   0.654  25.056  0.00  0.00    +0.169 C 
ATOM     18  C   UNL     1      -1.881  -0.122  24.833  0.00  0.00    +0.199 C 
ATOM     19  O   UNL     1      -1.129  -0.461  24.782  0.00  0.00    -0.219 OA
ENDROOT
BRANCH   5   4
ATOM      4  N   UNL     1      -2.684  -1.285  24.426  0.00  0.00    -0.216 NA
BRANCH   4   2
ATOM      1  C   UNL     1      -3.983  -1.531  23.886  0.00  0.00    +0.019 C 
ATOM      2  C   UNL     1      -3.420  -1.651  24.478  0.00  0.00    +0.073 C 
ATOM      3  C   UNL     1      -3.596  -2.137  25.121  0.00  0.00    +0.019 C 
ENDBRANCH   4   2
ENDBRANCH   5   4
BRANCH   8   9
ATOM      9  C   UNL     1      -1.495   1.228  25.267  0.00  0.00    +0.148 C 
BRANCH   9  10
ATOM     10  N   UNL     1      -1.680   2.028  25.190  0.00  0.00    -0.199 NA
ATOM     11  C   UNL     1      -1.169   2.601  25.493  0.00  0.00    +0.271 C 
ATOM     12  O   UNL     1      -0.474   2.373  25.874  0.00  0.00    -0.268 OA
BRANCH  11  13
ATOM     13  C   UNL     1      -1.355   3.400  25.415  0.00  0.00    +0.084 A 
ATOM     14  C   UNL     1      -2.009   3.780  25.744  0.00  0.00    +0.012 A 
ATOM     15  C   UNL     1      -1.979   4.575  25.527  0.00  0.00    +0.008 A 
ATOM     16  C   UNL     1      -1.305   4.688  25.063  0.00  0.00    +0.036 A 
ATOM     17  S   UNL     1      -0.920   3.961  24.995  0.00  0.00    -0.082 S 
ENDBRANCH  11  13
ENDBRANCH   9  10
ENDBRANCH   8   9
TORSDOF 5
ENDMDL
MODEL 5
REMARK VINA RESULT:      -7.7      1.952      4.632
REMARK  Name = 
REMARK  5 active torsions:
REMARK  status: ('A' for Active; 'I' for Inactive)
REMARK    1  A    between atoms: C_2  and  N_4
REMARK    2  A    between atoms: N_4  and  C_5
REMARK    3  A    between atoms: C_8  and  C_9
REMARK    4  A    between atoms: C_9  and  N_10
REMARK    5  A    between atoms: C_11  and  C_13
REMARK                            x       y       z     vdW  Elec       q    Type
REMARK                         _______ _______ _______ _____ _____    ______ ____
ROOT
ATOM      5  C   UNL     1      -3.360  -1.079  24.351  0.00  0.00    +0.135 C 
ATOM      6  C   UNL     1      -4.183  -1.037  24.327  0.00  0.00    +0.162 C 
ATOM      7  O   UNL     1      -4.395  -0.245  24.226  0.00  0.00    -0.350 OA
ATOM      8  C   UNL     1      -3.703   0.201  24.187  0.00  0.00    +0.169 C 
ATOM     18  C   UNL     1      -3.063  -0.315  24.264  0.00  0.00    +0.199 C 
ATOM     19  O   UNL     1      -2.266  -0.102  24.256  0.00  0.00    -0.219 OA
ENDROOT
BRANCH   5   4
ATOM      4  N   UNL     1      -2.912  -1.766  24.444  0.00  0.00    -0.216 NA
BRANCH   4   2
ATOM      1  C   UNL     1      -3.292  -2.619  25.525  0.00  0.00    +0.019 C 
ATOM      2  C   UNL     1      -3.269  -2.457  24.716  0.00  0.00    +0.073 C 
ATOM      3  C   UNL     1      -3.605  -2.987  24.181  0.00  0.00    +0.019 C 
ENDBRANCH   4   2
ENDBRANCH   5   4
BRANCH   8   9
ATOM      9  C   UNL     1      -3.658   1.019  24.088  0.00  0.00    +0.148 C 
BRANCH   9  10
ATOM     10  N   UNL     1      -4.079   1.519  24.590  0.00  0.00    -0.199 NA
ATOM     11  C   UNL     1      -4.138   2.324  24.417  0.00  0.00    +0.271 C 
ATOM     12  O   UNL     1      -3.775   2.627  23.741  0.00  0.00    -0.268 OA
BRANCH  11  13
ATOM     13  C   UNL     1      -4.559   2.823  24.920  0.00  0.00    +0.084 A 
ATOM     14  C   UNL     1      -5.365   2.774  25.087  0.00  0.00    +0.012 A 
ATOM     15  C   UNL     1      -5.554   3.380  25.615  0.00  0.00    +0.008 A 
ATOM     16  C   UNL     1      -4.863   3.803  25.774  0.00  0.00    +0.036 A 
ATOM     17  S   UNL     1      -4.249   3.459  25.345  0.00  0.00    -0.082 S 
ENDBRANCH  11  13
ENDBRANCH   9  10
ENDBRANCH   8   9
TORSDOF 5
ENDMDL
