MODEL 1
REMARK VINA RESULT:     -11.2      0.000      0.000
REMARK  Name = 
REMARK  9 active torsions:
REMARK  status: ('A' for Active; 'I' for Inactive)
REMARK    1  A    between atoms: C_2  and  C_4
REMARK    2  A    between atoms: C_4  and  C_5
REMARK    3  A    between atoms: C_4  and  N_12
REMARK    4  A    between atoms: C_5  and  C_6
REMARK    5  A    between atoms: C_13  and  C_15
REMARK    6  A    between atoms: C_22  and  N_24
REMARK    7  A    between atoms: C_25  and  C_27
REMARK    8  A    between atoms: C_27  and  S_28
REMARK    9  A    between atoms: S_28  and  C_31
REMARK                            x       y       z     vdW  Elec       q    Type
REMARK                         _______ _______ _______ _____ _____    ______ ____
ROOT
ATOM     15  C   UNL     1      -4.278   1.002  24.935  0.00  0.00    +0.200 C 
ATOM     16  O   UNL     1      -3.478   0.863  24.787  0.00  0.00    -0.216 OA
ATOM     17  C   UNL     1      -5.075   0.854  25.086  0.00  0.00    +0.075 C 
ATOM     18  C   UNL     1      -5.601   1.483  25.176  0.00  0.00    +0.187 C 
ATOM     19  O   UNL     1      -6.398   1.335  25.327  0.00  0.00    -0.220 OA
ATOM     20  C   UNL     1      -5.330   2.260  25.114  0.00  0.00    +0.202 C 
ATOM     21  O   UNL     1      -5.857   2.888  25.204  0.00  0.00    -0.219 OA
ATOM     22  C   UNL     1      -4.533   2.407  24.963  0.00  0.00    +0.131 C 
ATOM     23  C   UNL     1      -4.007   1.779  24.873  0.00  0.00    +0.064 C 
ENDROOT
BRANCH  15  13
ATOM     12  N   UNL     1      -3.731  -0.237  24.479  0.00  0.00    -0.195 NA
ATOM     13  C   UNL     1      -4.271   0.177  24.945  0.00  0.00    +0.269 C 
ATOM     14  O   UNL     1      -4.804  -0.234  25.422  0.00  0.00    -0.271 OA
BRANCH  12   4
ATOM      4  C   UNL     1      -3.723  -1.062  24.489  0.00  0.00    +0.179 C 
BRANCH   4   2
ATOM      1  N   UNL     1      -4.581  -2.135  24.093  0.00  0.00    -0.086 NA
ATOM      2  C   UNL     1      -4.112  -1.484  23.896  0.00  0.00    +0.281 C 
ATOM      3  O   UNL     1      -4.031  -1.258  23.107  0.00  0.00    -0.270 OA
ENDBRANCH   4   2
BRANCH   4   5
ATOM      5  C   UNL     1      -3.329  -1.464  25.091  0.00  0.00    +0.057 C 
BRANCH   5   6
ATOM      6  C   UNL     1      -2.531  -1.657  25.004  0.00  0.00    -0.020 A 
ATOM      7  C   UNL     1      -2.310  -2.290  24.525  0.00  0.00    -0.004 A 
ATOM      8  C   UNL     1      -1.512  -2.484  24.439  0.00  0.00    -0.000 A 
ATOM      9  C   UNL     1      -0.936  -2.044  24.833  0.00  0.00    -0.000 A 
ATOM     10  C   UNL     1      -1.158  -1.410  25.313  0.00  0.00    -0.000 A 
ATOM     11  C   UNL     1      -1.955  -1.217  25.398  0.00  0.00    -0.004 A 
ENDBRANCH   5   6
ENDBRANCH   4   5
ENDBRANCH  12   4
ENDBRANCH  15  13
BRANCH  22  24
ATOM     24  N   UNL     1      -4.262   3.185  24.901  0.00  0.00    -0.203 NA
ATOM     25  C   UNL     1      -3.752   3.490  25.474  0.00  0.00    +0.266 C 
ATOM     26  O   UNL     1      -3.514   3.018  26.107  0.00  0.00    -0.271 OA
BRANCH  25  27
ATOM     27  C   UNL     1      -3.482   4.267  25.412  0.00  0.00    +0.242 C 
BRANCH  27  28
ATOM     28  S   UNL     1      -2.684   4.416  25.270  0.00  0.00    +0.018 S 
ATOM     29  O   UNL     1      -2.532   4.381  26.080  0.00  0.00    -0.168 OA
ATOM     30  O   UNL     1      -2.834   4.452  24.460  0.00  0.00    -0.168 OA
BRANCH  28  31
ATOM     31  C   UNL     1      -1.884   4.566  25.129  0.00  0.00    +0.106 A 
ATOM     32  C   UNL     1      -1.618   5.343  25.051  0.00  0.00    +0.018 A 
ATOM     33  C   UNL     1      -0.819   5.493  24.909  0.00  0.00    +0.001 A 
ATOM     34  C   UNL     1      -0.286   4.865  24.845  0.00  0.00    +0.000 A 
ATOM     35  C   UNL     1      -0.553   4.089  24.923  0.00  0.00    +0.001 A 
ATOM     36  C   UNL     1      -1.352   3.938  25.065  0.00  0.00    +0.018 A 
ENDBRANCH  28  31
ENDBRANCH  27  28
ENDBRANCH  25  27
ENDBRANCH  22  24
TORSDOF 9
ENDMDL
MODEL 2
REMARK VINA RESULT:     -11.2      1.515      5.102
REMARK  Name = 
REMARK  9 active torsions:
REMARK  status: ('A' for Active; 'I' for Inactive)
REMARK    1  A    between atoms: C_2  and  C_4
REMARK    2  A    between atoms: C_4  and  C_5
REMARK    3  A    between atoms: C_4  and  N_12
REMARK    4  A    between atoms: C_5  and  C_6
REMARK    5  A    between atoms: C_13  and  C_15
REMARK    6  A    between atoms: C_22  and  N_24
REMARK    7  A    between atoms: C_25  and  C_27
REMARK    8  A    between atoms: C_27  and  S_28
REMARK    9  A    between atoms: S_28  and  C_31
REMARK                            x       y       z     vdW  Elec       q    Type
REMARK                         _______ _______ _______ _____ _____    ______ ____
ROOT
ATOM     15  C   UNL     1      -3.643   2.476  24.594  0.00  0.00    +0.200 C 
ATOM     16  O   UNL     1      -2.926   2.201  24.293  0.00  0.00    -0.216 OA
ATOM     17  C   UNL     1      -4.200   2.987  24.924  0.00  0.00    +0.075 C 
ATOM     18  C   UNL     1      -4.969   2.724  25.064  0.00  0.00    +0.187 C 
ATOM     19  O   UNL     1      -5.525   3.235  25.394  0.00  0.00    -0.220 OA
ATOM     20  C   UNL     1      -5.182   1.950  24.872  0.00  0.00    +0.202 C 
ATOM     21  O   UNL     1      -5.952   1.688  25.012  0.00  0.00    -0.219 OA
ATOM     22  C   UNL     1      -4.625   1.440  24.542  0.00  0.00    +0.131 C 
ATOM     23  C   UNL     1      -3.856   1.703  24.402  0.00  0.00    +0.064 C 
ENDROOT
BRANCH  15  13
ATOM     12  N   UNL     1      -2.559   3.164  25.221  0.00  0.00    -0.195 NA
ATOM     13  C   UNL     1      -3.181   3.154  24.680  0.00  0.00    +0.269 C 
ATOM     14  O   UNL     1      -3.341   3.823  24.225  0.00  0.00    -0.271 OA
BRANCH  12   4
ATOM      4  C   UNL     1      -2.097   3.842  25.308  0.00  0.00    +0.179 C 
BRANCH   4   2
ATOM      1  N   UNL     1      -2.305   5.245  25.488  0.00  0.00    -0.086 NA
ATOM      2  C   UNL     1      -2.369   4.470  25.768  0.00  0.00    +0.281 C 
ATOM      3  O   UNL     1      -2.706   4.326  26.507  0.00  0.00    -0.270 OA
ENDBRANCH   4   2
BRANCH   4   5
ATOM      5  C   UNL     1      -1.363   3.892  24.935  0.00  0.00    +0.057 C 
BRANCH   5   6
ATOM      6  C   UNL     1      -0.755   3.376  25.149  0.00  0.00    -0.020 A 
ATOM      7  C   UNL     1      -0.587   3.244  25.945  0.00  0.00    -0.004 A 
ATOM      8  C   UNL     1       0.021   2.729  26.159  0.00  0.00    -0.000 A 
ATOM      9  C   UNL     1       0.461   2.346  25.576  0.00  0.00    -0.000 A 
ATOM     10  C   UNL     1       0.293   2.478  24.778  0.00  0.00    -0.000 A 
ATOM     11  C   UNL     1      -0.315   2.993  24.566  0.00  0.00    -0.004 A 
ENDBRANCH   5   6
ENDBRANCH   4   5
ENDBRANCH  12   4
ENDBRANCH  15  13
BRANCH  22  24
ATOM     24  N   UNL     1      -4.838   0.666  24.350  0.00  0.00    -0.203 NA
ATOM     25  C   UNL     1      -4.477   0.032  24.737  0.00  0.00    +0.266 C 
ATOM     26  O   UNL     1      -3.904   0.172  25.313  0.00  0.00    -0.271 OA
BRANCH  25  27
ATOM     27  C   UNL     1      -4.690  -0.742  24.545  0.00  0.00    +0.242 C 
BRANCH  27  28
ATOM     28  S   UNL     1      -4.115  -1.332  24.510  0.00  0.00    +0.018 S 
ATOM     29  O   UNL     1      -4.151  -1.319  23.687  0.00  0.00    -0.168 OA
ATOM     30  O   UNL     1      -4.079  -1.346  25.335  0.00  0.00    -0.168 OA
BRANCH  28  31
ATOM     31  C   UNL     1      -3.540  -1.922  24.475  0.00  0.00    +0.106 A 
ATOM     32  C   UNL     1      -2.740  -1.721  24.514  0.00  0.00    +0.018 A 
ATOM     33  C   UNL     1      -2.165  -2.311  24.479  0.00  0.00    +0.001 A 
ATOM     34  C   UNL     1      -2.388  -3.102  24.405  0.00  0.00    +0.000 A 
ATOM     35  C   UNL     1      -3.187  -3.303  24.366  0.00  0.00    +0.001 A 
ATOM     36  C   UNL     1      -3.764  -2.713  24.401  0.00  0.00    +0.018 A 
ENDBRANCH  28  31
ENDBRANCH  27  28
ENDBRANCH  25  27
ENDBRANCH  22  24
TORSDOF 9
ENDMDL
MODEL 3
REMARK VINA RESULT:     -11.1      2.276      6.010
REMARK  Name = 
REMARK  9 active torsions:
REMARK  status: ('A' for Active; 'I' for Inactive)
REMARK    1  A    between atoms: C_2  and  C_4
REMARK    2  A    between atoms: C_4  and  C_5
REMARK    3  A    between atoms: C_4  and  N_12
REMARK    4  A    between atoms: C_5  and  C_6
REMARK    5  A    between atoms: C_13  and  C_15
REMARK    6  A    between atoms: C_22  and  N_24
REMARK    7  A    between atoms: C_25  and  C_27
REMARK    8  A    between atoms: C_27  and  S_28
REMARK    9  A    between atoms: S_28  and  C_31
REMARK                            x       y       z     vdW  Elec       q    Type
REMARK                         _______ _______ _______ _____ _____    ______ ____
ROOT
ATOM     15  C   UNL     1      -1.318   1.961  24.344  0.00  0.00    +0.200 C 
ATOM     16  O   UNL     1      -2.127   1.802  24.362  0.00  0.00    -0.216 OA
ATOM     17  C   UNL     1      -0.611   2.387  24.353  0.00  0.00    +0.075 C 
ATOM     18  C   UNL     1       0.109   1.991  24.292  0.00  0.00    +0.187 C 
ATOM     19  O   UNL     1       0.816   2.416  24.300  0.00  0.00    -0.220 OA
ATOM     20  C   UNL     1       0.124   1.168  24.223  0.00  0.00    +0.202 C 
ATOM     21  O   UNL     1       0.846   0.773  24.162  0.00  0.00    -0.219 OA
ATOM     22  C   UNL     1      -0.583   0.743  24.214  0.00  0.00    +0.131 C 
ATOM     23  C   UNL     1      -1.303   1.139  24.275  0.00  0.00    +0.064 C 
ENDROOT
BRANCH  15  13
ATOM     12  N   UNL     1      -2.179   2.897  24.995  0.00  0.00    -0.195 NA
ATOM     13  C   UNL     1      -1.614   2.728  24.420  0.00  0.00    +0.269 C 
ATOM     14  O   UNL     1      -1.344   3.325  23.918  0.00  0.00    -0.271 OA
BRANCH  12   4
ATOM      4  C   UNL     1      -2.475   3.664  25.071  0.00  0.00    +0.179 C 
BRANCH   4   2
ATOM      1  N   UNL     1      -1.890   4.954  25.258  0.00  0.00    -0.086 NA
ATOM      2  C   UNL     1      -2.088   4.209  25.553  0.00  0.00    +0.281 C 
ATOM      3  O   UNL     1      -1.899   4.011  26.331  0.00  0.00    -0.270 OA
ENDBRANCH   4   2
BRANCH   4   5
ATOM      5  C   UNL     1      -3.158   3.884  24.664  0.00  0.00    +0.057 C 
BRANCH   5   6
ATOM      6  C   UNL     1      -3.898   3.643  24.938  0.00  0.00    -0.020 A 
ATOM      7  C   UNL     1      -4.145   3.848  25.697  0.00  0.00    -0.004 A 
ATOM      8  C   UNL     1      -4.885   3.607  25.970  0.00  0.00    -0.000 A 
ATOM      9  C   UNL     1      -5.378   3.160  25.483  0.00  0.00    -0.000 A 
ATOM     10  C   UNL     1      -5.132   2.954  24.722  0.00  0.00    -0.000 A 
ATOM     11  C   UNL     1      -4.391   3.196  24.450  0.00  0.00    -0.004 A 
ENDBRANCH   5   6
ENDBRANCH   4   5
ENDBRANCH  12   4
ENDBRANCH  15  13
BRANCH  22  24
ATOM     24  N   UNL     1      -0.568  -0.079  24.145  0.00  0.00    -0.203 NA
ATOM     25  C   UNL     1      -0.792  -0.550  24.784  0.00  0.00    +0.266 C 
ATOM     26  O   UNL     1      -1.032  -0.199  25.491  0.00  0.00    -0.271 OA
BRANCH  25  27
ATOM     27  C   UNL     1      -0.777  -1.372  24.715  0.00  0.00    +0.242 C 
BRANCH  27  28
ATOM     28  S   UNL     1      -1.483  -1.798  24.694  0.00  0.00    +0.018 S 
ATOM     29  O   UNL     1      -1.426  -1.854  23.873  0.00  0.00    -0.168 OA
ATOM     30  O   UNL     1      -1.542  -1.743  25.515  0.00  0.00    -0.168 OA
BRANCH  28  31
ATOM     31  C   UNL     1      -2.190  -2.224  24.672  0.00  0.00    +0.106 A 
ATOM     32  C   UNL     1      -2.840  -1.966  25.111  0.00  0.00    +0.018 A 
ATOM     33  C   UNL     1      -3.546  -2.392  25.089  0.00  0.00    +0.001 A 
ATOM     34  C   UNL     1      -3.603  -3.075  24.629  0.00  0.00    +0.000 A 
ATOM     35  C   UNL     1      -2.954  -3.332  24.191  0.00  0.00    +0.001 A 
ATOM     36  C   UNL     1      -2.246  -2.906  24.212  0.00  0.00    +0.018 A 
ENDBRANCH  28  31
ENDBRANCH  27  28
ENDBRANCH  25  27
ENDBRANCH  22  24
TORSDOF 9
ENDMDL
MODEL 4
REMARK VINA RESULT:     -10.8      2.041      3.628
REMARK  Name = 
REMARK  9 active torsions:
REMARK  status: ('A' for Active; 'I' for Inactive)
REMARK    1  A    between atoms: C_2  and  C_4
REMARK    2  A    between atoms: C_4  and  C_5
REMARK    3  A    between atoms: C_4  and  N_12
REMARK    4  A    between atoms: C_5  and  C_6
REMARK    5  A    between atoms: C_13  and  C_15
REMARK    6  A    between atoms: C_22  and  N_24
REMARK    7  A    between atoms: C_25  and  C_27
REMARK    8  A    between atoms: C_27  and  S_28
REMARK    9  A    between atoms: S_28  and  C_31
REMARK                            x       y       z     vdW  Elec       q    Type
REMARK                         _______ _______ _______ _____ _____    ______ ____
ROOT
ATOM     15  C   UNL     1      -1.219   0.724  24.266  0.00  0.00    +0.200 C 
ATOM     16  O   UNL     1      -1.953   0.346  24.255  0.00  0.00    -0.216 OA
ATOM     17  C   UNL     1      -0.401   0.827  24.299  0.00  0.00    +0.075 C 
ATOM     18  C   UNL     1      -0.080   1.586  24.266  0.00  0.00    +0.187 C 
ATOM     19  O   UNL     1       0.737   1.690  24.299  0.00  0.00    -0.220 OA
ATOM     20  C   UNL     1      -0.577   2.242  24.200  0.00  0.00    +0.202 C 
ATOM     21  O   UNL     1      -0.255   3.001  24.168  0.00  0.00    -0.219 OA
ATOM     22  C   UNL     1      -1.395   2.138  24.168  0.00  0.00    +0.131 C 
ATOM     23  C   UNL     1      -1.715   1.379  24.201  0.00  0.00    +0.064 C 
ENDROOT
BRANCH  15  13
ATOM     12  N   UNL     1      -1.387  -0.583  24.820  0.00  0.00    -0.195 NA
ATOM     13  C   UNL     1      -0.978  -0.063  24.328  0.00  0.00    +0.269 C 
ATOM     14  O   UNL     1      -0.327  -0.329  23.897  0.00  0.00    -0.271 OA
BRANCH  12   4
ATOM      4  C   UNL     1      -1.145  -1.370  24.881  0.00  0.00    +0.179 C 
BRANCH   4   2
ATOM      1  N   UNL     1       0.047  -2.082  25.219  0.00  0.00    -0.086 NA
ATOM      2  C   UNL     1      -0.573  -1.583  25.436  0.00  0.00    +0.281 C 
ATOM      3  O   UNL     1      -0.621  -1.298  26.209  0.00  0.00    -0.270 OA
ENDBRANCH   4   2
BRANCH   4   5
ATOM      5  C   UNL     1      -1.475  -1.943  24.389  0.00  0.00    +0.057 C 
BRANCH   5   6
ATOM      6  C   UNL     1      -2.239  -2.221  24.532  0.00  0.00    -0.020 A 
ATOM      7  C   UNL     1      -2.455  -2.460  25.291  0.00  0.00    -0.004 A 
ATOM      8  C   UNL     1      -3.219  -2.739  25.434  0.00  0.00    -0.000 A 
ATOM      9  C   UNL     1      -3.766  -2.777  24.818  0.00  0.00    -0.000 A 
ATOM     10  C   UNL     1      -3.549  -2.538  24.058  0.00  0.00    -0.000 A 
ATOM     11  C   UNL     1      -2.786  -2.260  23.916  0.00  0.00    -0.004 A 
ENDBRANCH   5   6
ENDBRANCH   4   5
ENDBRANCH  12   4
ENDBRANCH  15  13
BRANCH  22  24
ATOM     24  N   UNL     1      -1.891   2.794  24.102  0.00  0.00    -0.203 NA
ATOM     25  C   UNL     1      -2.379   3.005  24.733  0.00  0.00    +0.266 C 
ATOM     26  O   UNL     1      -2.371   2.562  25.428  0.00  0.00    -0.271 OA
BRANCH  25  27
ATOM     27  C   UNL     1      -2.875   3.661  24.668  0.00  0.00    +0.242 C 
BRANCH  27  28
ATOM     28  S   UNL     1      -3.664   3.608  24.902  0.00  0.00    +0.018 S 
ATOM     29  O   UNL     1      -3.441   3.737  25.686  0.00  0.00    -0.168 OA
ATOM     30  O   UNL     1      -3.889   3.478  24.119  0.00  0.00    -0.168 OA
BRANCH  28  31
ATOM     31  C   UNL     1      -4.453   3.554  25.138  0.00  0.00    +0.106 A 
ATOM     32  C   UNL     1      -4.851   2.832  25.084  0.00  0.00    +0.018 A 
ATOM     33  C   UNL     1      -5.640   2.778  25.319  0.00  0.00    +0.001 A 
ATOM     34  C   UNL     1      -6.031   3.445  25.608  0.00  0.00    +0.000 A 
ATOM     35  C   UNL     1      -5.634   4.166  25.661  0.00  0.00    +0.001 A 
ATOM     36  C   UNL     1      -4.844   4.220  25.426  0.00  0.00    +0.018 A 
ENDBRANCH  28  31
ENDBRANCH  27  28
ENDBRANCH  25  27
ENDBRANCH  22  24
TORSDOF 9
ENDMDL
MODEL 5
REMARK VINA RESULT:     -10.6      2.336      3.510
REMARK  Name = 
REMARK  9 active torsions:
REMARK  status: ('A' for Active; 'I' for Inactive)
REMARK    1  A    between atoms: C_2  and  C_4
REMARK    2  A    between atoms: C_4  and  C_5
REMARK    3  A    between atoms: C_4  and  N_12
REMARK    4  A    between atoms: C_5  and  C_6
REMARK    5  A    between atoms: C_13  and  C_15
REMARK    6  A    between atoms: C_22  and  N_24
REMARK    7  A    between atoms: C_25  and  C_27
REMARK    8  A    between atoms: C_27  and  S_28
REMARK    9  A    between atoms: S_28  and  C_31
REMARK                            x       y       z     vdW  Elec       q    Type
REMARK                         _______ _______ _______ _____ _____    ______ ____
ROOT
ATOM     15  C   UNL     1      -1.013  -0.083  25.185  0.00  0.00    +0.200 C 
ATOM     16  O   UNL     1      -1.459   0.224  25.808  0.00  0.00    -0.216 OA
ATOM     17  C   UNL     1      -0.722  -0.622  24.632  0.00  0.00    +0.075 C 
ATOM     18  C   UNL     1      -0.144  -0.388  24.094  0.00  0.00    +0.187 C 
ATOM     19  O   UNL     1       0.147  -0.926  23.541  0.00  0.00    -0.220 OA
ATOM     20  C   UNL     1       0.145   0.386  24.107  0.00  0.00    +0.202 C 
ATOM     21  O   UNL     1       0.724   0.619  23.568  0.00  0.00    -0.219 OA
ATOM     22  C   UNL     1      -0.147   0.924  24.660  0.00  0.00    +0.131 C 
ATOM     23  C   UNL     1      -0.726   0.689  25.199  0.00  0.00    +0.064 C 
ENDROOT
BRANCH  15  13
ATOM     12  N   UNL     1      -2.275  -0.748  25.286  0.00  0.00    -0.195 NA
ATOM     13  C   UNL     1      -1.456  -0.749  25.387  0.00  0.00    +0.269 C 
ATOM     14  O   UNL     1      -1.080  -1.418  25.692  0.00  0.00    -0.271 OA
BRANCH  12   4
ATOM      4  C   UNL     1      -2.718  -1.414  25.489  0.00  0.00    +0.179 C 
BRANCH   4   2
ATOM      1  N   UNL     1      -3.011  -2.025  26.748  0.00  0.00    -0.086 NA
ATOM      2  C   UNL     1      -3.144  -1.426  26.195  0.00  0.00    +0.281 C 
ATOM      3  O   UNL     1      -3.703  -0.839  26.350  0.00  0.00    -0.270 OA
ENDBRANCH   4   2
BRANCH   4   5
ATOM      5  C   UNL     1      -2.735  -2.067  24.987  0.00  0.00    +0.057 C 
BRANCH   5   6
ATOM      6  C   UNL     1      -3.370  -2.176  24.471  0.00  0.00    -0.020 A 
ATOM      7  C   UNL     1      -3.714  -1.527  24.097  0.00  0.00    -0.004 A 
ATOM      8  C   UNL     1      -4.350  -1.636  23.582  0.00  0.00    -0.000 A 
ATOM      9  C   UNL     1      -4.640  -2.395  23.441  0.00  0.00    -0.000 A 
ATOM     10  C   UNL     1      -4.296  -3.045  23.816  0.00  0.00    -0.000 A 
ATOM     11  C   UNL     1      -3.661  -2.935  24.331  0.00  0.00    -0.004 A 
ENDBRANCH   5   6
ENDBRANCH   4   5
ENDBRANCH  12   4
ENDBRANCH  15  13
BRANCH  22  24
ATOM     24  N   UNL     1       0.142   1.697  24.674  0.00  0.00    -0.203 NA
ATOM     25  C   UNL     1      -0.332   2.317  24.407  0.00  0.00    +0.266 C 
ATOM     26  O   UNL     1      -1.092   2.165  24.126  0.00  0.00    -0.271 OA
BRANCH  25  27
ATOM     27  C   UNL     1      -0.043   3.091  24.420  0.00  0.00    +0.242 C 
BRANCH  27  28
ATOM     28  S   UNL     1      -0.535   3.711  24.652  0.00  0.00    +0.018 S 
ATOM     29  O   UNL     1      -0.817   3.776  23.880  0.00  0.00    -0.168 OA
ATOM     30  O   UNL     1      -0.253   3.646  25.425  0.00  0.00    -0.168 OA
BRANCH  28  31
ATOM     31  C   UNL     1      -1.027   4.332  24.883  0.00  0.00    +0.106 A 
ATOM     32  C   UNL     1      -0.824   5.110  24.697  0.00  0.00    +0.018 A 
ATOM     33  C   UNL     1      -1.315   5.730  24.928  0.00  0.00    +0.001 A 
ATOM     34  C   UNL     1      -2.010   5.573  25.345  0.00  0.00    +0.000 A 
ATOM     35  C   UNL     1      -2.213   4.796  25.531  0.00  0.00    +0.001 A 
ATOM     36  C   UNL     1      -1.721   4.174  25.300  0.00  0.00    +0.018 A 
ENDBRANCH  28  31
ENDBRANCH  27  28
ENDBRANCH  25  27
ENDBRANCH  22  24
TORSDOF 9
ENDMDL
MODEL 6
REMARK VINA RESULT:     -10.5      3.828      5.918
REMARK  Name = 
REMARK  9 active torsions:
REMARK  status: ('A' for Active; 'I' for Inactive)
REMARK    1  A    between atoms: C_2  and  C_4
REMARK    2  A    between atoms: C_4  and  C_5
REMARK    3  A    between atoms: C_4  and  N_12
REMARK    4  A    between atoms: C_5  and  C_6
REMARK    5  A    between atoms: C_13  and  C_15
REMARK    6  A    between atoms: C_22  and  N_24
REMARK    7  A    between atoms: C_25  and  C_27
REMARK    8  A    between atoms: C_27  and  S_28
REMARK    9  A    between atoms: S_28  and  C_31
REMARK                            x       y       z     vdW  Elec       q    Type
REMARK                         _______ _______ _______ _____ _____    ______ ____
ROOT
ATOM     15  C   UNL     1      -0.932   0.866  24.166  0.00  0.00    +0.200 C 
ATOM     16  O   UNL     1      -0.957   1.535  23.683  0.00  0.00    -0.216 OA
ATOM     17  C   UNL     1      -1.113   0.348  24.781  0.00  0.00    +0.075 C 
ATOM     18  C   UNL     1      -0.709  -0.368  24.849  0.00  0.00    +0.187 C 
ATOM     19  O   UNL     1      -0.891  -0.887  25.464  0.00  0.00    -0.220 OA
ATOM     20  C   UNL     1      -0.123  -0.566  24.303  0.00  0.00    +0.202 C 
ATOM     21  O   UNL     1       0.280  -1.281  24.372  0.00  0.00    -0.219 OA
ATOM     22  C   UNL     1       0.058  -0.046  23.688  0.00  0.00    +0.131 C 
ATOM     23  C   UNL     1      -0.346   0.670  23.619  0.00  0.00    +0.064 C 
ENDROOT
BRANCH  15  13
ATOM     12  N   UNL     1      -1.672   2.078  24.328  0.00  0.00    -0.195 NA
ATOM     13  C   UNL     1      -1.526   1.296  24.544  0.00  0.00    +0.269 C 
ATOM     14  O   UNL     1      -1.975   0.942  25.140  0.00  0.00    -0.271 OA
BRANCH  12   4
ATOM      4  C   UNL     1      -2.266   2.507  24.707  0.00  0.00    +0.179 C 
BRANCH   4   2
ATOM      1  N   UNL     1      -3.664   2.295  24.919  0.00  0.00    -0.086 NA
ATOM      2  C   UNL     1      -3.038   2.487  24.416  0.00  0.00    +0.281 C 
ATOM      3  O   UNL     1      -3.185   2.659  23.622  0.00  0.00    -0.270 OA
ENDBRANCH   4   2
BRANCH   4   5
ATOM      5  C   UNL     1      -2.089   2.957  25.375  0.00  0.00    +0.057 C 
BRANCH   5   6
ATOM      6  C   UNL     1      -1.841   3.739  25.293  0.00  0.00    -0.020 A 
ATOM      7  C   UNL     1      -1.055   3.907  25.109  0.00  0.00    -0.004 A 
ATOM      8  C   UNL     1      -0.807   4.689  25.027  0.00  0.00    -0.000 A 
ATOM      9  C   UNL     1      -1.347   5.305  25.130  0.00  0.00    -0.000 A 
ATOM     10  C   UNL     1      -2.134   5.138  25.314  0.00  0.00    -0.000 A 
ATOM     11  C   UNL     1      -2.381   4.355  25.395  0.00  0.00    -0.004 A 
ENDBRANCH   5   6
ENDBRANCH   4   5
ENDBRANCH  12   4
ENDBRANCH  15  13
BRANCH  22  24
ATOM     24  N   UNL     1       0.644  -0.243  23.141  0.00  0.00    -0.203 NA
ATOM     25  C   UNL     1       1.332   0.210  23.094  0.00  0.00    +0.266 C 
ATOM     26  O   UNL     1       1.434   0.859  23.592  0.00  0.00    -0.271 OA
BRANCH  25  27
ATOM     27  C   UNL     1       1.918   0.012  22.547  0.00  0.00    +0.242 C 
BRANCH  27  28
ATOM     28  S   UNL     1       2.714   0.076  22.753  0.00  0.00    +0.018 S 
ATOM     29  O   UNL     1       2.660   0.898  22.711  0.00  0.00    -0.168 OA
ATOM     30  O   UNL     1       2.769  -0.747  22.796  0.00  0.00    -0.168 OA
BRANCH  28  31
ATOM     31  C   UNL     1       3.510   0.140  22.960  0.00  0.00    +0.106 A 
ATOM     32  C   UNL     1       3.933   0.822  22.765  0.00  0.00    +0.018 A 
ATOM     33  C   UNL     1       4.729   0.886  22.971  0.00  0.00    +0.001 A 
ATOM     34  C   UNL     1       5.103   0.269  23.373  0.00  0.00    +0.000 A 
ATOM     35  C   UNL     1       4.680  -0.412  23.568  0.00  0.00    +0.001 A 
ATOM     36  C   UNL     1       3.883  -0.477  23.362  0.00  0.00    +0.018 A 
ENDBRANCH  28  31
ENDBRANCH  27  28
ENDBRANCH  25  27
ENDBRANCH  22  24
TORSDOF 9
ENDMDL
