MODEL 1
REMARK VINA RESULT:     -12.9      0.000      0.000
REMARK  Name = 
REMARK  8 active torsions:
REMARK  status: ('A' for Active; 'I' for Inactive)
REMARK    1  A    between atoms: C_2  and  C_3
REMARK    2  A    between atoms: C_3  and  C_4
REMARK    3  A    between atoms: C_4  and  C_5
REMARK    4  A    between atoms: C_7  and  C_8
REMARK    5  A    between atoms: C_8  and  C_9
REMARK    6  A    between atoms: C_14  and  C_15
REMARK    7  A    between atoms: C_15  and  C_16
REMARK    8  A    between atoms: C_21  and  N_24
REMARK                            x       y       z     vdW  Elec       q    Type
REMARK                         _______ _______ _______ _____ _____    ______ ____
ROOT
ATOM     16  C   UNL     1      -0.719   2.076  24.725  0.00  0.00    +0.226 C 
ATOM     17  O   UNL     1      -0.225   2.351  24.124  0.00  0.00    -0.275 OA
ATOM     18  N   UNL     1      -0.949   1.284  24.740  0.00  0.00    -0.279 N 
ATOM     19  C   UNL     1      -1.442   1.009  25.341  0.00  0.00    +0.095 C 
ATOM     20  C   UNL     1      -1.673   0.217  25.356  0.00  0.00    +0.044 C 
ATOM     21  C   UNL     1      -1.410  -0.300  24.769  0.00  0.00    +0.093 C 
ATOM     22  C   UNL     1      -0.916  -0.025  24.168  0.00  0.00    +0.044 C 
ATOM     23  C   UNL     1      -0.686   0.767  24.153  0.00  0.00    +0.095 C 
ENDROOT
BRANCH  21  24
ATOM     24  N   UNL     1      -1.640  -1.093  24.784  0.00  0.00    -0.280 N 
ATOM     25  C   UNL     1      -1.162  -1.733  24.988  0.00  0.00    +0.350 A 
ATOM     26  O   UNL     1      -0.369  -1.693  25.213  0.00  0.00    -0.244 OA
ATOM     27  N   UNL     1      -1.615  -2.420  24.928  0.00  0.00    -0.191 NA
ATOM     28  C   UNL     1      -2.373  -2.203  24.687  0.00  0.00    +0.102 A 
ATOM     29  C   UNL     1      -3.053  -2.647  24.536  0.00  0.00    +0.021 A 
ATOM     30  C   UNL     1      -3.746  -2.271  24.297  0.00  0.00    +0.002 A 
ATOM     31  C   UNL     1      -3.762  -1.451  24.208  0.00  0.00    +0.002 A 
ATOM     32  C   UNL     1      -3.083  -1.007  24.358  0.00  0.00    +0.019 A 
ATOM     33  C   UNL     1      -2.389  -1.383  24.598  0.00  0.00    +0.082 A 
ENDBRANCH  21  24
BRANCH  16  15
ATOM     15  C   UNL     1      -0.982   2.593  25.312  0.00  0.00    +0.085 C 
BRANCH  15  14
ATOM      9  C   UNL     1      -1.575   3.874  25.534  0.00  0.00    +0.024 C 
ATOM     10  C   UNL     1      -1.597   4.685  25.390  0.00  0.00    +0.089 C 
ATOM     11  N   UNL     1      -1.046   5.029  24.879  0.00  0.00    -0.218 NA
ATOM     12  C   UNL     1      -0.475   4.559  24.513  0.00  0.00    +0.089 C 
ATOM     13  C   UNL     1      -0.454   3.747  24.657  0.00  0.00    +0.019 C 
ATOM     14  C   UNL     1      -1.003   3.405  25.167  0.00  0.00    +0.012 C 
BRANCH   9   8
ATOM      8  C   UNL     1      -2.125   3.531  26.044  0.00  0.00    +0.051 C 
BRANCH   8   7
ATOM      5  C   UNL     1      -4.223   3.686  25.684  0.00  0.00    +0.154 A 
ATOM      6  C   UNL     1      -3.508   3.282  25.612  0.00  0.00    +0.054 A 
ATOM      7  C   UNL     1      -2.924   3.730  25.984  0.00  0.00    +0.100 A 
ATOM     34  N   UNL     1      -3.278   4.411  26.286  0.00  0.00    -0.082 NA
ATOM     35  O   UNL     1      -4.081   4.384  26.101  0.00  0.00    -0.358 OA
BRANCH   5   4
ATOM      4  C   UNL     1      -4.953   3.437  25.391  0.00  0.00    +0.067 C 
BRANCH   4   3
ATOM      3  C   UNL     1      -5.137   2.633  25.367  0.00  0.00    +0.008 C 
BRANCH   3   2
ATOM      1  C   UNL     1      -6.065   1.584  25.082  0.00  0.00    +0.000 C 
ATOM      2  C   UNL     1      -5.861   2.384  25.061  0.00  0.00    +0.000 C 
ENDBRANCH   3   2
ENDBRANCH   4   3
ENDBRANCH   5   4
ENDBRANCH   8   7
ENDBRANCH   9   8
ENDBRANCH  15  14
ENDBRANCH  16  15
TORSDOF 8
ENDMDL
MODEL 2
REMARK VINA RESULT:     -12.3      1.508      3.443
REMARK  Name = 
REMARK  8 active torsions:
REMARK  status: ('A' for Active; 'I' for Inactive)
REMARK    1  A    between atoms: C_2  and  C_3
REMARK    2  A    between atoms: C_3  and  C_4
REMARK    3  A    between atoms: C_4  and  C_5
REMARK    4  A    between atoms: C_7  and  C_8
REMARK    5  A    between atoms: C_8  and  C_9
REMARK    6  A    between atoms: C_14  and  C_15
REMARK    7  A    between atoms: C_15  and  C_16
REMARK    8  A    between atoms: C_21  and  N_24
REMARK                            x       y       z     vdW  Elec       q    Type
REMARK                         _______ _______ _______ _____ _____    ______ ____
ROOT
ATOM     16  C   UNL     1      -4.777   1.094  25.129  0.00  0.00    +0.226 C 
ATOM     17  O   UNL     1      -5.405   1.036  25.661  0.00  0.00    -0.275 OA
ATOM     18  N   UNL     1      -4.283   0.445  25.002  0.00  0.00    -0.279 N 
ATOM     19  C   UNL     1      -3.655   0.502  24.470  0.00  0.00    +0.095 C 
ATOM     20  C   UNL     1      -3.161  -0.147  24.343  0.00  0.00    +0.044 C 
ATOM     21  C   UNL     1      -3.295  -0.852  24.749  0.00  0.00    +0.093 C 
ATOM     22  C   UNL     1      -3.923  -0.910  25.281  0.00  0.00    +0.044 C 
ATOM     23  C   UNL     1      -4.417  -0.261  25.408  0.00  0.00    +0.095 C 
ENDROOT
BRANCH  21  24
ATOM     24  N   UNL     1      -2.801  -1.501  24.622  0.00  0.00    -0.280 N 
ATOM     25  C   UNL     1      -3.013  -2.205  24.248  0.00  0.00    +0.350 A 
ATOM     26  O   UNL     1      -3.755  -2.385  23.936  0.00  0.00    -0.244 OA
ATOM     27  N   UNL     1      -2.351  -2.699  24.241  0.00  0.00    -0.191 NA
ATOM     28  C   UNL     1      -1.732  -2.300  24.611  0.00  0.00    +0.102 A 
ATOM     29  C   UNL     1      -0.950  -2.513  24.764  0.00  0.00    +0.021 A 
ATOM     30  C   UNL     1      -0.446  -1.988  25.152  0.00  0.00    +0.002 A 
ATOM     31  C   UNL     1      -0.725  -1.248  25.387  0.00  0.00    +0.002 A 
ATOM     32  C   UNL     1      -1.506  -1.033  25.234  0.00  0.00    +0.019 A 
ATOM     33  C   UNL     1      -2.010  -1.559  24.846  0.00  0.00    +0.082 A 
ENDBRANCH  21  24
BRANCH  16  15
ATOM     15  C   UNL     1      -4.643   1.799  24.724  0.00  0.00    +0.085 C 
BRANCH  15  14
ATOM      9  C   UNL     1      -4.535   3.217  24.866  0.00  0.00    +0.024 C 
ATOM     10  C   UNL     1      -4.823   3.928  25.169  0.00  0.00    +0.089 C 
ATOM     11  N   UNL     1      -5.507   3.933  25.631  0.00  0.00    -0.218 NA
ATOM     12  C   UNL     1      -5.902   3.227  25.790  0.00  0.00    +0.089 C 
ATOM     13  C   UNL     1      -5.614   2.515  25.488  0.00  0.00    +0.019 C 
ATOM     14  C   UNL     1      -4.931   2.511  25.026  0.00  0.00    +0.012 C 
BRANCH   9   8
ATOM      8  C   UNL     1      -3.852   3.212  24.405  0.00  0.00    +0.051 C 
BRANCH   8   7
ATOM      5  C   UNL     1      -1.951   3.903  25.087  0.00  0.00    +0.154 A 
ATOM      6  C   UNL     1      -2.464   3.291  24.882  0.00  0.00    +0.054 A 
ATOM      7  C   UNL     1      -3.182   3.625  24.654  0.00  0.00    +0.100 A 
ATOM     34  N   UNL     1      -3.113   4.445  24.717  0.00  0.00    -0.082 NA
ATOM     35  O   UNL     1      -2.352   4.616  24.985  0.00  0.00    -0.358 OA
BRANCH   5   4
ATOM      4  C   UNL     1      -1.173   3.818  25.349  0.00  0.00    +0.067 C 
BRANCH   4   3
ATOM      3  C   UNL     1      -0.934   3.118  25.714  0.00  0.00    +0.008 C 
BRANCH   3   2
ATOM      1  C   UNL     1       0.094   2.368  26.365  0.00  0.00    +0.000 C 
ATOM      2  C   UNL     1      -0.134   2.983  25.864  0.00  0.00    +0.000 C 
ENDBRANCH   3   2
ENDBRANCH   4   3
ENDBRANCH   5   4
ENDBRANCH   8   7
ENDBRANCH   9   8
ENDBRANCH  15  14
ENDBRANCH  16  15
TORSDOF 8
ENDMDL
MODEL 3
REMARK VINA RESULT:     -11.8      1.327      4.871
REMARK  Name = 
REMARK  8 active torsions:
REMARK  status: ('A' for Active; 'I' for Inactive)
REMARK    1  A    between atoms: C_2  and  C_3
REMARK    2  A    between atoms: C_3  and  C_4
REMARK    3  A    between atoms: C_4  and  C_5
REMARK    4  A    between atoms: C_7  and  C_8
REMARK    5  A    between atoms: C_8  and  C_9
REMARK    6  A    between atoms: C_14  and  C_15
REMARK    7  A    between atoms: C_15  and  C_16
REMARK    8  A    between atoms: C_21  and  N_24
REMARK                            x       y       z     vdW  Elec       q    Type
REMARK                         _______ _______ _______ _____ _____    ______ ____
ROOT
ATOM     16  C   UNL     1      -1.101   1.709  24.086  0.00  0.00    +0.226 C 
ATOM     17  O   UNL     1      -0.778   2.004  23.386  0.00  0.00    -0.275 OA
ATOM     18  N   UNL     1      -1.801   2.028  24.384  0.00  0.00    -0.279 N 
ATOM     19  C   UNL     1      -2.124   1.733  25.084  0.00  0.00    +0.095 C 
ATOM     20  C   UNL     1      -2.824   2.052  25.382  0.00  0.00    +0.044 C 
ATOM     21  C   UNL     1      -3.200   2.667  24.981  0.00  0.00    +0.093 C 
ATOM     22  C   UNL     1      -2.877   2.962  24.282  0.00  0.00    +0.044 C 
ATOM     23  C   UNL     1      -2.177   2.643  23.983  0.00  0.00    +0.095 C 
ENDROOT
BRANCH  21  24
ATOM     24  N   UNL     1      -3.900   2.986  25.280  0.00  0.00    -0.280 N 
ATOM     25  C   UNL     1      -3.972   3.699  25.688  0.00  0.00    +0.350 A 
ATOM     26  O   UNL     1      -3.357   4.218  25.869  0.00  0.00    -0.244 OA
ATOM     27  N   UNL     1      -4.767   3.802  25.883  0.00  0.00    -0.191 NA
ATOM     28  C   UNL     1      -5.186   3.153  25.595  0.00  0.00    +0.102 A 
ATOM     29  C   UNL     1      -5.987   2.955  25.624  0.00  0.00    +0.021 A 
ATOM     30  C   UNL     1      -6.251   2.253  25.281  0.00  0.00    +0.002 A 
ATOM     31  C   UNL     1      -5.715   1.749  24.908  0.00  0.00    +0.002 A 
ATOM     32  C   UNL     1      -4.915   1.946  24.879  0.00  0.00    +0.019 A 
ATOM     33  C   UNL     1      -4.650   2.648  25.223  0.00  0.00    +0.082 A 
ENDBRANCH  21  24
BRANCH  16  15
ATOM     15  C   UNL     1      -0.724   1.094  24.487  0.00  0.00    +0.085 C 
BRANCH  15  14
ATOM      9  C   UNL     1      -0.171  -0.211  24.309  0.00  0.00    +0.024 C 
ATOM     10  C   UNL     1       0.328  -0.726  23.901  0.00  0.00    +0.089 C 
ATOM     11  N   UNL     1       0.774  -0.450  23.263  0.00  0.00    -0.218 NA
ATOM     12  C   UNL     1       0.720   0.341  23.035  0.00  0.00    +0.089 C 
ATOM     13  C   UNL     1       0.220   0.856  23.442  0.00  0.00    +0.019 C 
ATOM     14  C   UNL     1      -0.225   0.579  24.079  0.00  0.00    +0.012 C 
BRANCH   9   8
ATOM      8  C   UNL     1      -0.616  -0.487  24.945  0.00  0.00    +0.051 C 
BRANCH   8   7
ATOM      5  C   UNL     1      -1.816  -2.241  24.745  0.00  0.00    +0.154 A 
ATOM      6  C   UNL     1      -1.718  -1.425  24.684  0.00  0.00    +0.054 A 
ATOM      7  C   UNL     1      -0.949  -1.242  24.920  0.00  0.00    +0.100 A 
ATOM     34  N   UNL     1      -0.572  -1.947  25.127  0.00  0.00    -0.082 NA
ATOM     35  O   UNL     1      -1.108  -2.563  25.018  0.00  0.00    -0.358 OA
BRANCH   5   4
ATOM      4  C   UNL     1      -2.502  -2.662  24.564  0.00  0.00    +0.067 C 
BRANCH   4   3
ATOM      3  C   UNL     1      -3.218  -2.263  24.460  0.00  0.00    +0.008 C 
BRANCH   3   2
ATOM      1  C   UNL     1      -4.476  -2.267  23.783  0.00  0.00    +0.000 C 
ATOM      2  C   UNL     1      -3.881  -2.671  24.188  0.00  0.00    +0.000 C 
ENDBRANCH   3   2
ENDBRANCH   4   3
ENDBRANCH   5   4
ENDBRANCH   8   7
ENDBRANCH   9   8
ENDBRANCH  15  14
ENDBRANCH  16  15
TORSDOF 8
ENDMDL
MODEL 4
REMARK VINA RESULT:     -11.5      1.459      5.902
REMARK  Name = 
REMARK  8 active torsions:
REMARK  status: ('A' for Active; 'I' for Inactive)
REMARK    1  A    between atoms: C_2  and  C_3
REMARK    2  A    between atoms: C_3  and  C_4
REMARK    3  A    between atoms: C_4  and  C_5
REMARK    4  A    between atoms: C_7  and  C_8
REMARK    5  A    between atoms: C_8  and  C_9
REMARK    6  A    between atoms: C_14  and  C_15
REMARK    7  A    between atoms: C_15  and  C_16
REMARK    8  A    between atoms: C_21  and  N_24
REMARK                            x       y       z     vdW  Elec       q    Type
REMARK                         _______ _______ _______ _____ _____    ______ ____
ROOT
ATOM     16  C   UNL     1      -3.915   0.347  24.411  0.00  0.00    +0.226 C 
ATOM     17  O   UNL     1      -4.383   0.225  23.742  0.00  0.00    -0.275 OA
ATOM     18  N   UNL     1      -3.674   1.110  24.614  0.00  0.00    -0.279 N 
ATOM     19  C   UNL     1      -3.207   1.231  25.282  0.00  0.00    +0.095 C 
ATOM     20  C   UNL     1      -2.966   1.994  25.485  0.00  0.00    +0.044 C 
ATOM     21  C   UNL     1      -3.193   2.635  25.018  0.00  0.00    +0.093 C 
ATOM     22  C   UNL     1      -3.661   2.514  24.350  0.00  0.00    +0.044 C 
ATOM     23  C   UNL     1      -3.902   1.751  24.147  0.00  0.00    +0.095 C 
ENDROOT
BRANCH  21  24
ATOM     24  N   UNL     1      -2.953   3.398  25.221  0.00  0.00    -0.280 N 
ATOM     25  C   UNL     1      -3.409   3.962  25.613  0.00  0.00    +0.350 A 
ATOM     26  O   UNL     1      -4.186   3.862  25.872  0.00  0.00    -0.244 OA
ATOM     27  N   UNL     1      -2.952   4.643  25.702  0.00  0.00    -0.191 NA
ATOM     28  C   UNL     1      -2.213   4.500  25.364  0.00  0.00    +0.102 A 
ATOM     29  C   UNL     1      -1.540   4.970  25.288  0.00  0.00    +0.021 A 
ATOM     30  C   UNL     1      -0.868   4.672  24.915  0.00  0.00    +0.002 A 
ATOM     31  C   UNL     1      -0.868   3.902  24.618  0.00  0.00    +0.002 A 
ATOM     32  C   UNL     1      -1.541   3.431  24.694  0.00  0.00    +0.019 A 
ATOM     33  C   UNL     1      -2.214   3.730  25.067  0.00  0.00    +0.082 A 
ENDBRANCH  21  24
BRANCH  16  15
ATOM     15  C   UNL     1      -3.688  -0.295  24.877  0.00  0.00    +0.085 C 
BRANCH  15  14
ATOM      9  C   UNL     1      -3.210  -1.639  24.798  0.00  0.00    +0.024 C 
ATOM     10  C   UNL     1      -3.285  -2.408  24.508  0.00  0.00    +0.089 C 
ATOM     11  N   UNL     1      -3.913  -2.601  24.008  0.00  0.00    -0.218 NA
ATOM     12  C   UNL     1      -4.464  -2.025  23.798  0.00  0.00    +0.089 C 
ATOM     13  C   UNL     1      -4.389  -1.256  24.088  0.00  0.00    +0.019 C 
ATOM     14  C   UNL     1      -3.763  -1.063  24.588  0.00  0.00    +0.012 C 
BRANCH   9   8
ATOM      8  C   UNL     1      -2.583  -1.447  25.298  0.00  0.00    +0.051 C 
BRANCH   8   7
ATOM      5  C   UNL     1      -0.559  -1.374  24.625  0.00  0.00    +0.154 A 
ATOM      6  C   UNL     1      -1.267  -0.999  24.821  0.00  0.00    +0.054 A 
ATOM      7  C   UNL     1      -1.806  -1.578  25.055  0.00  0.00    +0.100 A 
ATOM     34  N   UNL     1      -1.431  -2.312  25.004  0.00  0.00    -0.082 NA
ATOM     35  O   UNL     1      -0.660  -2.185  24.738  0.00  0.00    -0.358 OA
BRANCH   5   4
ATOM      4  C   UNL     1       0.130  -1.004  24.362  0.00  0.00    +0.067 C 
BRANCH   4   3
ATOM      3  C   UNL     1       0.120  -0.558  23.667  0.00  0.00    +0.008 C 
BRANCH   3   2
ATOM      1  C   UNL     1       1.075  -0.026  22.748  0.00  0.00    +0.000 C 
ATOM      2  C   UNL     1       0.740  -0.040  23.502  0.00  0.00    +0.000 C 
ENDBRANCH   3   2
ENDBRANCH   4   3
ENDBRANCH   5   4
ENDBRANCH   8   7
ENDBRANCH   9   8
ENDBRANCH  15  14
ENDBRANCH  16  15
TORSDOF 8
ENDMDL
MODEL 5
REMARK VINA RESULT:     -10.8      1.434      3.253
REMARK  Name = 
REMARK  8 active torsions:
REMARK  status: ('A' for Active; 'I' for Inactive)
REMARK    1  A    between atoms: C_2  and  C_3
REMARK    2  A    between atoms: C_3  and  C_4
REMARK    3  A    between atoms: C_4  and  C_5
REMARK    4  A    between atoms: C_7  and  C_8
REMARK    5  A    between atoms: C_8  and  C_9
REMARK    6  A    between atoms: C_14  and  C_15
REMARK    7  A    between atoms: C_15  and  C_16
REMARK    8  A    between atoms: C_21  and  N_24
REMARK                            x       y       z     vdW  Elec       q    Type
REMARK                         _______ _______ _______ _____ _____    ______ ____
ROOT
ATOM     16  C   UNL     1      -4.777   1.483  25.150  0.00  0.00    +0.226 C 
ATOM     17  O   UNL     1      -5.460   1.467  25.612  0.00  0.00    -0.275 OA
ATOM     18  N   UNL     1      -4.308   0.807  25.082  0.00  0.00    -0.279 N 
ATOM     19  C   UNL     1      -3.626   0.823  24.619  0.00  0.00    +0.095 C 
ATOM     20  C   UNL     1      -3.157   0.147  24.552  0.00  0.00    +0.044 C 
ATOM     21  C   UNL     1      -3.372  -0.544  24.948  0.00  0.00    +0.093 C 
ATOM     22  C   UNL     1      -4.054  -0.560  25.411  0.00  0.00    +0.044 C 
ATOM     23  C   UNL     1      -4.523   0.116  25.478  0.00  0.00    +0.095 C 
ENDROOT
BRANCH  21  24
ATOM     24  N   UNL     1      -2.903  -1.220  24.881  0.00  0.00    -0.280 N 
ATOM     25  C   UNL     1      -2.129  -1.302  25.152  0.00  0.00    +0.350 A 
ATOM     26  O   UNL     1      -1.686  -0.723  25.538  0.00  0.00    -0.244 OA
ATOM     27  N   UNL     1      -1.873  -2.066  24.969  0.00  0.00    -0.191 NA
ATOM     28  C   UNL     1      -2.490  -2.455  24.585  0.00  0.00    +0.102 A 
ATOM     29  C   UNL     1      -2.556  -3.218  24.278  0.00  0.00    +0.021 A 
ATOM     30  C   UNL     1      -3.257  -3.458  23.916  0.00  0.00    +0.002 A 
ATOM     31  C   UNL     1      -3.893  -2.936  23.862  0.00  0.00    +0.002 A 
ATOM     32  C   UNL     1      -3.829  -2.173  24.168  0.00  0.00    +0.019 A 
ATOM     33  C   UNL     1      -3.127  -1.933  24.531  0.00  0.00    +0.082 A 
ENDBRANCH  21  24
BRANCH  16  15
ATOM     15  C   UNL     1      -4.562   2.174  24.754  0.00  0.00    +0.085 C 
BRANCH  15  14
ATOM      9  C   UNL     1      -4.390   3.589  24.860  0.00  0.00    +0.024 C 
ATOM     10  C   UNL     1      -4.649   4.321  25.138  0.00  0.00    +0.089 C 
ATOM     11  N   UNL     1      -5.340   4.371  25.586  0.00  0.00    -0.218 NA
ATOM     12  C   UNL     1      -5.771   3.689  25.757  0.00  0.00    +0.089 C 
ATOM     13  C   UNL     1      -5.512   2.957  25.479  0.00  0.00    +0.019 C 
ATOM     14  C   UNL     1      -4.822   2.907  25.031  0.00  0.00    +0.012 C 
BRANCH   9   8
ATOM      8  C   UNL     1      -3.699   3.539  24.413  0.00  0.00    +0.051 C 
BRANCH   8   7
ATOM      5  C   UNL     1      -1.754   4.041  25.134  0.00  0.00    +0.154 A 
ATOM      6  C   UNL     1      -2.309   3.483  24.885  0.00  0.00    +0.054 A 
ATOM      7  C   UNL     1      -3.002   3.884  24.688  0.00  0.00    +0.100 A 
ATOM     34  N   UNL     1      -2.876   4.690  24.815  0.00  0.00    -0.082 NA
ATOM     35  O   UNL     1      -2.105   4.786  25.090  0.00  0.00    -0.358 OA
BRANCH   5   4
ATOM      4  C   UNL     1      -0.984   3.882  25.382  0.00  0.00    +0.067 C 
BRANCH   4   3
ATOM      3  C   UNL     1      -0.805   3.160  25.740  0.00  0.00    +0.008 C 
BRANCH   3   2
ATOM      1  C   UNL     1       0.171   2.370  26.422  0.00  0.00    +0.000 C 
ATOM      2  C   UNL     1      -0.019   2.942  25.857  0.00  0.00    +0.000 C 
ENDBRANCH   3   2
ENDBRANCH   4   3
ENDBRANCH   5   4
ENDBRANCH   8   7
ENDBRANCH   9   8
ENDBRANCH  15  14
ENDBRANCH  16  15
TORSDOF 8
ENDMDL
MODEL 6
REMARK VINA RESULT:     -10.7      2.479      6.015
REMARK  Name = 
REMARK  8 active torsions:
REMARK  status: ('A' for Active; 'I' for Inactive)
REMARK    1  A    between atoms: C_2  and  C_3
REMARK    2  A    between atoms: C_3  and  C_4
REMARK    3  A    between atoms: C_4  and  C_5
REMARK    4  A    between atoms: C_7  and  C_8
REMARK    5  A    between atoms: C_8  and  C_9
REMARK    6  A    between atoms: C_14  and  C_15
REMARK    7  A    between atoms: C_15  and  C_16
REMARK    8  A    between atoms: C_21  and  N_24
REMARK                            x       y       z     vdW  Elec       q    Type
REMARK                         _______ _______ _______ _____ _____    ______ ____
ROOT
ATOM     16  C   UNL     1      -0.821   1.365  24.814  0.00  0.00    +0.226 C 
ATOM     17  O   UNL     1      -0.317   1.363  25.467  0.00  0.00    -0.275 OA
ATOM     18  N   UNL     1      -1.542   1.766  24.850  0.00  0.00    -0.279 N 
ATOM     19  C   UNL     1      -2.046   1.768  24.198  0.00  0.00    +0.095 C 
ATOM     20  C   UNL     1      -2.767   2.169  24.234  0.00  0.00    +0.044 C 
ATOM     21  C   UNL     1      -2.982   2.568  24.923  0.00  0.00    +0.093 C 
ATOM     22  C   UNL     1      -2.477   2.567  25.575  0.00  0.00    +0.044 C 
ATOM     23  C   UNL     1      -1.757   2.165  25.539  0.00  0.00    +0.095 C 
ENDROOT
BRANCH  21  24
ATOM     24  N   UNL     1      -3.702   2.969  24.959  0.00  0.00    -0.280 N 
ATOM     25  C   UNL     1      -3.815   3.776  24.830  0.00  0.00    +0.350 A 
ATOM     26  O   UNL     1      -3.227   4.324  24.642  0.00  0.00    -0.244 OA
ATOM     27  N   UNL     1      -4.619   3.939  24.922  0.00  0.00    -0.191 NA
ATOM     28  C   UNL     1      -5.002   3.234  25.107  0.00  0.00    +0.102 A 
ATOM     29  C   UNL     1      -5.794   3.058  25.259  0.00  0.00    +0.021 A 
ATOM     30  C   UNL     1      -6.020   2.285  25.433  0.00  0.00    +0.002 A 
ATOM     31  C   UNL     1      -5.453   1.685  25.456  0.00  0.00    +0.002 A 
ATOM     32  C   UNL     1      -4.661   1.859  25.305  0.00  0.00    +0.019 A 
ATOM     33  C   UNL     1      -4.436   2.634  25.131  0.00  0.00    +0.082 A 
ENDBRANCH  21  24
BRANCH  16  15
ATOM     15  C   UNL     1      -0.606   0.966  24.125  0.00  0.00    +0.085 C 
BRANCH  15  14
ATOM      9  C   UNL     1       0.306  -0.040  23.682  0.00  0.00    +0.024 C 
ATOM     10  C   UNL     1       0.594  -0.812  23.725  0.00  0.00    +0.089 C 
ATOM     11  N   UNL     1       0.258  -1.350  24.253  0.00  0.00    -0.218 NA
ATOM     12  C   UNL     1      -0.367  -1.115  24.738  0.00  0.00    +0.089 C 
ATOM     13  C   UNL     1      -0.655  -0.343  24.695  0.00  0.00    +0.019 C 
ATOM     14  C   UNL     1      -0.318   0.194  24.168  0.00  0.00    +0.012 C 
BRANCH   9   8
ATOM      8  C   UNL     1       0.643   0.496  23.155  0.00  0.00    +0.051 C 
BRANCH   8   7
ATOM      5  C   UNL     1       2.727   0.479  22.692  0.00  0.00    +0.154 A 
ATOM      6  C   UNL     1       2.086   0.777  23.116  0.00  0.00    +0.054 A 
ATOM      7  C   UNL     1       1.409   0.373  22.873  0.00  0.00    +0.100 A 
ATOM     34  N   UNL     1       1.632  -0.175  22.297  0.00  0.00    -0.082 NA
ATOM     35  O   UNL     1       2.446  -0.109  22.186  0.00  0.00    -0.358 OA
BRANCH   5   4
ATOM      4  C   UNL     1       3.511   0.725  22.761  0.00  0.00    +0.067 C 
BRANCH   4   3
ATOM      3  C   UNL     1       4.073   0.226  23.103  0.00  0.00    +0.008 C 
BRANCH   3   2
ATOM      1  C   UNL     1       5.408  -0.005  23.555  0.00  0.00    +0.000 C 
ATOM      2  C   UNL     1       4.858   0.469  23.162  0.00  0.00    +0.000 C 
ENDBRANCH   3   2
ENDBRANCH   4   3
ENDBRANCH   5   4
ENDBRANCH   8   7
ENDBRANCH   9   8
ENDBRANCH  15  14
ENDBRANCH  16  15
TORSDOF 8
ENDMDL
MODEL 7
REMARK VINA RESULT:     -10.3      1.474      4.756
REMARK  Name = 
REMARK  8 active torsions:
REMARK  status: ('A' for Active; 'I' for Inactive)
REMARK    1  A    between atoms: C_2  and  C_3
REMARK    2  A    between atoms: C_3  and  C_4
REMARK    3  A    between atoms: C_4  and  C_5
REMARK    4  A    between atoms: C_7  and  C_8
REMARK    5  A    between atoms: C_8  and  C_9
REMARK    6  A    between atoms: C_14  and  C_15
REMARK    7  A    between atoms: C_15  and  C_16
REMARK    8  A    between atoms: C_21  and  N_24
REMARK                            x       y       z     vdW  Elec       q    Type
REMARK                         _______ _______ _______ _____ _____    ______ ____
ROOT
ATOM     16  C   UNL     1      -1.109  -0.590  24.826  0.00  0.00    +0.226 C 
ATOM     17  O   UNL     1      -0.681  -0.998  24.251  0.00  0.00    -0.275 OA
ATOM     18  N   UNL     1      -0.960   0.211  24.960  0.00  0.00    -0.279 N 
ATOM     19  C   UNL     1      -1.388   0.620  25.534  0.00  0.00    +0.095 C 
ATOM     20  C   UNL     1      -1.239   1.420  25.668  0.00  0.00    +0.044 C 
ATOM     21  C   UNL     1      -0.663   1.812  25.227  0.00  0.00    +0.093 C 
ATOM     22  C   UNL     1      -0.235   1.403  24.652  0.00  0.00    +0.044 C 
ATOM     23  C   UNL     1      -0.384   0.603  24.518  0.00  0.00    +0.095 C 
ENDROOT
BRANCH  21  24
ATOM     24  N   UNL     1      -0.514   2.613  25.361  0.00  0.00    -0.280 N 
ATOM     25  C   UNL     1       0.138   2.925  25.758  0.00  0.00    +0.350 A 
ATOM     26  O   UNL     1       0.756   2.491  26.090  0.00  0.00    -0.244 OA
ATOM     27  N   UNL     1       0.064   3.747  25.763  0.00  0.00    -0.191 NA
ATOM     28  C   UNL     1      -0.634   3.942  25.370  0.00  0.00    +0.102 A 
ATOM     29  C   UNL     1      -0.992   4.667  25.206  0.00  0.00    +0.021 A 
ATOM     30  C   UNL     1      -1.705   4.692  24.794  0.00  0.00    +0.002 A 
ATOM     31  C   UNL     1      -2.062   3.991  24.545  0.00  0.00    +0.002 A 
ATOM     32  C   UNL     1      -1.706   3.265  24.708  0.00  0.00    +0.019 A 
ATOM     33  C   UNL     1      -0.991   3.241  25.121  0.00  0.00    +0.082 A 
ENDBRANCH  21  24
BRANCH  16  15
ATOM     15  C   UNL     1      -1.686  -0.981  25.267  0.00  0.00    +0.085 C 
BRANCH  15  14
ATOM      9  C   UNL     1      -2.878  -1.742  25.066  0.00  0.00    +0.024 C 
ATOM     10  C   UNL     1      -3.259  -2.404  24.754  0.00  0.00    +0.089 C 
ATOM     11  N   UNL     1      -2.828  -2.966  24.330  0.00  0.00    -0.218 NA
ATOM     12  C   UNL     1      -2.017  -2.866  24.219  0.00  0.00    +0.089 C 
ATOM     13  C   UNL     1      -1.636  -2.204  24.532  0.00  0.00    +0.019 C 
ATOM     14  C   UNL     1      -2.067  -1.643  24.955  0.00  0.00    +0.012 C 
BRANCH   9   8
ATOM      8  C   UNL     1      -3.308  -1.180  25.489  0.00  0.00    +0.051 C 
BRANCH   8   7
ATOM      5  C   UNL     1      -4.881   0.125  24.874  0.00  0.00    +0.154 A 
ATOM      6  C   UNL     1      -4.292  -0.091  25.409  0.00  0.00    +0.054 A 
ATOM      7  C   UNL     1      -3.928  -0.775  25.126  0.00  0.00    +0.100 A 
ATOM     34  N   UNL     1      -4.294  -0.982  24.415  0.00  0.00    -0.082 NA
ATOM     35  O   UNL     1      -4.883  -0.426  24.260  0.00  0.00    -0.358 OA
BRANCH   5   4
ATOM      4  C   UNL     1      -5.382   0.777  24.941  0.00  0.00    +0.067 C 
BRANCH   4   3
ATOM      3  C   UNL     1      -5.067   1.540  24.968  0.00  0.00    +0.008 C 
BRANCH   3   2
ATOM      1  C   UNL     1      -5.399   2.868  25.377  0.00  0.00    +0.000 C 
ATOM      2  C   UNL     1      -5.567   2.194  24.931  0.00  0.00    +0.000 C 
ENDBRANCH   3   2
ENDBRANCH   4   3
ENDBRANCH   5   4
ENDBRANCH   8   7
ENDBRANCH   9   8
ENDBRANCH  15  14
ENDBRANCH  16  15
TORSDOF 8
ENDMDL
MODEL 8
REMARK VINA RESULT:      -9.9      1.669      5.084
REMARK  Name = 
REMARK  8 active torsions:
REMARK  status: ('A' for Active; 'I' for Inactive)
REMARK    1  A    between atoms: C_2  and  C_3
REMARK    2  A    between atoms: C_3  and  C_4
REMARK    3  A    between atoms: C_4  and  C_5
REMARK    4  A    between atoms: C_7  and  C_8
REMARK    5  A    between atoms: C_8  and  C_9
REMARK    6  A    between atoms: C_14  and  C_15
REMARK    7  A    between atoms: C_15  and  C_16
REMARK    8  A    between atoms: C_21  and  N_24
REMARK                            x       y       z     vdW  Elec       q    Type
REMARK                         _______ _______ _______ _____ _____    ______ ____
ROOT
ATOM     16  C   UNL     1      -2.904  -0.679  24.841  0.00  0.00    +0.226 C 
ATOM     17  O   UNL     1      -3.000  -1.377  25.271  0.00  0.00    -0.275 OA
ATOM     18  N   UNL     1      -3.468  -0.079  24.897  0.00  0.00    -0.279 N 
ATOM     19  C   UNL     1      -3.371   0.618  24.467  0.00  0.00    +0.095 C 
ATOM     20  C   UNL     1      -3.935   1.219  24.524  0.00  0.00    +0.044 C 
ATOM     21  C   UNL     1      -4.595   1.120  25.009  0.00  0.00    +0.093 C 
ATOM     22  C   UNL     1      -4.691   0.423  25.439  0.00  0.00    +0.044 C 
ATOM     23  C   UNL     1      -4.127  -0.178  25.383  0.00  0.00    +0.095 C 
ENDROOT
BRANCH  21  24
ATOM     24  N   UNL     1      -5.158   1.721  25.066  0.00  0.00    -0.280 N 
ATOM     25  C   UNL     1      -5.959   1.652  24.880  0.00  0.00    +0.350 A 
ATOM     26  O   UNL     1      -6.337   0.972  24.607  0.00  0.00    -0.244 OA
ATOM     27  N   UNL     1      -6.316   2.384  25.017  0.00  0.00    -0.191 NA
ATOM     28  C   UNL     1      -5.735   2.903  25.286  0.00  0.00    +0.102 A 
ATOM     29  C   UNL     1      -5.765   3.698  25.509  0.00  0.00    +0.021 A 
ATOM     30  C   UNL     1      -5.080   4.082  25.761  0.00  0.00    +0.002 A 
ATOM     31  C   UNL     1      -4.365   3.672  25.791  0.00  0.00    +0.002 A 
ATOM     32  C   UNL     1      -4.334   2.878  25.569  0.00  0.00    +0.019 A 
ATOM     33  C   UNL     1      -5.020   2.494  25.316  0.00  0.00    +0.082 A 
ENDBRANCH  21  24
BRANCH  16  15
ATOM     15  C   UNL     1      -2.244  -0.581  24.355  0.00  0.00    +0.085 C 
BRANCH  15  14
ATOM      9  C   UNL     1      -0.816  -0.577  24.304  0.00  0.00    +0.024 C 
ATOM     10  C   UNL     1      -0.093  -0.912  24.517  0.00  0.00    +0.089 C 
ATOM     11  N   UNL     1      -0.075  -1.586  24.993  0.00  0.00    -0.218 NA
ATOM     12  C   UNL     1      -0.780  -1.924  25.256  0.00  0.00    +0.089 C 
ATOM     13  C   UNL     1      -1.503  -1.589  25.043  0.00  0.00    +0.019 C 
ATOM     14  C   UNL     1      -1.521  -0.916  24.568  0.00  0.00    +0.012 C 
BRANCH   9   8
ATOM      8  C   UNL     1      -0.835   0.096  23.829  0.00  0.00    +0.051 C 
BRANCH   8   7
ATOM      5  C   UNL     1       0.107   1.900  24.472  0.00  0.00    +0.154 A 
ATOM      6  C   UNL     1      -0.549   1.403  24.439  0.00  0.00    +0.054 A 
ATOM      7  C   UNL     1      -0.342   0.736  23.999  0.00  0.00    +0.100 A 
ATOM     34  N   UNL     1       0.443   0.822  23.761  0.00  0.00    -0.082 NA
ATOM     35  O   UNL     1       0.721   1.541  24.053  0.00  0.00    -0.358 OA
BRANCH   5   4
ATOM      4  C   UNL     1       0.145   2.629  24.856  0.00  0.00    +0.067 C 
BRANCH   4   3
ATOM      3  C   UNL     1      -0.462   3.180  24.759  0.00  0.00    +0.008 C 
BRANCH   3   2
ATOM      1  C   UNL     1      -0.977   4.488  25.017  0.00  0.00    +0.000 C 
ATOM      2  C   UNL     1      -0.474   3.865  25.219  0.00  0.00    +0.000 C 
ENDBRANCH   3   2
ENDBRANCH   4   3
ENDBRANCH   5   4
ENDBRANCH   8   7
ENDBRANCH   9   8
ENDBRANCH  15  14
ENDBRANCH  16  15
TORSDOF 8
ENDMDL
