MODEL 1
REMARK VINA RESULT:      -9.6      0.000      0.000
REMARK  Name = 
REMARK  7 active torsions:
REMARK  status: ('A' for Active; 'I' for Inactive)
REMARK    1  A    between atoms: O_2  and  C_3
REMARK    2  A    between atoms: C_6  and  C_11
REMARK    3  A    between atoms: C_8  and  O_9
REMARK    4  A    between atoms: C_15  and  C_17
REMARK    5  A    between atoms: C_24  and  C_25
REMARK    6  A    between atoms: C_25  and  N_26
REMARK    7  A    between atoms: C_27  and  C_29
REMARK                            x       y       z     vdW  Elec       q    Type
REMARK                         _______ _______ _______ _____ _____    ______ ____
ROOT
ATOM     11  C   UNL     1      -2.206   1.585  24.749  0.00  0.00    +0.102 A 
ATOM     12  N   UNL     1      -1.687   1.804  25.351  0.00  0.00    -0.170 NA
ATOM     13  N   UNL     1      -0.926   1.582  25.124  0.00  0.00    -0.253 N 
ATOM     14  C   UNL     1      -0.236   1.696  25.562  0.00  0.00    +0.153 C 
ATOM     15  C   UNL     1      -0.975   1.225  24.382  0.00  0.00    +0.058 A 
ATOM     16  C   UNL     1      -1.767   1.227  24.150  0.00  0.00    +0.035 A 
ENDROOT
BRANCH  15  17
ATOM     17  C   UNL     1      -0.342   0.920  23.947  0.00  0.00    +0.056 C 
ATOM     18  C   UNL     1       0.111   1.430  23.572  0.00  0.00    +0.078 C 
ATOM     19  N   UNL     1       0.201   0.609  23.578  0.00  0.00    -0.272 NA
ATOM     20  C   UNL     1      -0.568   0.217  24.173  0.00  0.00    +0.072 C 
ATOM     21  C   UNL     1      -0.874  -0.294  24.441  0.00  0.00    +0.018 C 
ATOM     22  C   UNL     1      -0.247   0.116  23.948  0.00  0.00    +0.010 C 
ATOM     23  C   UNL     1       0.344  -0.407  23.563  0.00  0.00    +0.018 C 
ATOM     24  C   UNL     1       0.812   0.060  23.181  0.00  0.00    +0.079 C 
BRANCH  24  25
ATOM     25  C   UNL     1       1.478   0.064  22.695  0.00  0.00    +0.131 C 
BRANCH  25  26
ATOM     26  N   UNL     1       2.224   0.198  23.019  0.00  0.00    -0.204 NA
ATOM     27  C   UNL     1       2.891   0.204  22.534  0.00  0.00    +0.240 C 
ATOM     28  O   UNL     1       2.811   0.074  21.723  0.00  0.00    -0.273 OA
BRANCH  27  29
ATOM     29  C   UNL     1       3.637   0.338  22.859  0.00  0.00    +0.071 C 
ATOM     30  C   UNL     1       4.384   0.473  23.183  0.00  0.00    +0.009 C 
ATOM     31  C   UNL     1       3.584   1.135  22.649  0.00  0.00    +0.009 C 
ATOM     32  C   UNL     1       3.690  -0.458  23.068  0.00  0.00    +0.009 C 
ENDBRANCH  27  29
ENDBRANCH  25  26
ENDBRANCH  24  25
ENDBRANCH  15  17
BRANCH  11   6
ATOM      3  C   UNL     1      -4.656   1.939  24.742  0.00  0.00    +0.172 A 
ATOM      4  C   UNL     1      -4.347   1.200  24.939  0.00  0.00    +0.040 A 
ATOM      5  C   UNL     1      -3.530   1.082  24.941  0.00  0.00    +0.005 A 
ATOM      6  C   UNL     1      -3.023   1.702  24.747  0.00  0.00    +0.023 A 
ATOM      7  C   UNL     1      -3.332   2.442  24.550  0.00  0.00    +0.042 A 
ATOM      8  C   UNL     1      -4.150   2.560  24.547  0.00  0.00    +0.172 A 
BRANCH   3   2
ATOM      1  C   UNL     1      -5.972   1.490  25.073  0.00  0.00    +0.253 C 
ATOM      2  O   UNL     1      -5.473   2.056  24.740  0.00  0.00    -0.468 OA
ENDBRANCH   3   2
BRANCH   8   9
ATOM      9  O   UNL     1      -4.459   3.299  24.351  0.00  0.00    -0.468 OA
ATOM     10  C   UNL     1      -3.960   3.954  24.298  0.00  0.00    +0.253 C 
ENDBRANCH   8   9
ENDBRANCH  11   6
TORSDOF 7
ENDMDL
MODEL 2
REMARK VINA RESULT:      -9.4      3.751      5.176
REMARK  Name = 
REMARK  7 active torsions:
REMARK  status: ('A' for Active; 'I' for Inactive)
REMARK    1  A    between atoms: O_2  and  C_3
REMARK    2  A    between atoms: C_6  and  C_11
REMARK    3  A    between atoms: C_8  and  O_9
REMARK    4  A    between atoms: C_15  and  C_17
REMARK    5  A    between atoms: C_24  and  C_25
REMARK    6  A    between atoms: C_25  and  N_26
REMARK    7  A    between atoms: C_27  and  C_29
REMARK                            x       y       z     vdW  Elec       q    Type
REMARK                         _______ _______ _______ _____ _____    ______ ____
ROOT
ATOM     11  C   UNL     1      -4.158  -0.200  24.719  0.00  0.00    +0.102 A 
ATOM     12  N   UNL     1      -4.881   0.078  25.004  0.00  0.00    -0.170 NA
ATOM     13  N   UNL     1      -4.823   0.897  25.088  0.00  0.00    -0.253 N 
ATOM     14  C   UNL     1      -5.419   1.400  25.357  0.00  0.00    +0.153 C 
ATOM     15  C   UNL     1      -4.065   1.124  24.854  0.00  0.00    +0.058 A 
ATOM     16  C   UNL     1      -3.654   0.447  24.627  0.00  0.00    +0.035 A 
ENDROOT
BRANCH  15  17
ATOM     17  C   UNL     1      -3.770   1.896  24.850  0.00  0.00    +0.056 C 
ATOM     18  C   UNL     1      -3.593   2.214  25.538  0.00  0.00    +0.078 C 
ATOM     19  N   UNL     1      -3.514   2.574  24.799  0.00  0.00    -0.272 NA
ATOM     20  C   UNL     1      -3.837   1.883  24.081  0.00  0.00    +0.072 C 
ATOM     21  C   UNL     1      -3.949   1.722  23.457  0.00  0.00    +0.018 C 
ATOM     22  C   UNL     1      -3.690   2.257  24.129  0.00  0.00    +0.010 C 
ATOM     23  C   UNL     1      -3.403   3.054  23.899  0.00  0.00    +0.018 C 
ATOM     24  C   UNL     1      -3.217   3.401  24.553  0.00  0.00    +0.079 C 
BRANCH  24  25
ATOM     25  C   UNL     1      -2.922   4.109  24.857  0.00  0.00    +0.131 C 
BRANCH  25  26
ATOM     26  N   UNL     1      -2.158   4.352  24.665  0.00  0.00    -0.204 NA
ATOM     27  C   UNL     1      -1.777   4.919  25.127  0.00  0.00    +0.240 C 
ATOM     28  O   UNL     1      -2.160   5.243  25.781  0.00  0.00    -0.273 OA
BRANCH  27  29
ATOM     29  C   UNL     1      -1.012   5.163  24.935  0.00  0.00    +0.071 C 
ATOM     30  C   UNL     1      -0.248   5.406  24.743  0.00  0.00    +0.009 C 
ATOM     31  C   UNL     1      -1.304   5.902  24.712  0.00  0.00    +0.009 C 
ATOM     32  C   UNL     1      -0.721   4.424  25.158  0.00  0.00    +0.009 C 
ENDBRANCH  27  29
ENDBRANCH  25  26
ENDBRANCH  24  25
ENDBRANCH  15  17
BRANCH  11   6
ATOM      3  C   UNL     1      -3.600  -2.561  24.229  0.00  0.00    +0.172 A 
ATOM      4  C   UNL     1      -4.277  -2.221  23.903  0.00  0.00    +0.040 A 
ATOM      5  C   UNL     1      -4.463  -1.434  24.066  0.00  0.00    +0.005 A 
ATOM      6  C   UNL     1      -3.972  -0.987  24.556  0.00  0.00    +0.023 A 
ATOM      7  C   UNL     1      -3.295  -1.327  24.883  0.00  0.00    +0.042 A 
ATOM      8  C   UNL     1      -3.109  -2.115  24.719  0.00  0.00    +0.172 A 
BRANCH   3   2
ATOM      1  C   UNL     1      -3.950  -3.821  23.653  0.00  0.00    +0.253 C 
ATOM      2  O   UNL     1      -3.414  -3.348  24.066  0.00  0.00    -0.468 OA
ENDBRANCH   3   2
BRANCH   8   9
ATOM      9  O   UNL     1      -2.432  -2.455  25.046  0.00  0.00    -0.468 OA
ATOM     10  C   UNL     1      -1.717  -2.043  25.035  0.00  0.00    +0.253 C 
ENDBRANCH   8   9
ENDBRANCH  11   6
TORSDOF 7
ENDMDL
MODEL 3
REMARK VINA RESULT:      -8.7      3.651      5.183
REMARK  Name = 
REMARK  7 active torsions:
REMARK  status: ('A' for Active; 'I' for Inactive)
REMARK    1  A    between atoms: O_2  and  C_3
REMARK    2  A    between atoms: C_6  and  C_11
REMARK    3  A    between atoms: C_8  and  O_9
REMARK    4  A    between atoms: C_15  and  C_17
REMARK    5  A    between atoms: C_24  and  C_25
REMARK    6  A    between atoms: C_25  and  N_26
REMARK    7  A    between atoms: C_27  and  C_29
REMARK                            x       y       z     vdW  Elec       q    Type
REMARK                         _______ _______ _______ _____ _____    ______ ____
ROOT
ATOM     11  C   UNL     1      -3.042   3.111  25.065  0.00  0.00    +0.102 A 
ATOM     12  N   UNL     1      -3.825   3.231  25.297  0.00  0.00    -0.170 NA
ATOM     13  N   UNL     1      -4.236   2.526  25.176  0.00  0.00    -0.253 N 
ATOM     14  C   UNL     1      -5.036   2.398  25.334  0.00  0.00    +0.153 C 
ATOM     15  C   UNL     1      -3.708   1.972  24.869  0.00  0.00    +0.058 A 
ATOM     16  C   UNL     1      -2.970   2.333  24.800  0.00  0.00    +0.035 A 
ENDROOT
BRANCH  15  17
ATOM     17  C   UNL     1      -3.888   1.191  24.667  0.00  0.00    +0.056 C 
ATOM     18  C   UNL     1      -4.164   0.731  25.231  0.00  0.00    +0.078 C 
ATOM     19  N   UNL     1      -4.032   0.514  24.446  0.00  0.00    -0.272 NA
ATOM     20  C   UNL     1      -3.659   1.358  23.949  0.00  0.00    +0.072 C 
ATOM     21  C   UNL     1      -3.439   1.646  23.405  0.00  0.00    +0.018 C 
ATOM     22  C   UNL     1      -3.761   0.970  23.898  0.00  0.00    +0.010 C 
ATOM     23  C   UNL     1      -3.880   0.209  23.478  0.00  0.00    +0.018 C 
ATOM     24  C   UNL     1      -4.153  -0.274  24.002  0.00  0.00    +0.079 C 
BRANCH  24  25
ATOM     25  C   UNL     1      -4.408  -1.052  24.105  0.00  0.00    +0.131 C 
BRANCH  25  26
ATOM     26  N   UNL     1      -3.869  -1.636  24.327  0.00  0.00    -0.204 NA
ATOM     27  C   UNL     1      -4.051  -2.432  24.211  0.00  0.00    +0.240 C 
ATOM     28  O   UNL     1      -4.773  -2.644  23.872  0.00  0.00    -0.273 OA
BRANCH  27  29
ATOM     29  C   UNL     1      -3.513  -3.016  24.432  0.00  0.00    +0.071 C 
ATOM     30  C   UNL     1      -2.974  -3.600  24.654  0.00  0.00    +0.009 C 
ATOM     31  C   UNL     1      -3.518  -2.728  25.205  0.00  0.00    +0.009 C 
ATOM     32  C   UNL     1      -3.507  -3.304  23.659  0.00  0.00    +0.009 C 
ENDBRANCH  27  29
ENDBRANCH  25  26
ENDBRANCH  24  25
ENDBRANCH  15  17
BRANCH  11   6
ATOM      3  C   UNL     1      -1.228   4.793  25.146  0.00  0.00    +0.172 A 
ATOM      4  C   UNL     1      -1.999   5.027  24.971  0.00  0.00    +0.040 A 
ATOM      5  C   UNL     1      -2.604   4.466  24.944  0.00  0.00    +0.005 A 
ATOM      6  C   UNL     1      -2.438   3.672  25.092  0.00  0.00    +0.023 A 
ATOM      7  C   UNL     1      -1.666   3.438  25.267  0.00  0.00    +0.042 A 
ATOM      8  C   UNL     1      -1.061   3.999  25.294  0.00  0.00    +0.172 A 
BRANCH   3   2
ATOM      1  C   UNL     1      -0.689   6.052  24.739  0.00  0.00    +0.253 C 
ATOM      2  O   UNL     1      -0.623   5.353  25.174  0.00  0.00    -0.468 OA
ENDBRANCH   3   2
BRANCH   8   9
ATOM      9  O   UNL     1      -0.289   3.765  25.469  0.00  0.00    -0.468 OA
ATOM     10  C   UNL     1      -0.142   3.002  25.746  0.00  0.00    +0.253 C 
ENDBRANCH   8   9
ENDBRANCH  11   6
TORSDOF 7
ENDMDL
MODEL 4
REMARK VINA RESULT:      -8.6      2.604      4.397
REMARK  Name = 
REMARK  7 active torsions:
REMARK  status: ('A' for Active; 'I' for Inactive)
REMARK    1  A    between atoms: O_2  and  C_3
REMARK    2  A    between atoms: C_6  and  C_11
REMARK    3  A    between atoms: C_8  and  O_9
REMARK    4  A    between atoms: C_15  and  C_17
REMARK    5  A    between atoms: C_24  and  C_25
REMARK    6  A    between atoms: C_25  and  N_26
REMARK    7  A    between atoms: C_27  and  C_29
REMARK                            x       y       z     vdW  Elec       q    Type
REMARK                         _______ _______ _______ _____ _____    ______ ____
ROOT
ATOM     11  C   UNL     1      -0.769   2.723  24.714  0.00  0.00    +0.102 A 
ATOM     12  N   UNL     1      -0.042   2.499  24.396  0.00  0.00    -0.170 NA
ATOM     13  N   UNL     1      -0.033   1.677  24.336  0.00  0.00    -0.253 N 
ATOM     14  C   UNL     1       0.589   1.218  24.045  0.00  0.00    +0.153 C 
ATOM     15  C   UNL     1      -0.754   1.392  24.617  0.00  0.00    +0.058 A 
ATOM     16  C   UNL     1      -1.209   2.038  24.852  0.00  0.00    +0.035 A 
ENDROOT
BRANCH  15  17
ATOM     17  C   UNL     1      -0.980   0.599  24.658  0.00  0.00    +0.056 C 
ATOM     18  C   UNL     1      -1.151   0.242  23.987  0.00  0.00    +0.078 C 
ATOM     19  N   UNL     1      -1.174  -0.097  24.739  0.00  0.00    -0.272 NA
ATOM     20  C   UNL     1      -0.890   0.645  25.423  0.00  0.00    +0.072 C 
ATOM     21  C   UNL     1      -0.772   0.837  26.036  0.00  0.00    +0.018 C 
ATOM     22  C   UNL     1      -1.005   0.258  25.392  0.00  0.00    +0.010 C 
ATOM     23  C   UNL     1      -1.213  -0.552  25.658  0.00  0.00    +0.018 C 
ATOM     24  C   UNL     1      -1.389  -0.937  25.023  0.00  0.00    +0.079 C 
BRANCH  24  25
ATOM     25  C   UNL     1      -1.631  -1.678  24.754  0.00  0.00    +0.131 C 
BRANCH  25  26
ATOM     26  N   UNL     1      -2.434  -1.863  24.723  0.00  0.00    -0.204 NA
ATOM     27  C   UNL     1      -2.685  -2.553  24.347  0.00  0.00    +0.240 C 
ATOM     28  O   UNL     1      -2.132  -3.058  24.001  0.00  0.00    -0.273 OA
BRANCH  27  29
ATOM     29  C   UNL     1      -3.488  -2.738  24.317  0.00  0.00    +0.071 C 
ATOM     30  C   UNL     1      -4.292  -2.923  24.286  0.00  0.00    +0.009 C 
ATOM     31  C   UNL     1      -3.562  -2.302  23.621  0.00  0.00    +0.009 C 
ATOM     32  C   UNL     1      -3.414  -3.175  25.013  0.00  0.00    +0.009 C 
ENDBRANCH  27  29
ENDBRANCH  25  26
ENDBRANCH  24  25
ENDBRANCH  15  17
BRANCH  11   6
ATOM      3  C   UNL     1      -1.503   5.041  25.179  0.00  0.00    +0.172 A 
ATOM      4  C   UNL     1      -0.823   4.905  24.733  0.00  0.00    +0.040 A 
ATOM      5  C   UNL     1      -0.578   4.133  24.578  0.00  0.00    +0.005 A 
ATOM      6  C   UNL     1      -1.014   3.495  24.869  0.00  0.00    +0.023 A 
ATOM      7  C   UNL     1      -1.694   3.631  25.316  0.00  0.00    +0.042 A 
ATOM      8  C   UNL     1      -1.939   4.404  25.471  0.00  0.00    +0.172 A 
BRANCH   3   2
ATOM      1  C   UNL     1      -1.453   6.437  24.881  0.00  0.00    +0.253 C 
ATOM      2  O   UNL     1      -1.748   5.813  25.334  0.00  0.00    -0.468 OA
ENDBRANCH   3   2
BRANCH   8   9
ATOM      9  O   UNL     1      -2.620   4.540  25.917  0.00  0.00    -0.468 OA
ATOM     10  C   UNL     1      -3.147   3.922  26.063  0.00  0.00    +0.253 C 
ENDBRANCH   8   9
ENDBRANCH  11   6
TORSDOF 7
ENDMDL
MODEL 5
REMARK VINA RESULT:      -8.2      1.205      1.776
REMARK  Name = 
REMARK  7 active torsions:
REMARK  status: ('A' for Active; 'I' for Inactive)
REMARK    1  A    between atoms: O_2  and  C_3
REMARK    2  A    between atoms: C_6  and  C_11
REMARK    3  A    between atoms: C_8  and  O_9
REMARK    4  A    between atoms: C_15  and  C_17
REMARK    5  A    between atoms: C_24  and  C_25
REMARK    6  A    between atoms: C_25  and  N_26
REMARK    7  A    between atoms: C_27  and  C_29
REMARK                            x       y       z     vdW  Elec       q    Type
REMARK                         _______ _______ _______ _____ _____    ______ ____
ROOT
ATOM     11  C   UNL     1      -3.558   1.927  24.200  0.00  0.00    +0.102 A 
ATOM     12  N   UNL     1      -3.498   2.129  23.403  0.00  0.00    -0.170 NA
ATOM     13  N   UNL     1      -2.759   1.881  23.132  0.00  0.00    -0.253 N 
ATOM     14  C   UNL     1      -2.467   1.972  22.366  0.00  0.00    +0.153 C 
ATOM     15  C   UNL     1      -2.363   1.525  23.763  0.00  0.00    +0.058 A 
ATOM     16  C   UNL     1      -2.856   1.554  24.423  0.00  0.00    +0.035 A 
ENDROOT
BRANCH  15  17
ATOM     17  C   UNL     1      -1.605   1.198  23.737  0.00  0.00    +0.056 C 
ATOM     18  C   UNL     1      -1.521   0.523  23.359  0.00  0.00    +0.078 C 
ATOM     19  N   UNL     1      -0.923   0.947  23.738  0.00  0.00    -0.272 NA
ATOM     20  C   UNL     1      -1.363   1.807  24.146  0.00  0.00    +0.072 C 
ATOM     21  C   UNL     1      -1.315   2.364  24.483  0.00  0.00    +0.018 C 
ATOM     22  C   UNL     1      -1.013   1.609  24.106  0.00  0.00    +0.010 C 
ATOM     23  C   UNL     1      -0.155   1.447  24.199  0.00  0.00    +0.018 C 
ATOM     24  C   UNL     1      -0.030   0.786  23.839  0.00  0.00    +0.079 C 
BRANCH  24  25
ATOM     25  C   UNL     1       0.563   0.245  23.652  0.00  0.00    +0.131 C 
BRANCH  25  26
ATOM     26  N   UNL     1       1.157   0.453  23.119  0.00  0.00    -0.204 NA
ATOM     27  C   UNL     1       1.779  -0.068  22.969  0.00  0.00    +0.240 C 
ATOM     28  O   UNL     1       1.806  -0.798  23.353  0.00  0.00    -0.273 OA
BRANCH  27  29
ATOM     29  C   UNL     1       2.373   0.140  22.436  0.00  0.00    +0.071 C 
ATOM     30  C   UNL     1       2.967   0.348  21.903  0.00  0.00    +0.009 C 
ATOM     31  C   UNL     1       2.801   0.489  23.049  0.00  0.00    +0.009 C 
ATOM     32  C   UNL     1       1.945  -0.210  21.823  0.00  0.00    +0.009 C 
ENDBRANCH  27  29
ENDBRANCH  25  26
ENDBRANCH  24  25
ENDBRANCH  15  17
BRANCH  11   6
ATOM      3  C   UNL     1      -5.502   2.365  25.668  0.00  0.00    +0.172 A 
ATOM      4  C   UNL     1      -5.338   1.596  25.420  0.00  0.00    +0.040 A 
ATOM      5  C   UNL     1      -4.690   1.450  24.930  0.00  0.00    +0.005 A 
ATOM      6  C   UNL     1      -4.206   2.073  24.689  0.00  0.00    +0.023 A 
ATOM      7  C   UNL     1      -4.370   2.842  24.938  0.00  0.00    +0.042 A 
ATOM      8  C   UNL     1      -5.018   2.988  25.428  0.00  0.00    +0.172 A 
BRANCH   3   2
ATOM      1  C   UNL     1      -6.504   1.889  26.568  0.00  0.00    +0.253 C 
ATOM      2  O   UNL     1      -6.150   2.511  26.158  0.00  0.00    -0.468 OA
ENDBRANCH   3   2
BRANCH   8   9
ATOM      9  O   UNL     1      -5.183   3.758  25.677  0.00  0.00    -0.468 OA
ATOM     10  C   UNL     1      -4.674   4.374  25.472  0.00  0.00    +0.253 C 
ENDBRANCH   8   9
ENDBRANCH  11   6
TORSDOF 7
ENDMDL
MODEL 6
REMARK VINA RESULT:      -8.2      1.004      6.332
REMARK  Name = 
REMARK  7 active torsions:
REMARK  status: ('A' for Active; 'I' for Inactive)
REMARK    1  A    between atoms: O_2  and  C_3
REMARK    2  A    between atoms: C_6  and  C_11
REMARK    3  A    between atoms: C_8  and  O_9
REMARK    4  A    between atoms: C_15  and  C_17
REMARK    5  A    between atoms: C_24  and  C_25
REMARK    6  A    between atoms: C_25  and  N_26
REMARK    7  A    between atoms: C_27  and  C_29
REMARK                            x       y       z     vdW  Elec       q    Type
REMARK                         _______ _______ _______ _____ _____    ______ ____
ROOT
ATOM     11  C   UNL     1       0.170   0.363  23.748  0.00  0.00    +0.102 A 
ATOM     12  N   UNL     1      -0.126  -0.235  24.233  0.00  0.00    -0.170 NA
ATOM     13  N   UNL     1      -0.884  -0.016  24.472  0.00  0.00    -0.253 N 
ATOM     14  C   UNL     1      -1.383  -0.453  24.963  0.00  0.00    +0.153 C 
ATOM     15  C   UNL     1      -1.056   0.717  24.135  0.00  0.00    +0.058 A 
ATOM     16  C   UNL     1      -0.405   0.952  23.687  0.00  0.00    +0.035 A 
ENDROOT
BRANCH  15  17
ATOM     17  C   UNL     1      -1.758   1.142  24.230  0.00  0.00    +0.056 C 
ATOM     18  C   UNL     1      -2.396   0.858  23.885  0.00  0.00    +0.078 C 
ATOM     19  N   UNL     1      -2.353   1.546  24.339  0.00  0.00    -0.272 NA
ATOM     20  C   UNL     1      -1.358   1.646  24.657  0.00  0.00    +0.072 C 
ATOM     21  C   UNL     1      -0.897   1.972  24.985  0.00  0.00    +0.018 C 
ATOM     22  C   UNL     1      -1.724   1.818  24.675  0.00  0.00    +0.010 C 
ATOM     23  C   UNL     1      -2.336   2.407  24.898  0.00  0.00    +0.018 C 
ATOM     24  C   UNL     1      -2.983   2.162  24.576  0.00  0.00    +0.079 C 
BRANCH  24  25
ATOM     25  C   UNL     1      -3.782   2.347  24.491  0.00  0.00    +0.131 C 
BRANCH  25  26
ATOM     26  N   UNL     1      -4.302   2.224  25.120  0.00  0.00    -0.204 NA
ATOM     27  C   UNL     1      -5.110   2.353  25.018  0.00  0.00    +0.240 C 
ATOM     28  O   UNL     1      -5.399   2.605  24.287  0.00  0.00    -0.273 OA
BRANCH  27  29
ATOM     29  C   UNL     1      -5.630   2.231  25.647  0.00  0.00    +0.071 C 
ATOM     30  C   UNL     1      -6.151   2.108  26.275  0.00  0.00    +0.009 C 
ATOM     31  C   UNL     1      -5.472   2.991  25.926  0.00  0.00    +0.009 C 
ATOM     32  C   UNL     1      -5.789   1.471  25.367  0.00  0.00    +0.009 C 
ENDBRANCH  27  29
ENDBRANCH  25  26
ENDBRANCH  24  25
ENDBRANCH  15  17
BRANCH  11   6
ATOM      3  C   UNL     1       2.395   0.386  22.662  0.00  0.00    +0.172 A 
ATOM      4  C   UNL     1       2.281   0.781  23.377  0.00  0.00    +0.040 A 
ATOM      5  C   UNL     1       1.539   0.773  23.738  0.00  0.00    +0.005 A 
ATOM      6  C   UNL     1       0.912   0.371  23.386  0.00  0.00    +0.023 A 
ATOM      7  C   UNL     1       1.026  -0.025  22.671  0.00  0.00    +0.042 A 
ATOM      8  C   UNL     1       1.768  -0.017  22.308  0.00  0.00    +0.172 A 
BRANCH   3   2
ATOM      1  C   UNL     1       3.771   0.769  22.670  0.00  0.00    +0.253 C 
ATOM      2  O   UNL     1       3.136   0.394  22.300  0.00  0.00    -0.468 OA
ENDBRANCH   3   2
BRANCH   8   9
ATOM      9  O   UNL     1       1.882  -0.412  21.593  0.00  0.00    -0.468 OA
ATOM     10  C   UNL     1       1.237  -0.740  21.196  0.00  0.00    +0.253 C 
ENDBRANCH   8   9
ENDBRANCH  11   6
TORSDOF 7
ENDMDL
