MODEL 1
REMARK VINA RESULT:     -13.8      0.000      0.000
REMARK  Name = 
REMARK  6 active torsions:
REMARK  status: ('A' for Active; 'I' for Inactive)
REMARK    1  A    between atoms: N_2  and  C_3
REMARK    2  A    between atoms: C_3  and  C_4
REMARK    3  A    between atoms: C_10  and  C_12
REMARK    4  A    between atoms: C_12  and  C_13
REMARK    5  A    between atoms: C_18  and  C_20
REMARK    6  A    between atoms: C_31  and  C_33
REMARK                            x       y       z     vdW  Elec       q    Type
REMARK                         _______ _______ _______ _____ _____    ______ ____
ROOT
ATOM     13  C   UNL     1      -3.830   1.451  24.585  0.00  0.00    +0.050 C 
ATOM     14  C   UNL     1      -3.043   1.692  24.520  0.00  0.00    +0.063 A 
ATOM     15  C   UNL     1      -2.824   2.454  24.749  0.00  0.00    +0.023 A 
ATOM     16  C   UNL     1      -3.392   2.975  25.043  0.00  0.00    +0.034 C 
ATOM     17  C   UNL     1      -4.178   2.735  25.108  0.00  0.00    +0.010 C 
ATOM     18  C   UNL     1      -4.745   3.256  25.402  0.00  0.00    +0.059 C 
ATOM     19  C   UNL     1      -4.075   3.735  25.444  0.00  0.00    +0.005 C 
ATOM     22  C   UNL     1      -5.532   3.016  25.468  0.00  0.00    +0.154 C 
ATOM     23  O   UNL     1      -6.100   3.537  25.762  0.00  0.00    -0.223 OA
ATOM     24  C   UNL     1      -5.751   2.254  25.239  0.00  0.00    +0.033 C 
ATOM     25  C   UNL     1      -5.183   1.732  24.945  0.00  0.00    +0.003 C 
ATOM     26  C   UNL     1      -4.397   1.973  24.880  0.00  0.00    +0.006 C 
ATOM     27  C   UNL     1      -4.616   1.211  24.651  0.00  0.00    +0.000 C 
ATOM     28  S   UNL     1      -2.012   2.535  24.622  0.00  0.00    -0.054 S 
ATOM     29  C   UNL     1      -1.731   1.823  24.315  0.00  0.00    +0.185 A 
ATOM     30  N   UNL     1      -0.949   1.661  24.108  0.00  0.00    -0.151 NA
ATOM     31  C   UNL     1      -0.747   0.920  23.806  0.00  0.00    +0.271 C 
ATOM     32  O   UNL     1      -1.328   0.341  23.712  0.00  0.00    -0.268 OA
ATOM     40  N   UNL     1      -2.367   1.302  24.252  0.00  0.00    -0.227 NA
ENDROOT
BRANCH  31  33
ATOM     33  C   UNL     1       0.034   0.757  23.598  0.00  0.00    +0.056 A 
ATOM     34  C   UNL     1       0.629   1.301  23.772  0.00  0.00    +0.007 A 
ATOM     35  C   UNL     1       1.410   1.139  23.565  0.00  0.00    +0.030 A 
ATOM     36  C   UNL     1       1.598   0.432  23.183  0.00  0.00    +0.140 A 
ATOM     37  F   UNL     1       2.380   0.270  22.975  0.00  0.00    -0.204 F 
ATOM     38  C   UNL     1       1.003  -0.113  23.008  0.00  0.00    +0.030 A 
ATOM     39  C   UNL     1       0.221   0.050  23.216  0.00  0.00    +0.007 A 
ENDBRANCH  31  33
BRANCH  18  20
ATOM     20  C   UNL     1      -5.081   3.944  25.711  0.00  0.00    +0.184 C 
ATOM     21  O   UNL     1      -4.598   4.576  25.931  0.00  0.00    -0.220 OA
ENDBRANCH  18  20
BRANCH  13  12
ATOM     12  C   UNL     1      -4.049   0.690  24.357  0.00  0.00    +0.091 C 
BRANCH  12  10
ATOM      1  C   UNL     1      -4.193  -0.856  23.799  0.00  0.00    +0.115 C 
ATOM      2  N   UNL     1      -3.995  -0.719  24.587  0.00  0.00    -0.274 N 
ATOM     10  C   UNL     1      -3.923   0.054  24.866  0.00  0.00    +0.226 C 
ATOM     11  O   UNL     1      -3.724   0.191  25.655  0.00  0.00    -0.275 OA
BRANCH   2   3
ATOM      3  C   UNL     1      -3.869  -1.355  25.097  0.00  0.00    +0.120 C 
BRANCH   3   4
ATOM      4  C   UNL     1      -3.472  -2.026  24.828  0.00  0.00    -0.002 A 
ATOM      5  C   UNL     1      -2.661  -2.108  24.961  0.00  0.00    -0.003 A 
ATOM      6  C   UNL     1      -2.265  -2.780  24.692  0.00  0.00    -0.000 A 
ATOM      7  C   UNL     1      -2.679  -3.371  24.290  0.00  0.00    -0.000 A 
ATOM      8  C   UNL     1      -3.489  -3.289  24.158  0.00  0.00    -0.000 A 
ATOM      9  C   UNL     1      -3.885  -2.617  24.427  0.00  0.00    -0.003 A 
ENDBRANCH   3   4
ENDBRANCH   2   3
ENDBRANCH  12  10
ENDBRANCH  13  12
TORSDOF 6
ENDMDL
MODEL 2
REMARK VINA RESULT:     -13.7      2.307      5.665
REMARK  Name = 
REMARK  6 active torsions:
REMARK  status: ('A' for Active; 'I' for Inactive)
REMARK    1  A    between atoms: N_2  and  C_3
REMARK    2  A    between atoms: C_3  and  C_4
REMARK    3  A    between atoms: C_10  and  C_12
REMARK    4  A    between atoms: C_12  and  C_13
REMARK    5  A    between atoms: C_18  and  C_20
REMARK    6  A    between atoms: C_31  and  C_33
REMARK                            x       y       z     vdW  Elec       q    Type
REMARK                         _______ _______ _______ _____ _____    ______ ____
ROOT
ATOM     13  C   UNL     1      -2.503  -0.278  25.042  0.00  0.00    +0.050 C 
ATOM     14  C   UNL     1      -3.239   0.092  24.975  0.00  0.00    +0.063 A 
ATOM     15  C   UNL     1      -3.893  -0.335  24.710  0.00  0.00    +0.023 A 
ATOM     16  C   UNL     1      -3.812  -1.132  24.513  0.00  0.00    +0.034 C 
ATOM     17  C   UNL     1      -3.078  -1.502  24.580  0.00  0.00    +0.010 C 
ATOM     18  C   UNL     1      -2.998  -2.298  24.383  0.00  0.00    +0.059 C 
ATOM     19  C   UNL     1      -3.802  -2.193  24.229  0.00  0.00    +0.005 C 
ATOM     22  C   UNL     1      -2.264  -2.669  24.450  0.00  0.00    +0.154 C 
ATOM     23  O   UNL     1      -2.183  -3.466  24.252  0.00  0.00    -0.223 OA
ATOM     24  C   UNL     1      -1.609  -2.242  24.714  0.00  0.00    +0.033 C 
ATOM     25  C   UNL     1      -1.689  -1.444  24.912  0.00  0.00    +0.003 C 
ATOM     26  C   UNL     1      -2.424  -1.075  24.844  0.00  0.00    +0.006 C 
ATOM     27  C   UNL     1      -1.770  -0.648  25.109  0.00  0.00    +0.000 C 
ATOM     28  S   UNL     1      -4.543   0.174  24.700  0.00  0.00    -0.054 S 
ATOM     29  C   UNL     1      -4.290   0.914  24.958  0.00  0.00    +0.185 A 
ATOM     30  N   UNL     1      -4.760   1.588  25.034  0.00  0.00    -0.151 NA
ATOM     31  C   UNL     1      -4.428   2.295  25.300  0.00  0.00    +0.271 C 
ATOM     32  O   UNL     1      -3.626   2.328  25.492  0.00  0.00    -0.268 OA
ATOM     40  N   UNL     1      -3.484   0.865  25.128  0.00  0.00    -0.227 NA
ENDROOT
BRANCH  31  33
ATOM     33  C   UNL     1      -4.898   2.969  25.376  0.00  0.00    +0.056 A 
ATOM     34  C   UNL     1      -5.676   2.901  25.641  0.00  0.00    +0.007 A 
ATOM     35  C   UNL     1      -6.146   3.575  25.716  0.00  0.00    +0.030 A 
ATOM     36  C   UNL     1      -5.839   4.316  25.526  0.00  0.00    +0.140 A 
ATOM     37  F   UNL     1      -6.309   4.990  25.602  0.00  0.00    -0.204 F 
ATOM     38  C   UNL     1      -5.060   4.384  25.261  0.00  0.00    +0.030 A 
ATOM     39  C   UNL     1      -4.590   3.710  25.186  0.00  0.00    +0.007 A 
ENDBRANCH  31  33
BRANCH  18  20
ATOM     20  C   UNL     1      -3.197  -3.059  24.132  0.00  0.00    +0.184 C 
ATOM     21  O   UNL     1      -3.982  -3.247  23.963  0.00  0.00    -0.220 OA
ENDBRANCH  18  20
BRANCH  13  12
ATOM     12  C   UNL     1      -1.850   0.149  25.306  0.00  0.00    +0.091 C 
BRANCH  12  10
ATOM      1  C   UNL     1      -0.774   1.251  25.898  0.00  0.00    +0.115 C 
ATOM      2  N   UNL     1      -0.914   1.206  25.087  0.00  0.00    -0.274 N 
ATOM     10  C   UNL     1      -1.452   0.655  24.791  0.00  0.00    +0.226 C 
ATOM     11  O   UNL     1      -1.592   0.610  23.979  0.00  0.00    -0.275 OA
BRANCH   2   3
ATOM      3  C   UNL     1      -0.516   1.712  24.571  0.00  0.00    +0.120 C 
BRANCH   3   4
ATOM      4  C   UNL     1      -0.543   2.528  24.691  0.00  0.00    -0.002 A 
ATOM      5  C   UNL     1      -0.814   3.025  24.090  0.00  0.00    -0.003 A 
ATOM      6  C   UNL     1      -0.841   3.841  24.210  0.00  0.00    -0.000 A 
ATOM      7  C   UNL     1      -0.598   4.160  24.932  0.00  0.00    -0.000 A 
ATOM      8  C   UNL     1      -0.328   3.663  25.532  0.00  0.00    -0.000 A 
ATOM      9  C   UNL     1      -0.301   2.847  25.412  0.00  0.00    -0.003 A 
ENDBRANCH   3   4
ENDBRANCH   2   3
ENDBRANCH  12  10
ENDBRANCH  13  12
TORSDOF 6
ENDMDL
MODEL 3
REMARK VINA RESULT:     -13.7      1.995      4.599
REMARK  Name = 
REMARK  6 active torsions:
REMARK  status: ('A' for Active; 'I' for Inactive)
REMARK    1  A    between atoms: N_2  and  C_3
REMARK    2  A    between atoms: C_3  and  C_4
REMARK    3  A    between atoms: C_10  and  C_12
REMARK    4  A    between atoms: C_12  and  C_13
REMARK    5  A    between atoms: C_18  and  C_20
REMARK    6  A    between atoms: C_31  and  C_33
REMARK                            x       y       z     vdW  Elec       q    Type
REMARK                         _______ _______ _______ _____ _____    ______ ____
ROOT
ATOM     13  C   UNL     1      -3.379  -0.095  24.403  0.00  0.00    +0.050 C 
ATOM     14  C   UNL     1      -2.694   0.349  24.529  0.00  0.00    +0.063 A 
ATOM     15  C   UNL     1      -1.973  -0.032  24.657  0.00  0.00    +0.023 A 
ATOM     16  C   UNL     1      -1.937  -0.856  24.660  0.00  0.00    +0.034 C 
ATOM     17  C   UNL     1      -2.621  -1.300  24.535  0.00  0.00    +0.010 C 
ATOM     18  C   UNL     1      -2.584  -2.123  24.538  0.00  0.00    +0.059 C 
ATOM     19  C   UNL     1      -1.792  -1.944  24.681  0.00  0.00    +0.005 C 
ATOM     22  C   UNL     1      -3.268  -2.568  24.412  0.00  0.00    +0.154 C 
ATOM     23  O   UNL     1      -3.232  -3.392  24.415  0.00  0.00    -0.223 OA
ATOM     24  C   UNL     1      -3.989  -2.187  24.284  0.00  0.00    +0.033 C 
ATOM     25  C   UNL     1      -4.026  -1.363  24.281  0.00  0.00    +0.003 C 
ATOM     26  C   UNL     1      -3.341  -0.919  24.406  0.00  0.00    +0.006 C 
ATOM     27  C   UNL     1      -4.062  -0.539  24.278  0.00  0.00    +0.000 C 
ATOM     28  S   UNL     1      -1.395   0.548  24.764  0.00  0.00    -0.054 S 
ATOM     29  C   UNL     1      -1.759   1.284  24.702  0.00  0.00    +0.185 A 
ATOM     30  N   UNL     1      -1.385   2.017  24.773  0.00  0.00    -0.151 NA
ATOM     31  C   UNL     1      -1.822   2.713  24.697  0.00  0.00    +0.271 C 
ATOM     32  O   UNL     1      -2.633   2.675  24.550  0.00  0.00    -0.268 OA
ATOM     40  N   UNL     1      -2.561   1.163  24.556  0.00  0.00    -0.227 NA
ENDROOT
BRANCH  31  33
ATOM     33  C   UNL     1      -1.449   3.445  24.768  0.00  0.00    +0.056 A 
ATOM     34  C   UNL     1      -0.696   3.556  24.449  0.00  0.00    +0.007 A 
ATOM     35  C   UNL     1      -0.323   4.288  24.520  0.00  0.00    +0.030 A 
ATOM     36  C   UNL     1      -0.701   4.909  24.909  0.00  0.00    +0.140 A 
ATOM     37  F   UNL     1      -0.328   5.641  24.980  0.00  0.00    -0.204 F 
ATOM     38  C   UNL     1      -1.455   4.797  25.228  0.00  0.00    +0.030 A 
ATOM     39  C   UNL     1      -1.829   4.065  25.157  0.00  0.00    +0.007 A 
ENDBRANCH  31  33
BRANCH  18  20
ATOM     20  C   UNL     1      -2.273  -2.886  24.590  0.00  0.00    +0.184 C 
ATOM     21  O   UNL     1      -1.456  -2.998  24.609  0.00  0.00    -0.220 OA
ENDBRANCH  18  20
BRANCH  13  12
ATOM     12  C   UNL     1      -4.099   0.285  24.275  0.00  0.00    +0.091 C 
BRANCH  12  10
ATOM      1  C   UNL     1      -5.247   1.444  24.031  0.00  0.00    +0.115 C 
ATOM      2  N   UNL     1      -5.103   1.160  24.791  0.00  0.00    -0.274 N 
ATOM     10  C   UNL     1      -4.529   0.580  24.913  0.00  0.00    +0.226 C 
ATOM     11  O   UNL     1      -4.384   0.296  25.674  0.00  0.00    -0.275 OA
BRANCH   2   3
ATOM      3  C   UNL     1      -5.533   1.455  25.430  0.00  0.00    +0.120 C 
BRANCH   3   4
ATOM      4  C   UNL     1      -5.582   2.269  25.553  0.00  0.00    -0.002 A 
ATOM      5  C   UNL     1      -5.256   2.604  26.234  0.00  0.00    -0.003 A 
ATOM      6  C   UNL     1      -5.305   3.418  26.357  0.00  0.00    -0.000 A 
ATOM      7  C   UNL     1      -5.679   3.899  25.800  0.00  0.00    -0.000 A 
ATOM      8  C   UNL     1      -6.004   3.564  25.120  0.00  0.00    -0.000 A 
ATOM      9  C   UNL     1      -5.955   2.750  24.997  0.00  0.00    -0.003 A 
ENDBRANCH   3   4
ENDBRANCH   2   3
ENDBRANCH  12  10
ENDBRANCH  13  12
TORSDOF 6
ENDMDL
MODEL 4
REMARK VINA RESULT:     -13.5      2.195      4.534
REMARK  Name = 
REMARK  6 active torsions:
REMARK  status: ('A' for Active; 'I' for Inactive)
REMARK    1  A    between atoms: N_2  and  C_3
REMARK    2  A    between atoms: C_3  and  C_4
REMARK    3  A    between atoms: C_10  and  C_12
REMARK    4  A    between atoms: C_12  and  C_13
REMARK    5  A    between atoms: C_18  and  C_20
REMARK    6  A    between atoms: C_31  and  C_33
REMARK                            x       y       z     vdW  Elec       q    Type
REMARK                         _______ _______ _______ _____ _____    ______ ____
ROOT
ATOM     13  C   UNL     1      -1.792   0.247  24.436  0.00  0.00    +0.050 C 
ATOM     14  C   UNL     1      -1.081  -0.109  24.212  0.00  0.00    +0.063 A 
ATOM     15  C   UNL     1      -0.987  -0.926  24.287  0.00  0.00    +0.023 A 
ATOM     16  C   UNL     1      -1.604  -1.386  24.586  0.00  0.00    +0.034 C 
ATOM     17  C   UNL     1      -2.313  -1.030  24.809  0.00  0.00    +0.010 C 
ATOM     18  C   UNL     1      -2.929  -1.490  25.108  0.00  0.00    +0.059 C 
ATOM     19  C   UNL     1      -2.365  -2.077  24.972  0.00  0.00    +0.005 C 
ATOM     22  C   UNL     1      -3.639  -1.135  25.331  0.00  0.00    +0.154 C 
ATOM     23  O   UNL     1      -4.256  -1.595  25.630  0.00  0.00    -0.223 OA
ATOM     24  C   UNL     1      -3.734  -0.319  25.256  0.00  0.00    +0.033 C 
ATOM     25  C   UNL     1      -3.117   0.142  24.957  0.00  0.00    +0.003 C 
ATOM     26  C   UNL     1      -2.407  -0.214  24.734  0.00  0.00    +0.006 C 
ATOM     27  C   UNL     1      -2.502   0.602  24.659  0.00  0.00    +0.000 C 
ATOM     28  S   UNL     1      -0.229  -1.120  24.024  0.00  0.00    -0.054 S 
ATOM     29  C   UNL     1       0.144  -0.425  23.786  0.00  0.00    +0.185 A 
ATOM     30  N   UNL     1       0.909  -0.364  23.485  0.00  0.00    -0.151 NA
ATOM     31  C   UNL     1       1.211   0.373  23.269  0.00  0.00    +0.271 C 
ATOM     32  O   UNL     1       0.746   1.049  23.354  0.00  0.00    -0.268 OA
ATOM     40  N   UNL     1      -0.382   0.200  23.902  0.00  0.00    -0.227 NA
ENDROOT
BRANCH  31  33
ATOM     33  C   UNL     1       1.976   0.434  22.968  0.00  0.00    +0.056 A 
ATOM     34  C   UNL     1       2.204  -0.029  22.324  0.00  0.00    +0.007 A 
ATOM     35  C   UNL     1       2.969   0.032  22.023  0.00  0.00    +0.030 A 
ATOM     36  C   UNL     1       3.508   0.555  22.365  0.00  0.00    +0.140 A 
ATOM     37  F   UNL     1       4.273   0.616  22.064  0.00  0.00    -0.204 F 
ATOM     38  C   UNL     1       3.280   1.018  23.009  0.00  0.00    +0.030 A 
ATOM     39  C   UNL     1       2.514   0.958  23.311  0.00  0.00    +0.007 A 
ENDBRANCH  31  33
BRANCH  18  20
ATOM     20  C   UNL     1      -3.349  -2.155  25.359  0.00  0.00    +0.184 C 
ATOM     21  O   UNL     1      -3.181  -2.896  25.040  0.00  0.00    -0.220 OA
ENDBRANCH  18  20
BRANCH  13  12
ATOM     12  C   UNL     1      -1.886   1.062  24.360  0.00  0.00    +0.091 C 
BRANCH  12  10
ATOM      1  C   UNL     1      -1.906   2.694  24.122  0.00  0.00    +0.115 C 
ATOM      2  N   UNL     1      -1.596   2.384  24.820  0.00  0.00    -0.274 N 
ATOM     10  C   UNL     1      -1.586   1.567  24.939  0.00  0.00    +0.226 C 
ATOM     11  O   UNL     1      -1.275   1.256  25.636  0.00  0.00    -0.275 OA
BRANCH   2   3
ATOM      3  C   UNL     1      -1.296   2.888  25.398  0.00  0.00    +0.120 C 
BRANCH   3   4
ATOM      4  C   UNL     1      -1.329   3.706  25.290  0.00  0.00    -0.002 A 
ATOM      5  C   UNL     1      -1.992   4.128  25.543  0.00  0.00    -0.003 A 
ATOM      6  C   UNL     1      -2.026   4.946  25.436  0.00  0.00    -0.000 A 
ATOM      7  C   UNL     1      -1.397   5.341  25.075  0.00  0.00    -0.000 A 
ATOM      8  C   UNL     1      -0.736   4.918  24.822  0.00  0.00    -0.000 A 
ATOM      9  C   UNL     1      -0.702   4.101  24.930  0.00  0.00    -0.003 A 
ENDBRANCH   3   4
ENDBRANCH   2   3
ENDBRANCH  12  10
ENDBRANCH  13  12
TORSDOF 6
ENDMDL
MODEL 5
REMARK VINA RESULT:     -12.4      1.567      3.854
REMARK  Name = 
REMARK  6 active torsions:
REMARK  status: ('A' for Active; 'I' for Inactive)
REMARK    1  A    between atoms: N_2  and  C_3
REMARK    2  A    between atoms: C_3  and  C_4
REMARK    3  A    between atoms: C_10  and  C_12
REMARK    4  A    between atoms: C_12  and  C_13
REMARK    5  A    between atoms: C_18  and  C_20
REMARK    6  A    between atoms: C_31  and  C_33
REMARK                            x       y       z     vdW  Elec       q    Type
REMARK                         _______ _______ _______ _____ _____    ______ ____
ROOT
ATOM     13  C   UNL     1      -3.616   2.303  24.517  0.00  0.00    +0.050 C 
ATOM     14  C   UNL     1      -3.985   1.581  24.672  0.00  0.00    +0.063 A 
ATOM     15  C   UNL     1      -4.717   1.565  25.052  0.00  0.00    +0.023 A 
ATOM     16  C   UNL     1      -5.080   2.271  25.277  0.00  0.00    +0.034 C 
ATOM     17  C   UNL     1      -4.712   2.992  25.123  0.00  0.00    +0.010 C 
ATOM     18  C   UNL     1      -5.075   3.697  25.348  0.00  0.00    +0.059 C 
ATOM     19  C   UNL     1      -5.638   3.155  25.613  0.00  0.00    +0.005 C 
ATOM     22  C   UNL     1      -4.707   4.419  25.194  0.00  0.00    +0.154 C 
ATOM     23  O   UNL     1      -5.069   5.125  25.420  0.00  0.00    -0.223 OA
ATOM     24  C   UNL     1      -3.975   4.436  24.814  0.00  0.00    +0.033 C 
ATOM     25  C   UNL     1      -3.611   3.730  24.588  0.00  0.00    +0.003 C 
ATOM     26  C   UNL     1      -3.980   3.008  24.743  0.00  0.00    +0.006 C 
ATOM     27  C   UNL     1      -3.248   3.025  24.363  0.00  0.00    +0.000 C 
ATOM     28  S   UNL     1      -4.946   0.776  25.130  0.00  0.00    -0.054 S 
ATOM     29  C   UNL     1      -4.356   0.306  24.799  0.00  0.00    +0.185 A 
ATOM     30  N   UNL     1      -4.360  -0.518  24.758  0.00  0.00    -0.151 NA
ATOM     31  C   UNL     1      -3.727  -0.917  24.407  0.00  0.00    +0.271 C 
ATOM     32  O   UNL     1      -3.092  -0.490  24.099  0.00  0.00    -0.268 OA
ATOM     40  N   UNL     1      -3.762   0.802  24.515  0.00  0.00    -0.227 NA
ENDROOT
BRANCH  31  33
ATOM     33  C   UNL     1      -3.730  -1.741  24.366  0.00  0.00    +0.056 A 
ATOM     34  C   UNL     1      -4.186  -2.123  23.796  0.00  0.00    +0.007 A 
ATOM     35  C   UNL     1      -4.189  -2.947  23.755  0.00  0.00    +0.030 A 
ATOM     36  C   UNL     1      -3.736  -3.389  24.284  0.00  0.00    +0.140 A 
ATOM     37  F   UNL     1      -3.739  -4.213  24.243  0.00  0.00    -0.204 F 
ATOM     38  C   UNL     1      -3.279  -3.005  24.855  0.00  0.00    +0.030 A 
ATOM     39  C   UNL     1      -3.276  -2.181  24.896  0.00  0.00    +0.007 A 
ENDBRANCH  31  33
BRANCH  18  20
ATOM     20  C   UNL     1      -5.634   4.215  25.666  0.00  0.00    +0.184 C 
ATOM     21  O   UNL     1      -6.390   3.944  25.851  0.00  0.00    -0.220 OA
ENDBRANCH  18  20
BRANCH  13  12
ATOM     12  C   UNL     1      -2.885   2.320  24.137  0.00  0.00    +0.091 C 
BRANCH  12  10
ATOM      1  C   UNL     1      -1.468   2.044  23.338  0.00  0.00    +0.115 C 
ATOM      2  N   UNL     1      -1.487   2.024  24.162  0.00  0.00    -0.274 N 
ATOM     10  C   UNL     1      -2.196   2.162  24.562  0.00  0.00    +0.226 C 
ATOM     11  O   UNL     1      -2.216   2.141  25.386  0.00  0.00    -0.275 OA
BRANCH   2   3
ATOM      3  C   UNL     1      -0.798   1.866  24.587  0.00  0.00    +0.120 C 
BRANCH   3   4
ATOM      4  C   UNL     1      -0.184   1.443  24.235  0.00  0.00    -0.002 A 
ATOM      5  C   UNL     1      -0.284   0.643  24.055  0.00  0.00    -0.003 A 
ATOM      6  C   UNL     1       0.330   0.219  23.702  0.00  0.00    -0.000 A 
ATOM      7  C   UNL     1       1.044   0.595  23.529  0.00  0.00    -0.000 A 
ATOM      8  C   UNL     1       1.144   1.394  23.709  0.00  0.00    -0.000 A 
ATOM      9  C   UNL     1       0.530   1.817  24.062  0.00  0.00    -0.003 A 
ENDBRANCH   3   4
ENDBRANCH   2   3
ENDBRANCH  12  10
ENDBRANCH  13  12
TORSDOF 6
ENDMDL
MODEL 6
REMARK VINA RESULT:     -12.3      2.128      4.407
REMARK  Name = 
REMARK  6 active torsions:
REMARK  status: ('A' for Active; 'I' for Inactive)
REMARK    1  A    between atoms: N_2  and  C_3
REMARK    2  A    between atoms: C_3  and  C_4
REMARK    3  A    between atoms: C_10  and  C_12
REMARK    4  A    between atoms: C_12  and  C_13
REMARK    5  A    between atoms: C_18  and  C_20
REMARK    6  A    between atoms: C_31  and  C_33
REMARK                            x       y       z     vdW  Elec       q    Type
REMARK                         _______ _______ _______ _____ _____    ______ ____
ROOT
ATOM     13  C   UNL     1      -2.343   3.066  25.253  0.00  0.00    +0.050 C 
ATOM     14  C   UNL     1      -2.165   2.321  24.944  0.00  0.00    +0.063 A 
ATOM     15  C   UNL     1      -1.484   2.213  24.492  0.00  0.00    +0.023 A 
ATOM     16  C   UNL     1      -0.980   2.851  24.349  0.00  0.00    +0.034 C 
ATOM     17  C   UNL     1      -1.156   3.595  24.657  0.00  0.00    +0.010 C 
ATOM     18  C   UNL     1      -0.652   4.231  24.514  0.00  0.00    +0.059 C 
ATOM     19  C   UNL     1      -0.252   3.636  24.106  0.00  0.00    +0.005 C 
ATOM     22  C   UNL     1      -0.829   4.976  24.822  0.00  0.00    +0.154 C 
ATOM     23  O   UNL     1      -0.325   5.613  24.679  0.00  0.00    -0.223 OA
ATOM     24  C   UNL     1      -1.510   5.083  25.274  0.00  0.00    +0.033 C 
ATOM     25  C   UNL     1      -2.015   4.446  25.418  0.00  0.00    +0.003 C 
ATOM     26  C   UNL     1      -1.838   3.702  25.109  0.00  0.00    +0.006 C 
ATOM     27  C   UNL     1      -2.519   3.810  25.562  0.00  0.00    +0.000 C 
ATOM     28  S   UNL     1      -1.453   1.422  24.261  0.00  0.00    -0.054 S 
ATOM     29  C   UNL     1      -2.115   1.041  24.571  0.00  0.00    +0.185 A 
ATOM     30  N   UNL     1      -2.304   0.243  24.476  0.00  0.00    -0.151 NA
ATOM     31  C   UNL     1      -2.989  -0.063  24.820  0.00  0.00    +0.271 C 
ATOM     32  O   UNL     1      -3.484   0.430  25.260  0.00  0.00    -0.268 OA
ATOM     40  N   UNL     1      -2.556   1.596  24.994  0.00  0.00    -0.227 NA
ENDROOT
BRANCH  31  33
ATOM     33  C   UNL     1      -3.178  -0.860  24.725  0.00  0.00    +0.056 A 
ATOM     34  C   UNL     1      -2.768  -1.434  25.151  0.00  0.00    +0.007 A 
ATOM     35  C   UNL     1      -2.957  -2.232  25.056  0.00  0.00    +0.030 A 
ATOM     36  C   UNL     1      -3.556  -2.455  24.535  0.00  0.00    +0.140 A 
ATOM     37  F   UNL     1      -3.745  -3.252  24.439  0.00  0.00    -0.204 F 
ATOM     38  C   UNL     1      -3.967  -1.879  24.108  0.00  0.00    +0.030 A 
ATOM     39  C   UNL     1      -3.778  -1.082  24.203  0.00  0.00    +0.007 A 
ENDBRANCH  31  33
BRANCH  18  20
ATOM     20  C   UNL     1      -0.009   4.662  24.228  0.00  0.00    +0.184 C 
ATOM     21  O   UNL     1       0.358   4.439  23.524  0.00  0.00    -0.220 OA
ENDBRANCH  18  20
BRANCH  13  12
ATOM     12  C   UNL     1      -3.023   3.173  25.705  0.00  0.00    +0.091 C 
BRANCH  12  10
ATOM      1  C   UNL     1      -4.412   3.108  26.593  0.00  0.00    +0.115 C 
ATOM      2  N   UNL     1      -4.449   3.231  25.779  0.00  0.00    -0.274 N 
ATOM     10  C   UNL     1      -3.755   3.264  25.335  0.00  0.00    +0.226 C 
ATOM     11  O   UNL     1      -3.791   3.388  24.520  0.00  0.00    -0.275 OA
BRANCH   2   3
ATOM      3  C   UNL     1      -5.180   3.322  25.408  0.00  0.00    +0.120 C 
BRANCH   3   4
ATOM      4  C   UNL     1      -5.719   2.698  25.402  0.00  0.00    -0.002 A 
ATOM      5  C   UNL     1      -6.032   2.415  26.112  0.00  0.00    -0.003 A 
ATOM      6  C   UNL     1      -6.571   1.791  26.105  0.00  0.00    -0.000 A 
ATOM      7  C   UNL     1      -6.799   1.449  25.389  0.00  0.00    -0.000 A 
ATOM      8  C   UNL     1      -6.487   1.733  24.680  0.00  0.00    -0.000 A 
ATOM      9  C   UNL     1      -5.948   2.357  24.686  0.00  0.00    -0.003 A 
ENDBRANCH   3   4
ENDBRANCH   2   3
ENDBRANCH  12  10
ENDBRANCH  13  12
TORSDOF 6
ENDMDL
