MODEL 1
REMARK VINA RESULT:      -9.0      0.000      0.000
REMARK  Name = 
REMARK  6 active torsions:
REMARK  status: ('A' for Active; 'I' for Inactive)
REMARK    1  A    between atoms: N_2  and  C_4
REMARK    2  A    between atoms: C_7  and  C_10
REMARK    3  A    between atoms: N_12  and  C_13
REMARK    4  A    between atoms: C_13  and  C_14
REMARK    5  A    between atoms: C_21  and  C_22
REMARK    6  A    between atoms: C_22  and  N_23
REMARK                            x       y       z     vdW  Elec       q    Type
REMARK                         _______ _______ _______ _____ _____    ______ ____
ROOT
ATOM     14  C   UNL     1       0.358  -0.357  23.500  0.00  0.00    +0.079 C 
ATOM     15  C   UNL     1       0.066  -0.900  23.976  0.00  0.00    +0.018 C 
ATOM     16  C   UNL     1      -0.609  -0.826  24.416  0.00  0.00    +0.005 C 
ATOM     17  C   UNL     1      -0.775  -1.563  24.899  0.00  0.00    +0.017 C 
ATOM     18  C   UNL     1      -0.443  -1.189  24.479  0.00  0.00    +0.072 C 
ATOM     19  N   UNL     1      -0.329  -0.290  23.952  0.00  0.00    -0.272 NA
ATOM     20  C   UNL     1      -0.935   0.387  24.045  0.00  0.00    +0.073 C 
ATOM     21  C   UNL     1      -1.188  -0.171  24.501  0.00  0.00    +0.032 C 
ENDROOT
BRANCH  14  13
ATOM     13  C   UNL     1       0.916  -0.073  22.964  0.00  0.00    +0.131 C 
BRANCH  13  12
ATOM     10  C   UNL     1       2.295   0.024  22.601  0.00  0.00    +0.265 C 
ATOM     11  O   UNL     1       2.085   0.025  21.803  0.00  0.00    -0.268 OA
ATOM     12  N   UNL     1       1.710  -0.025  23.181  0.00  0.00    -0.200 NA
BRANCH  10   7
ATOM      4  C   UNL     1       4.677   0.168  23.253  0.00  0.00    +0.048 A 
ATOM      5  C   UNL     1       4.261  -0.536  23.364  0.00  0.00    +0.015 A 
ATOM      6  C   UNL     1       3.467  -0.584  23.147  0.00  0.00    +0.006 A 
ATOM      7  C   UNL     1       3.089   0.072  22.818  0.00  0.00    +0.055 A 
ATOM      8  C   UNL     1       3.505   0.775  22.708  0.00  0.00    +0.006 A 
ATOM      9  C   UNL     1       4.299   0.823  22.925  0.00  0.00    +0.015 A 
BRANCH   4   2
ATOM      1  C   UNL     1       5.687   0.622  24.156  0.00  0.00    +0.112 C 
ATOM      2  N   UNL     1       5.472   0.215  23.471  0.00  0.00    -0.304 N 
ATOM      3  C   UNL     1       6.050  -0.144  23.006  0.00  0.00    +0.112 C 
ENDBRANCH   4   2
ENDBRANCH  10   7
ENDBRANCH  13  12
ENDBRANCH  14  13
BRANCH  21  22
ATOM     22  C   UNL     1      -1.864  -0.161  24.974  0.00  0.00    +0.074 C 
BRANCH  22  23
ATOM     23  N   UNL     1      -2.355   0.501  24.976  0.00  0.00    -0.270 NA
ATOM     24  C   UNL     1      -3.080   0.478  24.580  0.00  0.00    +0.094 C 
ATOM     25  C   UNL     1      -3.572   1.140  24.581  0.00  0.00    +0.111 C 
ATOM     26  N   UNL     1      -3.340   1.825  24.978  0.00  0.00    -0.275 N 
ATOM     27  C   UNL     1      -2.616   1.849  25.373  0.00  0.00    +0.111 C 
ATOM     28  C   UNL     1      -2.125   1.187  25.372  0.00  0.00    +0.094 C 
ATOM     29  C   UNL     1      -3.832   2.488  24.979  0.00  0.00    +0.220 A 
ATOM     30  N   UNL     1      -4.556   2.464  24.584  0.00  0.00    -0.212 NA
ATOM     31  C   UNL     1      -5.048   3.127  24.585  0.00  0.00    +0.103 A 
ATOM     32  C   UNL     1      -4.816   3.812  24.981  0.00  0.00    +0.041 A 
ATOM     33  C   UNL     1      -4.092   3.835  25.377  0.00  0.00    +0.103 A 
ATOM     34  N   UNL     1      -3.600   3.173  25.376  0.00  0.00    -0.212 NA
ENDBRANCH  22  23
ENDBRANCH  21  22
TORSDOF 6
ENDMDL
MODEL 2
REMARK VINA RESULT:      -8.3      2.802      6.452
REMARK  Name = 
REMARK  6 active torsions:
REMARK  status: ('A' for Active; 'I' for Inactive)
REMARK    1  A    between atoms: N_2  and  C_4
REMARK    2  A    between atoms: C_7  and  C_10
REMARK    3  A    between atoms: N_12  and  C_13
REMARK    4  A    between atoms: C_13  and  C_14
REMARK    5  A    between atoms: C_21  and  C_22
REMARK    6  A    between atoms: C_22  and  N_23
REMARK                            x       y       z     vdW  Elec       q    Type
REMARK                         _______ _______ _______ _____ _____    ______ ____
ROOT
ATOM     14  C   UNL     1      -0.468   2.811  24.628  0.00  0.00    +0.079 C 
ATOM     15  C   UNL     1       0.170   2.459  24.355  0.00  0.00    +0.018 C 
ATOM     16  C   UNL     1       0.299   1.660  24.339  0.00  0.00    +0.005 C 
ATOM     17  C   UNL     1       1.098   1.457  23.986  0.00  0.00    +0.017 C 
ATOM     18  C   UNL     1       0.618   1.854  24.184  0.00  0.00    +0.072 C 
ATOM     19  N   UNL     1      -0.330   1.997  24.608  0.00  0.00    -0.272 NA
ATOM     20  C   UNL     1      -0.835   1.286  24.876  0.00  0.00    +0.073 C 
ATOM     21  C   UNL     1      -0.192   0.981  24.599  0.00  0.00    +0.032 C 
ENDROOT
BRANCH  14  13
ATOM     13  C   UNL     1      -0.926   3.475  24.801  0.00  0.00    +0.131 C 
BRANCH  13  12
ATOM     10  C   UNL     1      -2.192   4.058  25.116  0.00  0.00    +0.265 C 
ATOM     11  O   UNL     1      -1.831   4.793  25.206  0.00  0.00    -0.268 OA
ATOM     12  N   UNL     1      -1.739   3.398  24.913  0.00  0.00    -0.200 NA
BRANCH  10   7
ATOM      4  C   UNL     1      -4.632   3.827  25.453  0.00  0.00    +0.048 A 
ATOM      5  C   UNL     1      -4.129   3.876  26.105  0.00  0.00    +0.015 A 
ATOM      6  C   UNL     1      -3.315   3.953  25.992  0.00  0.00    +0.006 A 
ATOM      7  C   UNL     1      -3.005   3.981  25.228  0.00  0.00    +0.055 A 
ATOM      8  C   UNL     1      -3.509   3.931  24.577  0.00  0.00    +0.006 A 
ATOM      9  C   UNL     1      -4.322   3.854  24.689  0.00  0.00    +0.015 A 
BRANCH   4   2
ATOM      1  C   UNL     1      -5.927   4.420  25.564  0.00  0.00    +0.112 C 
ATOM      2  N   UNL     1      -5.446   3.750  25.566  0.00  0.00    -0.304 N 
ATOM      3  C   UNL     1      -5.778   3.004  25.681  0.00  0.00    +0.112 C 
ENDBRANCH   4   2
ENDBRANCH  10   7
ENDBRANCH  13  12
ENDBRANCH  14  13
BRANCH  21  22
ATOM     22  C   UNL     1       0.001   0.179  24.554  0.00  0.00    +0.074 C 
BRANCH  22  23
ATOM     23  N   UNL     1      -0.594  -0.390  24.593  0.00  0.00    -0.270 NA
ATOM     24  C   UNL     1      -0.987  -0.528  25.305  0.00  0.00    +0.094 C 
ATOM     25  C   UNL     1      -1.582  -1.098  25.344  0.00  0.00    +0.111 C 
ATOM     26  N   UNL     1      -1.784  -1.530  24.672  0.00  0.00    -0.275 N 
ATOM     27  C   UNL     1      -1.391  -1.394  23.959  0.00  0.00    +0.111 C 
ATOM     28  C   UNL     1      -0.796  -0.824  23.920  0.00  0.00    +0.094 C 
ATOM     29  C   UNL     1      -2.379  -2.101  24.711  0.00  0.00    +0.220 A 
ATOM     30  N   UNL     1      -2.773  -2.238  25.423  0.00  0.00    -0.212 NA
ATOM     31  C   UNL     1      -3.368  -2.808  25.462  0.00  0.00    +0.103 A 
ATOM     32  C   UNL     1      -3.569  -3.241  24.790  0.00  0.00    +0.041 A 
ATOM     33  C   UNL     1      -3.176  -3.103  24.077  0.00  0.00    +0.103 A 
ATOM     34  N   UNL     1      -2.581  -2.533  24.038  0.00  0.00    -0.212 NA
ENDBRANCH  22  23
ENDBRANCH  21  22
TORSDOF 6
ENDMDL
MODEL 3
REMARK VINA RESULT:      -7.8      2.729      4.265
REMARK  Name = 
REMARK  6 active torsions:
REMARK  status: ('A' for Active; 'I' for Inactive)
REMARK    1  A    between atoms: N_2  and  C_4
REMARK    2  A    between atoms: C_7  and  C_10
REMARK    3  A    between atoms: N_12  and  C_13
REMARK    4  A    between atoms: C_13  and  C_14
REMARK    5  A    between atoms: C_21  and  C_22
REMARK    6  A    between atoms: C_22  and  N_23
REMARK                            x       y       z     vdW  Elec       q    Type
REMARK                         _______ _______ _______ _____ _____    ______ ____
ROOT
ATOM     14  C   UNL     1      -0.263   3.190  24.628  0.00  0.00    +0.079 C 
ATOM     15  C   UNL     1      -0.388   3.951  24.734  0.00  0.00    +0.018 C 
ATOM     16  C   UNL     1      -1.106   4.295  24.878  0.00  0.00    +0.005 C 
ATOM     17  C   UNL     1      -1.037   5.185  24.970  0.00  0.00    +0.017 C 
ATOM     18  C   UNL     1      -0.817   4.578  24.869  0.00  0.00    +0.072 C 
ATOM     19  N   UNL     1      -0.992   3.549  24.776  0.00  0.00    -0.272 NA
ATOM     20  C   UNL     1      -1.834   3.208  24.859  0.00  0.00    +0.073 C 
ATOM     21  C   UNL     1      -1.913   3.961  24.957  0.00  0.00    +0.032 C 
ENDROOT
BRANCH  14  13
ATOM     13  C   UNL     1       0.219   2.537  24.483  0.00  0.00    +0.131 C 
BRANCH  13  12
ATOM     10  C   UNL     1       0.303   1.131  24.243  0.00  0.00    +0.265 C 
ATOM     11  O   UNL     1       0.972   1.250  23.776  0.00  0.00    -0.268 OA
ATOM     12  N   UNL     1      -0.074   1.774  24.597  0.00  0.00    -0.200 NA
BRANCH  10   7
ATOM      4  C   UNL     1      -0.577  -1.157  24.583  0.00  0.00    +0.048 A 
ATOM      5  C   UNL     1      -0.719  -0.572  25.148  0.00  0.00    +0.015 A 
ATOM      6  C   UNL     1      -0.426   0.190  25.035  0.00  0.00    +0.006 A 
ATOM      7  C   UNL     1       0.009   0.368  24.356  0.00  0.00    +0.055 A 
ATOM      8  C   UNL     1       0.151  -0.216  23.792  0.00  0.00    +0.006 A 
ATOM      9  C   UNL     1      -0.143  -0.979  23.905  0.00  0.00    +0.015 A 
BRANCH   4   2
ATOM      1  C   UNL     1      -0.428  -2.472  25.122  0.00  0.00    +0.112 C 
ATOM      2  N   UNL     1      -0.871  -1.919  24.697  0.00  0.00    -0.304 N 
ATOM      3  C   UNL     1      -1.606  -2.130  24.388  0.00  0.00    +0.112 C 
ENDBRANCH   4   2
ENDBRANCH  10   7
ENDBRANCH  13  12
ENDBRANCH  14  13
BRANCH  21  22
ATOM     22  C   UNL     1      -2.613   4.373  25.106  0.00  0.00    +0.074 C 
BRANCH  22  23
ATOM     23  N   UNL     1      -3.319   3.962  25.213  0.00  0.00    -0.270 NA
ATOM     24  C   UNL     1      -3.621   3.852  25.973  0.00  0.00    +0.094 C 
ATOM     25  C   UNL     1      -4.328   3.440  26.080  0.00  0.00    +0.111 C 
ATOM     26  N   UNL     1      -4.733   3.139  25.428  0.00  0.00    -0.275 N 
ATOM     27  C   UNL     1      -4.431   3.248  24.668  0.00  0.00    +0.111 C 
ATOM     28  C   UNL     1      -3.724   3.660  24.561  0.00  0.00    +0.094 C 
ATOM     29  C   UNL     1      -5.440   2.727  25.535  0.00  0.00    +0.220 A 
ATOM     30  N   UNL     1      -5.742   2.617  26.295  0.00  0.00    -0.212 NA
ATOM     31  C   UNL     1      -6.449   2.205  26.402  0.00  0.00    +0.103 A 
ATOM     32  C   UNL     1      -6.853   1.904  25.749  0.00  0.00    +0.041 A 
ATOM     33  C   UNL     1      -6.551   2.013  24.989  0.00  0.00    +0.103 A 
ATOM     34  N   UNL     1      -5.844   2.425  24.882  0.00  0.00    -0.212 NA
ENDBRANCH  22  23
ENDBRANCH  21  22
TORSDOF 6
ENDMDL
MODEL 4
REMARK VINA RESULT:      -7.8      1.804      2.835
REMARK  Name = 
REMARK  6 active torsions:
REMARK  status: ('A' for Active; 'I' for Inactive)
REMARK    1  A    between atoms: N_2  and  C_4
REMARK    2  A    between atoms: C_7  and  C_10
REMARK    3  A    between atoms: N_12  and  C_13
REMARK    4  A    between atoms: C_13  and  C_14
REMARK    5  A    between atoms: C_21  and  C_22
REMARK    6  A    between atoms: C_22  and  N_23
REMARK                            x       y       z     vdW  Elec       q    Type
REMARK                         _______ _______ _______ _____ _____    ______ ____
ROOT
ATOM     14  C   UNL     1       0.966   1.435  23.751  0.00  0.00    +0.079 C 
ATOM     15  C   UNL     1       0.684   1.851  24.346  0.00  0.00    +0.018 C 
ATOM     16  C   UNL     1      -0.001   1.694  24.748  0.00  0.00    +0.005 C 
ATOM     17  C   UNL     1      -0.149   2.292  25.400  0.00  0.00    +0.017 C 
ATOM     18  C   UNL     1       0.177   2.023  24.902  0.00  0.00    +0.072 C 
ATOM     19  N   UNL     1       0.269   1.282  24.166  0.00  0.00    -0.272 NA
ATOM     20  C   UNL     1      -0.362   0.628  24.080  0.00  0.00    +0.073 C 
ATOM     21  C   UNL     1      -0.603   1.062  24.660  0.00  0.00    +0.032 C 
ENDROOT
BRANCH  14  13
ATOM     13  C   UNL     1       1.523   1.273  23.166  0.00  0.00    +0.131 C 
BRANCH  13  12
ATOM     10  C   UNL     1       2.752   0.626  22.832  0.00  0.00    +0.265 C 
ATOM     11  O   UNL     1       2.459   0.456  22.080  0.00  0.00    -0.268 OA
ATOM     12  N   UNL     1       2.284   1.034  23.375  0.00  0.00    -0.200 NA
BRANCH  10   7
ATOM      4  C   UNL     1       5.036  -0.091  23.460  0.00  0.00    +0.048 A 
ATOM      5  C   UNL     1       4.904   0.679  23.195  0.00  0.00    +0.015 A 
ATOM      6  C   UNL     1       4.143   0.918  22.985  0.00  0.00    +0.006 A 
ATOM      7  C   UNL     1       3.514   0.387  23.041  0.00  0.00    +0.055 A 
ATOM      8  C   UNL     1       3.646  -0.383  23.306  0.00  0.00    +0.006 A 
ATOM      9  C   UNL     1       4.407  -0.622  23.516  0.00  0.00    +0.015 A 
BRANCH   4   2
ATOM      1  C   UNL     1       5.939  -0.645  24.419  0.00  0.00    +0.112 C 
ATOM      2  N   UNL     1       5.798  -0.329  23.669  0.00  0.00    -0.304 N 
ATOM      3  C   UNL     1       6.417  -0.252  23.131  0.00  0.00    +0.112 C 
ENDBRANCH   4   2
ENDBRANCH  10   7
ENDBRANCH  13  12
ENDBRANCH  14  13
BRANCH  21  22
ATOM     22  C   UNL     1      -1.288   0.959  25.109  0.00  0.00    +0.074 C 
BRANCH  22  23
ATOM     23  N   UNL     1      -1.796   0.330  24.947  0.00  0.00    -0.270 NA
ATOM     24  C   UNL     1      -2.445   0.442  24.449  0.00  0.00    +0.094 C 
ATOM     25  C   UNL     1      -2.953  -0.188  24.287  0.00  0.00    +0.111 C 
ATOM     26  N   UNL     1      -2.813  -0.928  24.623  0.00  0.00    -0.275 N 
ATOM     27  C   UNL     1      -2.165  -1.040  25.121  0.00  0.00    +0.111 C 
ATOM     28  C   UNL     1      -1.656  -0.411  25.283  0.00  0.00    +0.094 C 
ATOM     29  C   UNL     1      -3.321  -1.557  24.461  0.00  0.00    +0.220 A 
ATOM     30  N   UNL     1      -3.970  -1.446  23.963  0.00  0.00    -0.212 NA
ATOM     31  C   UNL     1      -4.479  -2.075  23.801  0.00  0.00    +0.103 A 
ATOM     32  C   UNL     1      -4.339  -2.816  24.136  0.00  0.00    +0.041 A 
ATOM     33  C   UNL     1      -3.690  -2.927  24.634  0.00  0.00    +0.103 A 
ATOM     34  N   UNL     1      -3.182  -2.298  24.796  0.00  0.00    -0.212 NA
ENDBRANCH  22  23
ENDBRANCH  21  22
TORSDOF 6
ENDMDL
MODEL 5
REMARK VINA RESULT:      -7.1      2.319      6.864
REMARK  Name = 
REMARK  6 active torsions:
REMARK  status: ('A' for Active; 'I' for Inactive)
REMARK    1  A    between atoms: N_2  and  C_4
REMARK    2  A    between atoms: C_7  and  C_10
REMARK    3  A    between atoms: N_12  and  C_13
REMARK    4  A    between atoms: C_13  and  C_14
REMARK    5  A    between atoms: C_21  and  C_22
REMARK    6  A    between atoms: C_22  and  N_23
REMARK                            x       y       z     vdW  Elec       q    Type
REMARK                         _______ _______ _______ _____ _____    ______ ____
ROOT
ATOM     14  C   UNL     1      -4.183  -0.894  24.645  0.00  0.00    +0.079 C 
ATOM     15  C   UNL     1      -3.931  -1.616  24.790  0.00  0.00    +0.018 C 
ATOM     16  C   UNL     1      -3.156  -1.842  24.845  0.00  0.00    +0.005 C 
ATOM     17  C   UNL     1      -3.075  -2.719  25.018  0.00  0.00    +0.017 C 
ATOM     18  C   UNL     1      -3.397  -2.162  24.904  0.00  0.00    +0.072 C 
ATOM     19  N   UNL     1      -3.395  -1.133  24.703  0.00  0.00    -0.272 NA
ATOM     20  C   UNL     1      -2.611  -0.673  24.624  0.00  0.00    +0.073 C 
ATOM     21  C   UNL     1      -2.405  -1.394  24.768  0.00  0.00    +0.032 C 
ENDROOT
BRANCH  14  13
ATOM     13  C   UNL     1      -4.774  -0.332  24.526  0.00  0.00    +0.131 C 
BRANCH  13  12
ATOM     10  C   UNL     1      -5.270   0.993  24.728  0.00  0.00    +0.265 C 
ATOM     11  O   UNL     1      -6.022   0.747  24.495  0.00  0.00    -0.268 OA
ATOM     12  N   UNL     1      -4.646   0.454  24.744  0.00  0.00    -0.200 NA
BRANCH  10   7
ATOM      4  C   UNL     1      -4.885   3.349  25.380  0.00  0.00    +0.048 A 
ATOM      5  C   UNL     1      -4.516   3.041  24.709  0.00  0.00    +0.015 A 
ATOM      6  C   UNL     1      -4.644   2.256  24.492  0.00  0.00    +0.006 A 
ATOM      7  C   UNL     1      -5.142   1.778  24.945  0.00  0.00    +0.055 A 
ATOM      8  C   UNL     1      -5.511   2.087  25.615  0.00  0.00    +0.006 A 
ATOM      9  C   UNL     1      -5.382   2.872  25.833  0.00  0.00    +0.015 A 
BRANCH   4   2
ATOM      1  C   UNL     1      -4.002   4.380  25.825  0.00  0.00    +0.112 C 
ATOM      2  N   UNL     1      -4.756   4.135  25.597  0.00  0.00    -0.304 N 
ATOM      3  C   UNL     1      -5.380   4.674  25.585  0.00  0.00    +0.112 C 
ENDBRANCH   4   2
ENDBRANCH  10   7
ENDBRANCH  13  12
ENDBRANCH  14  13
BRANCH  21  22
ATOM     22  C   UNL     1      -1.638  -1.690  24.837  0.00  0.00    +0.074 C 
BRANCH  22  23
ATOM     23  N   UNL     1      -1.008  -1.286  24.490  0.00  0.00    -0.270 NA
ATOM     24  C   UNL     1      -0.737  -0.581  24.822  0.00  0.00    +0.094 C 
ATOM     25  C   UNL     1      -0.107  -0.177  24.475  0.00  0.00    +0.111 C 
ATOM     26  N   UNL     1       0.252  -0.478  23.796  0.00  0.00    -0.275 N 
ATOM     27  C   UNL     1      -0.019  -1.183  23.463  0.00  0.00    +0.111 C 
ATOM     28  C   UNL     1      -0.649  -1.586  23.810  0.00  0.00    +0.094 C 
ATOM     29  C   UNL     1       0.882  -0.074  23.448  0.00  0.00    +0.220 A 
ATOM     30  N   UNL     1       1.153   0.631  23.781  0.00  0.00    -0.212 NA
ATOM     31  C   UNL     1       1.783   1.035  23.433  0.00  0.00    +0.103 A 
ATOM     32  C   UNL     1       2.142   0.734  22.754  0.00  0.00    +0.041 A 
ATOM     33  C   UNL     1       1.870   0.029  22.421  0.00  0.00    +0.103 A 
ATOM     34  N   UNL     1       1.240  -0.375  22.769  0.00  0.00    -0.212 NA
ENDBRANCH  22  23
ENDBRANCH  21  22
TORSDOF 6
ENDMDL
MODEL 6
REMARK VINA RESULT:      -6.9      4.006      6.151
REMARK  Name = 
REMARK  6 active torsions:
REMARK  status: ('A' for Active; 'I' for Inactive)
REMARK    1  A    between atoms: N_2  and  C_4
REMARK    2  A    between atoms: C_7  and  C_10
REMARK    3  A    between atoms: N_12  and  C_13
REMARK    4  A    between atoms: C_13  and  C_14
REMARK    5  A    between atoms: C_21  and  C_22
REMARK    6  A    between atoms: C_22  and  N_23
REMARK                            x       y       z     vdW  Elec       q    Type
REMARK                         _______ _______ _______ _____ _____    ______ ____
ROOT
ATOM     14  C   UNL     1      -4.987   2.882  25.595  0.00  0.00    +0.079 C 
ATOM     15  C   UNL     1      -5.632   2.503  25.380  0.00  0.00    +0.018 C 
ATOM     16  C   UNL     1      -5.673   1.721  25.173  0.00  0.00    +0.005 C 
ATOM     17  C   UNL     1      -6.508   1.476  24.957  0.00  0.00    +0.017 C 
ATOM     18  C   UNL     1      -6.040   1.890  25.149  0.00  0.00    +0.072 C 
ATOM     19  N   UNL     1      -5.037   2.086  25.383  0.00  0.00    -0.272 NA
ATOM     20  C   UNL     1      -4.407   1.427  25.331  0.00  0.00    +0.073 C 
ATOM     21  C   UNL     1      -5.062   1.093  25.125  0.00  0.00    +0.032 C 
ENDROOT
BRANCH  14  13
ATOM     13  C   UNL     1      -4.576   3.553  25.841  0.00  0.00    +0.131 C 
BRANCH  13  12
ATOM     10  C   UNL     1      -3.274   4.128  25.965  0.00  0.00    +0.265 C 
ATOM     11  O   UNL     1      -3.447   4.354  26.739  0.00  0.00    -0.268 OA
ATOM     12  N   UNL     1      -3.838   3.727  25.516  0.00  0.00    -0.200 NA
BRANCH  10   7
ATOM      4  C   UNL     1      -1.061   4.652  24.989  0.00  0.00    +0.048 A 
ATOM      5  C   UNL     1      -1.669   5.208  24.954  0.00  0.00    +0.015 A 
ATOM      6  C   UNL     1      -2.407   5.034  25.279  0.00  0.00    +0.006 A 
ATOM      7  C   UNL     1      -2.536   4.302  25.640  0.00  0.00    +0.055 A 
ATOM      8  C   UNL     1      -1.928   3.747  25.674  0.00  0.00    +0.006 A 
ATOM      9  C   UNL     1      -1.191   3.921  25.349  0.00  0.00    +0.015 A 
BRANCH   4   2
ATOM      1  C   UNL     1      -0.076   5.612  24.605  0.00  0.00    +0.112 C 
ATOM      2  N   UNL     1      -0.324   4.827  24.663  0.00  0.00    -0.304 N 
ATOM      3  C   UNL     1       0.165   4.219  24.395  0.00  0.00    +0.112 C 
ENDBRANCH   4   2
ENDBRANCH  10   7
ENDBRANCH  13  12
ENDBRANCH  14  13
BRANCH  21  22
ATOM     22  C   UNL     1      -5.172   0.305  24.904  0.00  0.00    +0.074 C 
BRANCH  22  23
ATOM     23  N   UNL     1      -4.524  -0.201  24.847  0.00  0.00    -0.270 NA
ATOM     24  C   UNL     1      -4.268  -0.460  24.106  0.00  0.00    +0.094 C 
ATOM     25  C   UNL     1      -3.620  -0.967  24.048  0.00  0.00    +0.111 C 
ATOM     26  N   UNL     1      -3.227  -1.214  24.730  0.00  0.00    -0.275 N 
ATOM     27  C   UNL     1      -3.482  -0.955  25.471  0.00  0.00    +0.111 C 
ATOM     28  C   UNL     1      -4.131  -0.449  25.529  0.00  0.00    +0.094 C 
ATOM     29  C   UNL     1      -2.579  -1.721  24.672  0.00  0.00    +0.220 A 
ATOM     30  N   UNL     1      -2.322  -1.980  23.932  0.00  0.00    -0.212 NA
ATOM     31  C   UNL     1      -1.674  -2.487  23.874  0.00  0.00    +0.103 A 
ATOM     32  C   UNL     1      -1.281  -2.734  24.556  0.00  0.00    +0.041 A 
ATOM     33  C   UNL     1      -1.537  -2.475  25.297  0.00  0.00    +0.103 A 
ATOM     34  N   UNL     1      -2.186  -1.968  25.354  0.00  0.00    -0.212 NA
ENDBRANCH  22  23
ENDBRANCH  21  22
TORSDOF 6
ENDMDL
MODEL 7
REMARK VINA RESULT:      -6.7      3.831      5.627
REMARK  Name = 
REMARK  6 active torsions:
REMARK  status: ('A' for Active; 'I' for Inactive)
REMARK    1  A    between atoms: N_2  and  C_4
REMARK    2  A    between atoms: C_7  and  C_10
REMARK    3  A    between atoms: N_12  and  C_13
REMARK    4  A    between atoms: C_13  and  C_14
REMARK    5  A    between atoms: C_21  and  C_22
REMARK    6  A    between atoms: C_22  and  N_23
REMARK                            x       y       z     vdW  Elec       q    Type
REMARK                         _______ _______ _______ _____ _____    ______ ____
ROOT
ATOM     14  C   UNL     1      -5.333   0.725  24.948  0.00  0.00    +0.079 C 
ATOM     15  C   UNL     1      -5.788   1.238  25.315  0.00  0.00    +0.018 C 
ATOM     16  C   UNL     1      -5.602   2.011  25.467  0.00  0.00    +0.005 C 
ATOM     17  C   UNL     1      -6.262   2.435  25.902  0.00  0.00    +0.017 C 
ATOM     18  C   UNL     1      -5.970   1.927  25.611  0.00  0.00    +0.072 C 
ATOM     19  N   UNL     1      -5.150   1.514  25.106  0.00  0.00    -0.272 NA
ATOM     20  C   UNL     1      -4.412   2.019  24.921  0.00  0.00    +0.073 C 
ATOM     21  C   UNL     1      -4.889   2.490  25.286  0.00  0.00    +0.032 C 
ENDROOT
BRANCH  14  13
ATOM     13  C   UNL     1      -5.164  -0.021  24.640  0.00  0.00    +0.131 C 
BRANCH  13  12
ATOM     10  C   UNL     1      -4.226  -1.066  24.375  0.00  0.00    +0.265 C 
ATOM     11  O   UNL     1      -4.798  -1.468  23.938  0.00  0.00    -0.268 OA
ATOM     12  N   UNL     1      -4.409  -0.342  24.726  0.00  0.00    -0.200 NA
BRANCH  10   7
ATOM      4  C   UNL     1      -1.962  -2.029  24.634  0.00  0.00    +0.048 A 
ATOM      5  C   UNL     1      -2.053  -1.218  24.513  0.00  0.00    +0.015 A 
ATOM      6  C   UNL     1      -2.808  -0.897  24.427  0.00  0.00    +0.006 A 
ATOM      7  C   UNL     1      -3.472  -1.387  24.461  0.00  0.00    +0.055 A 
ATOM      8  C   UNL     1      -3.379  -2.198  24.582  0.00  0.00    +0.006 A 
ATOM      9  C   UNL     1      -2.624  -2.519  24.668  0.00  0.00    +0.015 A 
BRANCH   4   2
ATOM      1  C   UNL     1      -0.689  -2.037  25.282  0.00  0.00    +0.112 C 
ATOM      2  N   UNL     1      -1.206  -2.349  24.720  0.00  0.00    -0.304 N 
ATOM      3  C   UNL     1      -0.968  -2.980  24.245  0.00  0.00    +0.112 C 
ENDBRANCH   4   2
ENDBRANCH  10   7
ENDBRANCH  13  12
ENDBRANCH  14  13
BRANCH  21  22
ATOM     22  C   UNL     1      -4.761   3.284  25.471  0.00  0.00    +0.074 C 
BRANCH  22  23
ATOM     23  N   UNL     1      -4.017   3.619  25.356  0.00  0.00    -0.270 NA
ATOM     24  C   UNL     1      -3.901   4.167  24.750  0.00  0.00    +0.094 C 
ATOM     25  C   UNL     1      -3.156   4.503  24.635  0.00  0.00    +0.111 C 
ATOM     26  N   UNL     1      -2.528   4.291  25.126  0.00  0.00    -0.275 N 
ATOM     27  C   UNL     1      -2.643   3.743  25.732  0.00  0.00    +0.111 C 
ATOM     28  C   UNL     1      -3.388   3.408  25.847  0.00  0.00    +0.094 C 
ATOM     29  C   UNL     1      -1.783   4.626  25.011  0.00  0.00    +0.220 A 
ATOM     30  N   UNL     1      -1.666   5.174  24.405  0.00  0.00    -0.212 NA
ATOM     31  C   UNL     1      -0.921   5.509  24.290  0.00  0.00    +0.103 A 
ATOM     32  C   UNL     1      -0.293   5.297  24.780  0.00  0.00    +0.041 A 
ATOM     33  C   UNL     1      -0.409   4.749  25.387  0.00  0.00    +0.103 A 
ATOM     34  N   UNL     1      -1.154   4.414  25.502  0.00  0.00    -0.212 NA
ENDBRANCH  22  23
ENDBRANCH  21  22
TORSDOF 6
ENDMDL
MODEL 8
REMARK VINA RESULT:      -6.7      1.559      2.261
REMARK  Name = 
REMARK  6 active torsions:
REMARK  status: ('A' for Active; 'I' for Inactive)
REMARK    1  A    between atoms: N_2  and  C_4
REMARK    2  A    between atoms: C_7  and  C_10
REMARK    3  A    between atoms: N_12  and  C_13
REMARK    4  A    between atoms: C_13  and  C_14
REMARK    5  A    between atoms: C_21  and  C_22
REMARK    6  A    between atoms: C_22  and  N_23
REMARK                            x       y       z     vdW  Elec       q    Type
REMARK                         _______ _______ _______ _____ _____    ______ ____
ROOT
ATOM     14  C   UNL     1       0.256   1.661  24.027  0.00  0.00    +0.079 C 
ATOM     15  C   UNL     1       0.264   2.227  24.561  0.00  0.00    +0.018 C 
ATOM     16  C   UNL     1      -0.346   2.734  24.721  0.00  0.00    +0.005 C 
ATOM     17  C   UNL     1      -0.137   3.314  25.373  0.00  0.00    +0.017 C 
ATOM     18  C   UNL     1      -0.032   2.817  24.961  0.00  0.00    +0.072 C 
ATOM     19  N   UNL     1      -0.362   2.183  24.195  0.00  0.00    -0.272 NA
ATOM     20  C   UNL     1      -1.200   2.270  23.843  0.00  0.00    +0.073 C 
ATOM     21  C   UNL     1      -1.150   2.813  24.378  0.00  0.00    +0.032 C 
ENDROOT
BRANCH  14  13
ATOM     13  C   UNL     1       0.596   1.034  23.614  0.00  0.00    +0.131 C 
BRANCH  13  12
ATOM     10  C   UNL     1       1.773   0.436  23.068  0.00  0.00    +0.265 C 
ATOM     11  O   UNL     1       1.315   0.050  22.502  0.00  0.00    -0.268 OA
ATOM     12  N   UNL     1       1.414   0.929  23.624  0.00  0.00    -0.200 NA
BRANCH  10   7
ATOM      4  C   UNL     1       4.228   0.122  23.097  0.00  0.00    +0.048 A 
ATOM      5  C   UNL     1       3.907   0.840  22.847  0.00  0.00    +0.015 A 
ATOM      6  C   UNL     1       3.089   0.945  22.837  0.00  0.00    +0.006 A 
ATOM      7  C   UNL     1       2.591   0.331  23.078  0.00  0.00    +0.055 A 
ATOM      8  C   UNL     1       2.912  -0.386  23.327  0.00  0.00    +0.006 A 
ATOM      9  C   UNL     1       3.730  -0.491  23.337  0.00  0.00    +0.015 A 
BRANCH   4   2
ATOM      1  C   UNL     1       5.463  -0.030  22.396  0.00  0.00    +0.112 C 
ATOM      2  N   UNL     1       5.046   0.017  23.107  0.00  0.00    -0.304 N 
ATOM      3  C   UNL     1       5.447  -0.039  23.825  0.00  0.00    +0.112 C 
ENDBRANCH   4   2
ENDBRANCH  10   7
ENDBRANCH  13  12
ENDBRANCH  14  13
BRANCH  21  22
ATOM     22  C   UNL     1      -1.732   3.360  24.589  0.00  0.00    +0.074 C 
BRANCH  22  23
ATOM     23  N   UNL     1      -2.506   3.109  24.716  0.00  0.00    -0.270 NA
ATOM     24  C   UNL     1      -2.862   3.225  25.452  0.00  0.00    +0.094 C 
ATOM     25  C   UNL     1      -3.638   2.973  25.578  0.00  0.00    +0.111 C 
ATOM     26  N   UNL     1      -4.057   2.607  24.970  0.00  0.00    -0.275 N 
ATOM     27  C   UNL     1      -3.702   2.491  24.235  0.00  0.00    +0.111 C 
ATOM     28  C   UNL     1      -2.927   2.742  24.108  0.00  0.00    +0.094 C 
ATOM     29  C   UNL     1      -4.833   2.356  25.097  0.00  0.00    +0.220 A 
ATOM     30  N   UNL     1      -5.189   2.471  25.832  0.00  0.00    -0.212 NA
ATOM     31  C   UNL     1      -5.965   2.220  25.959  0.00  0.00    +0.103 A 
ATOM     32  C   UNL     1      -6.384   1.853  25.351  0.00  0.00    +0.041 A 
ATOM     33  C   UNL     1      -6.028   1.738  24.615  0.00  0.00    +0.103 A 
ATOM     34  N   UNL     1      -5.253   1.989  24.489  0.00  0.00    -0.212 NA
ENDBRANCH  22  23
ENDBRANCH  21  22
TORSDOF 6
ENDMDL
MODEL 9
REMARK VINA RESULT:      -6.6      2.845      4.771
REMARK  Name = 
REMARK  6 active torsions:
REMARK  status: ('A' for Active; 'I' for Inactive)
REMARK    1  A    between atoms: N_2  and  C_4
REMARK    2  A    between atoms: C_7  and  C_10
REMARK    3  A    between atoms: N_12  and  C_13
REMARK    4  A    between atoms: C_13  and  C_14
REMARK    5  A    between atoms: C_21  and  C_22
REMARK    6  A    between atoms: C_22  and  N_23
REMARK                            x       y       z     vdW  Elec       q    Type
REMARK                         _______ _______ _______ _____ _____    ______ ____
ROOT
ATOM     14  C   UNL     1       0.011   0.702  24.563  0.00  0.00    +0.079 C 
ATOM     15  C   UNL     1       0.354   1.374  24.372  0.00  0.00    +0.018 C 
ATOM     16  C   UNL     1       0.023   2.109  24.442  0.00  0.00    +0.005 C 
ATOM     17  C   UNL     1       0.582   2.755  24.169  0.00  0.00    +0.017 C 
ATOM     18  C   UNL     1       0.397   2.141  24.292  0.00  0.00    +0.072 C 
ATOM     19  N   UNL     1      -0.320   1.455  24.631  0.00  0.00    -0.272 NA
ATOM     20  C   UNL     1      -1.135   1.739  24.928  0.00  0.00    +0.073 C 
ATOM     21  C   UNL     1      -0.762   2.375  24.730  0.00  0.00    +0.032 C 
ENDROOT
BRANCH  14  13
ATOM     13  C   UNL     1      -0.008  -0.119  24.638  0.00  0.00    +0.131 C 
BRANCH  13  12
ATOM     10  C   UNL     1      -0.820  -1.277  24.843  0.00  0.00    +0.265 C 
ATOM     11  O   UNL     1      -0.223  -1.614  25.301  0.00  0.00    -0.268 OA
ATOM     12  N   UNL     1      -0.712  -0.529  24.511  0.00  0.00    -0.200 NA
BRANCH  10   7
ATOM      4  C   UNL     1      -2.934  -2.506  24.464  0.00  0.00    +0.048 A 
ATOM      5  C   UNL     1      -2.924  -1.844  24.957  0.00  0.00    +0.015 A 
ATOM      6  C   UNL     1      -2.220  -1.434  25.083  0.00  0.00    +0.006 A 
ATOM      7  C   UNL     1      -1.524  -1.686  24.717  0.00  0.00    +0.055 A 
ATOM      8  C   UNL     1      -1.534  -2.348  24.225  0.00  0.00    +0.006 A 
ATOM      9  C   UNL     1      -2.239  -2.758  24.099  0.00  0.00    +0.015 A 
BRANCH   4   2
ATOM      1  C   UNL     1      -3.720  -3.689  24.613  0.00  0.00    +0.112 C 
ATOM      2  N   UNL     1      -3.639  -2.915  24.339  0.00  0.00    -0.304 N 
ATOM      3  C   UNL     1      -4.262  -2.551  23.940  0.00  0.00    +0.112 C 
ENDBRANCH   4   2
ENDBRANCH  10   7
ENDBRANCH  13  12
ENDBRANCH  14  13
BRANCH  21  22
ATOM     22  C   UNL     1      -1.041   3.151  24.775  0.00  0.00    +0.074 C 
BRANCH  22  23
ATOM     23  N   UNL     1      -1.838   3.294  24.927  0.00  0.00    -0.270 NA
ATOM     24  C   UNL     1      -2.088   3.467  25.695  0.00  0.00    +0.094 C 
ATOM     25  C   UNL     1      -2.886   3.610  25.846  0.00  0.00    +0.111 C 
ATOM     26  N   UNL     1      -3.434   3.581  25.231  0.00  0.00    -0.275 N 
ATOM     27  C   UNL     1      -3.186   3.409  24.464  0.00  0.00    +0.111 C 
ATOM     28  C   UNL     1      -2.388   3.265  24.312  0.00  0.00    +0.094 C 
ATOM     29  C   UNL     1      -4.233   3.724  25.383  0.00  0.00    +0.220 A 
ATOM     30  N   UNL     1      -4.482   3.897  26.150  0.00  0.00    -0.212 NA
ATOM     31  C   UNL     1      -5.280   4.040  26.302  0.00  0.00    +0.103 A 
ATOM     32  C   UNL     1      -5.829   4.011  25.687  0.00  0.00    +0.041 A 
ATOM     33  C   UNL     1      -5.580   3.839  24.919  0.00  0.00    +0.103 A 
ATOM     34  N   UNL     1      -4.781   3.695  24.768  0.00  0.00    -0.212 NA
ENDBRANCH  22  23
ENDBRANCH  21  22
TORSDOF 6
ENDMDL
MODEL 10
REMARK VINA RESULT:      -6.6      1.486      7.335
REMARK  Name = 
REMARK  6 active torsions:
REMARK  status: ('A' for Active; 'I' for Inactive)
REMARK    1  A    between atoms: N_2  and  C_4
REMARK    2  A    between atoms: C_7  and  C_10
REMARK    3  A    between atoms: N_12  and  C_13
REMARK    4  A    between atoms: C_13  and  C_14
REMARK    5  A    between atoms: C_21  and  C_22
REMARK    6  A    between atoms: C_22  and  N_23
REMARK                            x       y       z     vdW  Elec       q    Type
REMARK                         _______ _______ _______ _____ _____    ______ ____
ROOT
ATOM     14  C   UNL     1      -0.667   1.363  24.294  0.00  0.00    +0.079 C 
ATOM     15  C   UNL     1      -0.734   0.598  24.169  0.00  0.00    +0.018 C 
ATOM     16  C   UNL     1      -0.219   0.142  23.742  0.00  0.00    +0.005 C 
ATOM     17  C   UNL     1      -0.475  -0.717  23.717  0.00  0.00    +0.017 C 
ATOM     18  C   UNL     1      -0.521  -0.087  23.884  0.00  0.00    +0.072 C 
ATOM     19  N   UNL     1      -0.146   0.892  23.860  0.00  0.00    -0.272 NA
ATOM     20  C   UNL     1       0.625   1.087  23.412  0.00  0.00    +0.073 C 
ATOM     21  C   UNL     1       0.522   0.337  23.313  0.00  0.00    +0.032 C 
ENDROOT
BRANCH  14  13
ATOM     13  C   UNL     1      -0.918   2.082  24.611  0.00  0.00    +0.131 C 
BRANCH  13  12
ATOM     10  C   UNL     1      -1.998   2.967  24.915  0.00  0.00    +0.265 C 
ATOM     11  O   UNL     1      -1.479   3.607  24.893  0.00  0.00    -0.268 OA
ATOM     12  N   UNL     1      -1.718   2.204  24.774  0.00  0.00    -0.200 NA
BRANCH  10   7
ATOM      4  C   UNL     1      -4.395   3.333  25.406  0.00  0.00    +0.048 A 
ATOM      5  C   UNL     1      -4.172   2.919  24.728  0.00  0.00    +0.015 A 
ATOM      6  C   UNL     1      -3.373   2.797  24.564  0.00  0.00    +0.006 A 
ATOM      7  C   UNL     1      -2.797   3.089  25.079  0.00  0.00    +0.055 A 
ATOM      8  C   UNL     1      -3.021   3.502  25.757  0.00  0.00    +0.006 A 
ATOM      9  C   UNL     1      -3.820   3.624  25.920  0.00  0.00    +0.015 A 
BRANCH   4   2
ATOM      1  C   UNL     1      -5.526   4.204  25.472  0.00  0.00    +0.112 C 
ATOM      2  N   UNL     1      -5.195   3.454  25.569  0.00  0.00    -0.304 N 
ATOM      3  C   UNL     1      -5.664   2.827  25.829  0.00  0.00    +0.112 C 
ENDBRANCH   4   2
ENDBRANCH  10   7
ENDBRANCH  13  12
ENDBRANCH  14  13
BRANCH  21  22
ATOM     22  C   UNL     1       1.006  -0.182  22.892  0.00  0.00    +0.074 C 
BRANCH  22  23
ATOM     23  N   UNL     1       1.823  -0.160  22.997  0.00  0.00    -0.270 NA
ATOM     24  C   UNL     1       2.204  -0.772  23.399  0.00  0.00    +0.094 C 
ATOM     25  C   UNL     1       3.022  -0.750  23.504  0.00  0.00    +0.111 C 
ATOM     26  N   UNL     1       3.459  -0.116  23.208  0.00  0.00    -0.275 N 
ATOM     27  C   UNL     1       3.079   0.496  22.806  0.00  0.00    +0.111 C 
ATOM     28  C   UNL     1       2.261   0.474  22.701  0.00  0.00    +0.094 C 
ATOM     29  C   UNL     1       4.277  -0.094  23.313  0.00  0.00    +0.220 A 
ATOM     30  N   UNL     1       4.658  -0.706  23.714  0.00  0.00    -0.212 NA
ATOM     31  C   UNL     1       5.476  -0.684  23.819  0.00  0.00    +0.103 A 
ATOM     32  C   UNL     1       5.913  -0.050  23.524  0.00  0.00    +0.041 A 
ATOM     33  C   UNL     1       5.532   0.562  23.122  0.00  0.00    +0.103 A 
ATOM     34  N   UNL     1       4.714   0.540  23.017  0.00  0.00    -0.212 NA
ENDBRANCH  22  23
ENDBRANCH  21  22
TORSDOF 6
ENDMDL
