MODEL 1
REMARK VINA RESULT:     -10.5      0.000      0.000
REMARK  Name = 
REMARK  5 active torsions:
REMARK  status: ('A' for Active; 'I' for Inactive)
REMARK    1  A    between atoms: C_2  and  C_4
REMARK    2  A    between atoms: C_4  and  C_5
REMARK    3  A    between atoms: C_5  and  C_6
REMARK    4  A    between atoms: C_13  and  C_14
REMARK    5  A    between atoms: N_16  and  C_17
REMARK                            x       y       z     vdW  Elec       q    Type
REMARK                         _______ _______ _______ _____ _____    ______ ____
ROOT
ATOM      6  C   UNL     1      -3.553   0.862  24.088  0.00  0.00    +0.227 C 
ATOM      7  O   UNL     1      -2.939   0.821  23.539  0.00  0.00    -0.275 OA
ATOM      8  N   UNL     1      -3.840   1.596  24.334  0.00  0.00    -0.267 N 
ATOM      9  C   UNL     1      -4.453   1.637  24.882  0.00  0.00    +0.141 C 
ATOM     10  C   UNL     1      -4.739   2.371  25.128  0.00  0.00    +0.094 A 
ATOM     11  C   UNL     1      -4.411   3.064  24.823  0.00  0.00    +0.078 A 
ATOM     12  C   UNL     1      -3.798   3.023  24.274  0.00  0.00    +0.076 C 
ATOM     13  C   UNL     1      -3.511   2.289  24.029  0.00  0.00    +0.160 C 
ATOM     23  N   UNL     1      -4.804   3.703  25.166  0.00  0.00    -0.227 NA
ATOM     24  C   UNL     1      -5.375   3.406  25.681  0.00  0.00    +0.198 A 
ATOM     25  N   UNL     1      -5.335   2.582  25.658  0.00  0.00    -0.225 NA
ENDROOT
BRANCH  13  14
ATOM     14  C   UNL     1      -2.897   2.248  23.480  0.00  0.00    +0.260 C 
ATOM     15  O   UNL     1      -3.035   1.933  22.730  0.00  0.00    -0.272 OA
ATOM     16  N   UNL     1      -2.146   2.522  23.680  0.00  0.00    -0.206 NA
BRANCH  16  17
ATOM     17  C   UNL     1      -2.007   2.837  24.430  0.00  0.00    +0.095 C 
ATOM     18  C   UNL     1      -2.104   3.646  24.561  0.00  0.00    +0.022 C 
ATOM     19  C   UNL     1      -1.966   3.963  25.311  0.00  0.00    +0.002 C 
ATOM     20  C   UNL     1      -1.731   3.469  25.929  0.00  0.00    +0.000 C 
ATOM     21  C   UNL     1      -1.634   2.660  25.798  0.00  0.00    +0.002 C 
ATOM     22  C   UNL     1      -1.773   2.345  25.048  0.00  0.00    +0.022 C 
ENDBRANCH  16  17
ENDBRANCH  13  14
BRANCH   6   5
ATOM      5  C   UNL     1      -3.882   0.170  24.393  0.00  0.00    +0.097 C 
BRANCH   5   4
ATOM      4  C   UNL     1      -3.606  -0.565  24.136  0.00  0.00    +0.124 C 
BRANCH   4   2
ATOM      1  O   UNL     1      -4.516  -1.650  23.949  0.00  0.00    -0.246 OA
ATOM      2  C   UNL     1      -3.958  -1.258  24.413  0.00  0.00    +0.365 C 
ATOM      3  O   UNL     1      -3.753  -1.558  25.153  0.00  0.00    -0.246 OA
ENDBRANCH   4   2
ENDBRANCH   5   4
ENDBRANCH   6   5
TORSDOF 5
ENDMDL
MODEL 2
REMARK VINA RESULT:     -10.2      1.481      3.335
REMARK  Name = 
REMARK  5 active torsions:
REMARK  status: ('A' for Active; 'I' for Inactive)
REMARK    1  A    between atoms: C_2  and  C_4
REMARK    2  A    between atoms: C_4  and  C_5
REMARK    3  A    between atoms: C_5  and  C_6
REMARK    4  A    between atoms: C_13  and  C_14
REMARK    5  A    between atoms: N_16  and  C_17
REMARK                            x       y       z     vdW  Elec       q    Type
REMARK                         _______ _______ _______ _____ _____    ______ ____
ROOT
ATOM      6  C   UNL     1      -2.442   2.715  24.378  0.00  0.00    +0.227 C 
ATOM      7  O   UNL     1      -2.048   2.357  23.748  0.00  0.00    -0.275 OA
ATOM      8  N   UNL     1      -3.235   2.538  24.523  0.00  0.00    -0.267 N 
ATOM      9  C   UNL     1      -3.629   2.896  25.152  0.00  0.00    +0.141 C 
ATOM     10  C   UNL     1      -4.422   2.719  25.297  0.00  0.00    +0.094 A 
ATOM     11  C   UNL     1      -4.820   2.184  24.811  0.00  0.00    +0.078 A 
ATOM     12  C   UNL     1      -4.426   1.826  24.182  0.00  0.00    +0.076 C 
ATOM     13  C   UNL     1      -3.633   2.003  24.037  0.00  0.00    +0.160 C 
ATOM     23  N   UNL     1      -5.595   2.118  25.087  0.00  0.00    -0.227 NA
ATOM     24  C   UNL     1      -5.676   2.612  25.743  0.00  0.00    +0.198 A 
ATOM     25  N   UNL     1      -4.950   2.983  25.873  0.00  0.00    -0.225 NA
ENDROOT
BRANCH  13  14
ATOM     14  C   UNL     1      -3.239   1.645  23.407  0.00  0.00    +0.260 C 
ATOM     15  O   UNL     1      -2.989   2.100  22.765  0.00  0.00    -0.272 OA
ATOM     16  N   UNL     1      -3.095   0.834  23.418  0.00  0.00    -0.206 NA
BRANCH  16  17
ATOM     17  C   UNL     1      -3.345   0.379  24.060  0.00  0.00    +0.095 C 
ATOM     18  C   UNL     1      -4.086   0.017  24.044  0.00  0.00    +0.022 C 
ATOM     19  C   UNL     1      -4.337  -0.438  24.685  0.00  0.00    +0.002 C 
ATOM     20  C   UNL     1      -3.846  -0.532  25.342  0.00  0.00    +0.000 C 
ATOM     21  C   UNL     1      -3.104  -0.170  25.357  0.00  0.00    +0.002 C 
ATOM     22  C   UNL     1      -2.854   0.285  24.715  0.00  0.00    +0.022 C 
ENDBRANCH  16  17
ENDBRANCH  13  14
BRANCH   6   5
ATOM      5  C   UNL     1      -2.044   3.250  24.864  0.00  0.00    +0.097 C 
BRANCH   5   4
ATOM      4  C   UNL     1      -1.281   3.496  24.667  0.00  0.00    +0.124 C 
BRANCH   4   2
ATOM      1  O   UNL     1      -0.891   4.792  25.125  0.00  0.00    -0.246 OA
ATOM      2  C   UNL     1      -0.854   3.971  25.190  0.00  0.00    +0.365 C 
ATOM      3  O   UNL     1      -0.390   3.625  25.777  0.00  0.00    -0.246 OA
ENDBRANCH   4   2
ENDBRANCH   5   4
ENDBRANCH   6   5
TORSDOF 5
ENDMDL
MODEL 3
REMARK VINA RESULT:     -10.0      1.692      3.428
REMARK  Name = 
REMARK  5 active torsions:
REMARK  status: ('A' for Active; 'I' for Inactive)
REMARK    1  A    between atoms: C_2  and  C_4
REMARK    2  A    between atoms: C_4  and  C_5
REMARK    3  A    between atoms: C_5  and  C_6
REMARK    4  A    between atoms: C_13  and  C_14
REMARK    5  A    between atoms: N_16  and  C_17
REMARK                            x       y       z     vdW  Elec       q    Type
REMARK                         _______ _______ _______ _____ _____    ______ ____
ROOT
ATOM      6  C   UNL     1      -2.001   2.017  24.677  0.00  0.00    +0.227 C 
ATOM      7  O   UNL     1      -2.069   2.699  24.218  0.00  0.00    -0.275 OA
ATOM      8  N   UNL     1      -2.580   1.431  24.635  0.00  0.00    -0.267 N 
ATOM      9  C   UNL     1      -2.512   0.750  25.094  0.00  0.00    +0.141 C 
ATOM     10  C   UNL     1      -3.092   0.164  25.052  0.00  0.00    +0.094 A 
ATOM     11  C   UNL     1      -3.739   0.260  24.550  0.00  0.00    +0.078 A 
ATOM     12  C   UNL     1      -3.807   0.942  24.091  0.00  0.00    +0.076 C 
ATOM     13  C   UNL     1      -3.228   1.527  24.133  0.00  0.00    +0.160 C 
ATOM     23  N   UNL     1      -4.220  -0.407  24.624  0.00  0.00    -0.227 NA
ATOM     24  C   UNL     1      -3.870  -0.914  25.171  0.00  0.00    +0.198 A 
ATOM     25  N   UNL     1      -3.172  -0.562  25.436  0.00  0.00    -0.225 NA
ENDROOT
BRANCH  13  14
ATOM     14  C   UNL     1      -3.297   2.209  23.674  0.00  0.00    +0.260 C 
ATOM     15  O   UNL     1      -2.764   2.347  23.059  0.00  0.00    -0.272 OA
ATOM     16  N   UNL     1      -3.897   2.752  23.830  0.00  0.00    -0.206 NA
BRANCH  16  17
ATOM     17  C   UNL     1      -4.430   2.615  24.444  0.00  0.00    +0.095 C 
ATOM     18  C   UNL     1      -4.275   2.913  25.198  0.00  0.00    +0.022 C 
ATOM     19  C   UNL     1      -4.807   2.776  25.813  0.00  0.00    +0.002 C 
ATOM     20  C   UNL     1      -5.494   2.340  25.675  0.00  0.00    +0.000 C 
ATOM     21  C   UNL     1      -5.649   2.042  24.921  0.00  0.00    +0.002 C 
ATOM     22  C   UNL     1      -5.116   2.179  24.306  0.00  0.00    +0.022 C 
ENDBRANCH  16  17
ENDBRANCH  13  14
BRANCH   6   5
ATOM      5  C   UNL     1      -1.353   1.920  25.179  0.00  0.00    +0.097 C 
BRANCH   5   4
ATOM      4  C   UNL     1      -0.813   2.536  25.278  0.00  0.00    +0.124 C 
BRANCH   4   2
ATOM      1  O   UNL     1      -0.179   2.558  26.559  0.00  0.00    -0.246 OA
ATOM      2  C   UNL     1      -0.141   2.425  25.745  0.00  0.00    +0.365 C 
ATOM      3  O   UNL     1       0.566   2.182  25.399  0.00  0.00    -0.246 OA
ENDBRANCH   4   2
ENDBRANCH   5   4
ENDBRANCH   6   5
TORSDOF 5
ENDMDL
MODEL 4
REMARK VINA RESULT:      -9.8      1.136      2.277
REMARK  Name = 
REMARK  5 active torsions:
REMARK  status: ('A' for Active; 'I' for Inactive)
REMARK    1  A    between atoms: C_2  and  C_4
REMARK    2  A    between atoms: C_4  and  C_5
REMARK    3  A    between atoms: C_5  and  C_6
REMARK    4  A    between atoms: C_13  and  C_14
REMARK    5  A    between atoms: N_16  and  C_17
REMARK                            x       y       z     vdW  Elec       q    Type
REMARK                         _______ _______ _______ _____ _____    ______ ____
ROOT
ATOM      6  C   UNL     1      -3.050   0.481  24.156  0.00  0.00    +0.227 C 
ATOM      7  O   UNL     1      -3.584   0.653  23.551  0.00  0.00    -0.275 OA
ATOM      8  N   UNL     1      -2.498   1.047  24.393  0.00  0.00    -0.267 N 
ATOM      9  C   UNL     1      -1.965   0.876  24.998  0.00  0.00    +0.141 C 
ATOM     10  C   UNL     1      -1.413   1.443  25.234  0.00  0.00    +0.094 A 
ATOM     11  C   UNL     1      -1.396   2.180  24.865  0.00  0.00    +0.078 A 
ATOM     12  C   UNL     1      -1.929   2.351  24.261  0.00  0.00    +0.076 C 
ATOM     13  C   UNL     1      -2.481   1.785  24.024  0.00  0.00    +0.160 C 
ATOM     23  N   UNL     1      -0.794   2.624  25.214  0.00  0.00    -0.227 NA
ATOM     24  C   UNL     1      -0.440   2.162  25.797  0.00  0.00    +0.198 A 
ATOM     25  N   UNL     1      -0.823   1.431  25.810  0.00  0.00    -0.225 NA
ENDROOT
BRANCH  13  14
ATOM     14  C   UNL     1      -3.015   1.957  23.419  0.00  0.00    +0.260 C 
ATOM     15  O   UNL     1      -2.957   1.565  22.695  0.00  0.00    -0.272 OA
ATOM     16  N   UNL     1      -3.606   2.519  23.538  0.00  0.00    -0.206 NA
BRANCH  16  17
ATOM     17  C   UNL     1      -3.664   2.911  24.262  0.00  0.00    +0.095 C 
ATOM     18  C   UNL     1      -3.250   3.614  24.384  0.00  0.00    +0.022 C 
ATOM     19  C   UNL     1      -3.307   4.006  25.108  0.00  0.00    +0.002 C 
ATOM     20  C   UNL     1      -3.780   3.695  25.709  0.00  0.00    +0.000 C 
ATOM     21  C   UNL     1      -4.194   2.992  25.586  0.00  0.00    +0.002 C 
ATOM     22  C   UNL     1      -4.136   2.601  24.862  0.00  0.00    +0.022 C 
ENDBRANCH  16  17
ENDBRANCH  13  14
BRANCH   6   5
ATOM      5  C   UNL     1      -3.067  -0.256  24.525  0.00  0.00    +0.097 C 
BRANCH   5   4
ATOM      4  C   UNL     1      -3.637  -0.813  24.308  0.00  0.00    +0.124 C 
BRANCH   4   2
ATOM      1  O   UNL     1      -3.402  -2.212  24.140  0.00  0.00    -0.246 OA
ATOM      2  C   UNL     1      -3.609  -1.576  24.622  0.00  0.00    +0.365 C 
ATOM      3  O   UNL     1      -3.788  -1.702  25.416  0.00  0.00    -0.246 OA
ENDBRANCH   4   2
ENDBRANCH   5   4
ENDBRANCH   6   5
TORSDOF 5
ENDMDL
MODEL 5
REMARK VINA RESULT:      -9.8      1.817      2.942
REMARK  Name = 
REMARK  5 active torsions:
REMARK  status: ('A' for Active; 'I' for Inactive)
REMARK    1  A    between atoms: C_2  and  C_4
REMARK    2  A    between atoms: C_4  and  C_5
REMARK    3  A    between atoms: C_5  and  C_6
REMARK    4  A    between atoms: C_13  and  C_14
REMARK    5  A    between atoms: N_16  and  C_17
REMARK                            x       y       z     vdW  Elec       q    Type
REMARK                         _______ _______ _______ _____ _____    ______ ____
ROOT
ATOM      6  C   UNL     1      -3.441   1.846  24.381  0.00  0.00    +0.227 C 
ATOM      7  O   UNL     1      -3.336   2.495  23.883  0.00  0.00    -0.275 OA
ATOM      8  N   UNL     1      -2.822   1.312  24.499  0.00  0.00    -0.267 N 
ATOM      9  C   UNL     1      -2.926   0.663  24.996  0.00  0.00    +0.141 C 
ATOM     10  C   UNL     1      -2.307   0.130  25.114  0.00  0.00    +0.094 A 
ATOM     11  C   UNL     1      -1.585   0.247  24.733  0.00  0.00    +0.078 A 
ATOM     12  C   UNL     1      -1.481   0.896  24.236  0.00  0.00    +0.076 C 
ATOM     13  C   UNL     1      -2.099   1.429  24.118  0.00  0.00    +0.160 C 
ATOM     23  N   UNL     1      -1.079  -0.367  24.954  0.00  0.00    -0.227 NA
ATOM     24  C   UNL     1      -1.489  -0.862  25.470  0.00  0.00    +0.198 A 
ATOM     25  N   UNL     1      -2.249  -0.555  25.569  0.00  0.00    -0.225 NA
ENDROOT
BRANCH  13  14
ATOM     14  C   UNL     1      -1.995   2.079  23.621  0.00  0.00    +0.260 C 
ATOM     15  O   UNL     1      -2.410   2.123  22.909  0.00  0.00    -0.272 OA
ATOM     16  N   UNL     1      -1.477   2.683  23.835  0.00  0.00    -0.206 NA
BRANCH  16  17
ATOM     17  C   UNL     1      -1.062   2.639  24.547  0.00  0.00    +0.095 C 
ATOM     18  C   UNL     1      -0.317   2.284  24.569  0.00  0.00    +0.022 C 
ATOM     19  C   UNL     1       0.098   2.239  25.280  0.00  0.00    +0.002 C 
ATOM     20  C   UNL     1      -0.231   2.550  25.970  0.00  0.00    +0.000 C 
ATOM     21  C   UNL     1      -0.976   2.904  25.949  0.00  0.00    +0.002 C 
ATOM     22  C   UNL     1      -1.391   2.949  25.237  0.00  0.00    +0.022 C 
ENDBRANCH  16  17
ENDBRANCH  13  14
BRANCH   6   5
ATOM      5  C   UNL     1      -4.163   1.728  24.761  0.00  0.00    +0.097 C 
BRANCH   5   4
ATOM      4  C   UNL     1      -4.774   2.275  24.663  0.00  0.00    +0.124 C 
BRANCH   4   2
ATOM      1  O   UNL     1      -5.556   2.573  25.821  0.00  0.00    -0.246 OA
ATOM      2  C   UNL     1      -5.474   2.193  25.093  0.00  0.00    +0.365 C 
ATOM      3  O   UNL     1      -6.090   1.733  24.796  0.00  0.00    -0.246 OA
ENDBRANCH   4   2
ENDBRANCH   5   4
ENDBRANCH   6   5
TORSDOF 5
ENDMDL
MODEL 6
REMARK VINA RESULT:      -9.7      1.905      4.167
REMARK  Name = 
REMARK  5 active torsions:
REMARK  status: ('A' for Active; 'I' for Inactive)
REMARK    1  A    between atoms: C_2  and  C_4
REMARK    2  A    between atoms: C_4  and  C_5
REMARK    3  A    between atoms: C_5  and  C_6
REMARK    4  A    between atoms: C_13  and  C_14
REMARK    5  A    between atoms: N_16  and  C_17
REMARK                            x       y       z     vdW  Elec       q    Type
REMARK                         _______ _______ _______ _____ _____    ______ ____
ROOT
ATOM      6  C   UNL     1      -2.803   2.231  24.708  0.00  0.00    +0.227 C 
ATOM      7  O   UNL     1      -3.523   2.336  24.319  0.00  0.00    -0.275 OA
ATOM      8  N   UNL     1      -2.356   1.551  24.572  0.00  0.00    -0.267 N 
ATOM      9  C   UNL     1      -1.637   1.445  24.960  0.00  0.00    +0.141 C 
ATOM     10  C   UNL     1      -1.190   0.765  24.824  0.00  0.00    +0.094 A 
ATOM     11  C   UNL     1      -1.464   0.191  24.298  0.00  0.00    +0.078 A 
ATOM     12  C   UNL     1      -2.183   0.296  23.910  0.00  0.00    +0.076 C 
ATOM     13  C   UNL     1      -2.630   0.976  24.046  0.00  0.00    +0.160 C 
ATOM     23  N   UNL     1      -0.907  -0.418  24.275  0.00  0.00    -0.227 NA
ATOM     24  C   UNL     1      -0.290  -0.220  24.785  0.00  0.00    +0.198 A 
ATOM     25  N   UNL     1      -0.465   0.511  25.125  0.00  0.00    -0.225 NA
ENDROOT
BRANCH  13  14
ATOM     14  C   UNL     1      -3.349   1.082  23.657  0.00  0.00    +0.260 C 
ATOM     15  O   UNL     1      -3.439   1.700  23.117  0.00  0.00    -0.272 OA
ATOM     16  N   UNL     1      -3.978   0.570  23.807  0.00  0.00    -0.206 NA
BRANCH  16  17
ATOM     17  C   UNL     1      -3.888  -0.048  24.346  0.00  0.00    +0.095 C 
ATOM     18  C   UNL     1      -3.661  -0.796  24.082  0.00  0.00    +0.022 C 
ATOM     19  C   UNL     1      -3.571  -1.414  24.620  0.00  0.00    +0.002 C 
ATOM     20  C   UNL     1      -3.707  -1.285  25.424  0.00  0.00    +0.000 C 
ATOM     21  C   UNL     1      -3.934  -0.537  25.688  0.00  0.00    +0.002 C 
ATOM     22  C   UNL     1      -4.024   0.081  25.149  0.00  0.00    +0.022 C 
ENDBRANCH  16  17
ENDBRANCH  13  14
BRANCH   6   5
ATOM      5  C   UNL     1      -2.529   2.805  25.233  0.00  0.00    +0.097 C 
BRANCH   5   4
ATOM      4  C   UNL     1      -2.928   3.524  25.301  0.00  0.00    +0.124 C 
BRANCH   4   2
ATOM      1  O   UNL     1      -2.050   4.608  25.613  0.00  0.00    -0.246 OA
ATOM      2  C   UNL     1      -2.659   4.096  25.832  0.00  0.00    +0.365 C 
ATOM      3  O   UNL     1      -2.999   4.157  26.581  0.00  0.00    -0.246 OA
ENDBRANCH   4   2
ENDBRANCH   5   4
ENDBRANCH   6   5
TORSDOF 5
ENDMDL
