MODEL 1
REMARK VINA RESULT:     -11.1      0.000      0.000
REMARK  Name = 
REMARK  4 active torsions:
REMARK  status: ('A' for Active; 'I' for Inactive)
REMARK    1  A    between atoms: C_7  and  N_10
REMARK    2  A    between atoms: C_14  and  C_15
REMARK    3  A    between atoms: C_17  and  C_20
REMARK    4  A    between atoms: C_23  and  N_26
REMARK                            x       y       z     vdW  Elec       q    Type
REMARK                         _______ _______ _______ _____ _____    ______ ____
ROOT
ATOM     15  C   UNL     1      -4.374   2.368  24.652  0.00  0.00    +0.251 A 
ATOM     16  N   UNL     1      -4.232   1.605  24.933  0.00  0.00    -0.190 NA
ATOM     17  C   UNL     1      -3.922   1.159  24.313  0.00  0.00    +0.205 A 
ATOM     18  N   UNL     1      -3.872   1.645  23.649  0.00  0.00    -0.056 NA
ATOM     19  O   UNL     1      -4.152   2.392  23.859  0.00  0.00    -0.336 OA
ENDROOT
BRANCH  17  20
ATOM     20  C   UNL     1      -3.700   0.364  24.350  0.00  0.00    +0.058 A 
ATOM     21  C   UNL     1      -4.267  -0.227  24.252  0.00  0.00    +0.008 A 
ATOM     22  C   UNL     1      -4.046  -1.021  24.289  0.00  0.00    +0.038 A 
ATOM     23  C   UNL     1      -3.257  -1.223  24.425  0.00  0.00    +0.149 A 
ATOM     24  N   UNL     1      -2.690  -0.632  24.522  0.00  0.00    -0.226 NA
ATOM     25  C   UNL     1      -2.912   0.162  24.485  0.00  0.00    +0.104 A 
BRANCH  23  26
ATOM     26  N   UNL     1      -3.036  -2.017  24.462  0.00  0.00    -0.271 N 
ATOM     27  C   UNL     1      -3.547  -2.660  24.540  0.00  0.00    +0.104 A 
ATOM     28  C   UNL     1      -3.091  -3.348  24.554  0.00  0.00    +0.120 A 
ATOM     29  N   UNL     1      -2.298  -3.130  24.484  0.00  0.00    -0.222 NA
ATOM     30  C   UNL     1      -2.264  -2.307  24.427  0.00  0.00    +0.184 A 
ENDBRANCH  23  26
ENDBRANCH  17  20
BRANCH  15  14
ATOM     10  N   UNL     1      -4.253   3.613  25.422  0.00  0.00    -0.268 NA
ATOM     11  C   UNL     1      -4.781   4.115  25.808  0.00  0.00    +0.072 C 
ATOM     12  C   UNL     1      -5.541   3.806  25.713  0.00  0.00    +0.019 C 
ATOM     13  C   UNL     1      -5.481   3.114  25.269  0.00  0.00    +0.027 C 
ATOM     14  C   UNL     1      -4.684   2.995  25.089  0.00  0.00    +0.138 C 
BRANCH  10   7
ATOM      1  C   UNL     1      -0.651   4.431  24.614  0.00  0.00    +0.095 C 
ATOM      2  C   UNL     1      -0.981   4.013  25.242  0.00  0.00    +0.226 C 
ATOM      3  O   UNL     1      -0.494   3.693  25.827  0.00  0.00    -0.275 OA
ATOM      4  N   UNL     1      -1.800   3.913  25.287  0.00  0.00    -0.279 N 
ATOM      5  C   UNL     1      -2.130   3.493  25.917  0.00  0.00    +0.095 C 
ATOM      6  C   UNL     1      -2.948   3.393  25.962  0.00  0.00    +0.038 C 
ATOM      7  C   UNL     1      -3.435   3.713  25.377  0.00  0.00    +0.061 C 
ATOM      8  C   UNL     1      -3.104   4.132  24.748  0.00  0.00    +0.038 C 
ATOM      9  C   UNL     1      -2.287   4.232  24.703  0.00  0.00    +0.095 C 
ENDBRANCH  10   7
ENDBRANCH  15  14
TORSDOF 4
ENDMDL
MODEL 2
REMARK VINA RESULT:     -10.9      1.448      3.002
REMARK  Name = 
REMARK  4 active torsions:
REMARK  status: ('A' for Active; 'I' for Inactive)
REMARK    1  A    between atoms: C_7  and  N_10
REMARK    2  A    between atoms: C_14  and  C_15
REMARK    3  A    between atoms: C_17  and  C_20
REMARK    4  A    between atoms: C_23  and  N_26
REMARK                            x       y       z     vdW  Elec       q    Type
REMARK                         _______ _______ _______ _____ _____    ______ ____
ROOT
ATOM     15  C   UNL     1      -1.066   3.096  25.485  0.00  0.00    +0.251 A 
ATOM     16  N   UNL     1      -1.239   2.416  25.051  0.00  0.00    -0.190 NA
ATOM     17  C   UNL     1      -1.103   1.762  25.535  0.00  0.00    +0.205 A 
ATOM     18  N   UNL     1      -0.846   2.038  26.268  0.00  0.00    -0.056 NA
ATOM     19  O   UNL     1      -0.822   2.861  26.238  0.00  0.00    -0.336 OA
ENDROOT
BRANCH  17  20
ATOM     20  C   UNL     1      -1.207   0.971  25.323  0.00  0.00    +0.058 A 
ATOM     21  C   UNL     1      -1.662   0.474  25.799  0.00  0.00    +0.008 A 
ATOM     22  C   UNL     1      -1.765  -0.317  25.586  0.00  0.00    +0.038 A 
ATOM     23  C   UNL     1      -1.414  -0.610  24.900  0.00  0.00    +0.149 A 
ATOM     24  N   UNL     1      -0.959  -0.112  24.424  0.00  0.00    -0.226 NA
ATOM     25  C   UNL     1      -0.856   0.679  24.636  0.00  0.00    +0.104 A 
BRANCH  23  26
ATOM     26  N   UNL     1      -1.517  -1.400  24.687  0.00  0.00    -0.271 N 
ATOM     27  C   UNL     1      -2.226  -1.750  24.449  0.00  0.00    +0.104 A 
ATOM     28  C   UNL     1      -2.077  -2.546  24.290  0.00  0.00    +0.120 A 
ATOM     29  N   UNL     1      -1.277  -2.688  24.432  0.00  0.00    -0.222 NA
ATOM     30  C   UNL     1      -0.931  -1.980  24.677  0.00  0.00    +0.184 A 
ENDBRANCH  23  26
ENDBRANCH  17  20
BRANCH  15  14
ATOM     10  N   UNL     1      -1.823   4.298  25.113  0.00  0.00    -0.268 NA
ATOM     11  C   UNL     1      -1.628   5.049  24.833  0.00  0.00    +0.072 C 
ATOM     12  C   UNL     1      -0.806   5.087  24.761  0.00  0.00    +0.019 C 
ATOM     13  C   UNL     1      -0.496   4.360  24.997  0.00  0.00    +0.027 C 
ATOM     14  C   UNL     1      -1.125   3.872  25.215  0.00  0.00    +0.138 C 
BRANCH  10   7
ATOM      1  C   UNL     1      -5.317   2.853  25.114  0.00  0.00    +0.095 C 
ATOM      2  C   UNL     1      -4.874   3.192  25.721  0.00  0.00    +0.226 C 
ATOM      3  O   UNL     1      -5.191   3.256  26.480  0.00  0.00    -0.275 OA
ATOM      4  N   UNL     1      -4.110   3.469  25.569  0.00  0.00    -0.279 N 
ATOM      5  C   UNL     1      -3.667   3.808  26.176  0.00  0.00    +0.095 C 
ATOM      6  C   UNL     1      -2.904   4.085  26.024  0.00  0.00    +0.038 C 
ATOM      7  C   UNL     1      -2.586   4.022  25.265  0.00  0.00    +0.061 C 
ATOM      8  C   UNL     1      -3.030   3.682  24.659  0.00  0.00    +0.038 C 
ATOM      9  C   UNL     1      -3.793   3.406  24.811  0.00  0.00    +0.095 C 
ENDBRANCH  10   7
ENDBRANCH  15  14
TORSDOF 4
ENDMDL
MODEL 3
REMARK VINA RESULT:     -10.7      2.996      4.733
REMARK  Name = 
REMARK  4 active torsions:
REMARK  status: ('A' for Active; 'I' for Inactive)
REMARK    1  A    between atoms: C_7  and  N_10
REMARK    2  A    between atoms: C_14  and  C_15
REMARK    3  A    between atoms: C_17  and  C_20
REMARK    4  A    between atoms: C_23  and  N_26
REMARK                            x       y       z     vdW  Elec       q    Type
REMARK                         _______ _______ _______ _____ _____    ______ ____
ROOT
ATOM     15  C   UNL     1      -2.461   1.133  24.854  0.00  0.00    +0.251 A 
ATOM     16  N   UNL     1      -1.917   1.040  24.239  0.00  0.00    -0.190 NA
ATOM     17  C   UNL     1      -1.186   0.853  24.572  0.00  0.00    +0.205 A 
ATOM     18  N   UNL     1      -1.277   0.830  25.391  0.00  0.00    -0.056 NA
ATOM     19  O   UNL     1      -2.064   1.003  25.565  0.00  0.00    -0.336 OA
ENDROOT
BRANCH  17  20
ATOM     20  C   UNL     1      -0.486   0.714  24.158  0.00  0.00    +0.058 A 
ATOM     21  C   UNL     1      -0.291  -0.053  23.924  0.00  0.00    +0.008 A 
ATOM     22  C   UNL     1       0.409  -0.192  23.510  0.00  0.00    +0.038 A 
ATOM     23  C   UNL     1       0.914   0.435  23.330  0.00  0.00    +0.149 A 
ATOM     24  N   UNL     1       0.719   1.201  23.564  0.00  0.00    -0.226 NA
ATOM     25  C   UNL     1       0.019   1.341  23.978  0.00  0.00    +0.104 A 
BRANCH  23  26
ATOM     26  N   UNL     1       1.614   0.295  22.916  0.00  0.00    -0.271 N 
ATOM     27  C   UNL     1       2.364   0.567  23.126  0.00  0.00    +0.104 A 
ATOM     28  C   UNL     1       2.900   0.299  22.559  0.00  0.00    +0.120 A 
ATOM     29  N   UNL     1       2.481  -0.138  21.998  0.00  0.00    -0.222 NA
ATOM     30  C   UNL     1       1.686  -0.140  22.219  0.00  0.00    +0.184 A 
ENDBRANCH  23  26
ENDBRANCH  17  20
BRANCH  15  14
ATOM     10  N   UNL     1      -3.881   0.784  24.717  0.00  0.00    -0.268 NA
ATOM     11  C   UNL     1      -4.583   1.211  24.638  0.00  0.00    +0.072 C 
ATOM     12  C   UNL     1      -4.393   2.014  24.643  0.00  0.00    +0.019 C 
ATOM     13  C   UNL     1      -3.575   2.083  24.724  0.00  0.00    +0.027 C 
ATOM     14  C   UNL     1      -3.259   1.322  24.770  0.00  0.00    +0.138 C 
BRANCH  10   7
ATOM      1  C   UNL     1      -3.625  -2.938  24.102  0.00  0.00    +0.095 C 
ATOM      2  C   UNL     1      -3.615  -2.505  24.803  0.00  0.00    +0.226 C 
ATOM      3  O   UNL     1      -3.537  -2.893  25.527  0.00  0.00    -0.275 OA
ATOM      4  N   UNL     1      -3.681  -1.682  24.782  0.00  0.00    -0.279 N 
ATOM      5  C   UNL     1      -3.670  -1.249  25.484  0.00  0.00    +0.095 C 
ATOM      6  C   UNL     1      -3.737  -0.427  25.463  0.00  0.00    +0.038 C 
ATOM      7  C   UNL     1      -3.815  -0.038  24.738  0.00  0.00    +0.061 C 
ATOM      8  C   UNL     1      -3.825  -0.472  24.037  0.00  0.00    +0.038 C 
ATOM      9  C   UNL     1      -3.759  -1.294  24.059  0.00  0.00    +0.095 C 
ENDBRANCH  10   7
ENDBRANCH  15  14
TORSDOF 4
ENDMDL
MODEL 4
REMARK VINA RESULT:     -10.0      2.897      4.469
REMARK  Name = 
REMARK  4 active torsions:
REMARK  status: ('A' for Active; 'I' for Inactive)
REMARK    1  A    between atoms: C_7  and  N_10
REMARK    2  A    between atoms: C_14  and  C_15
REMARK    3  A    between atoms: C_17  and  C_20
REMARK    4  A    between atoms: C_23  and  N_26
REMARK                            x       y       z     vdW  Elec       q    Type
REMARK                         _______ _______ _______ _____ _____    ______ ____
ROOT
ATOM     15  C   UNL     1      -2.257  -0.473  24.799  0.00  0.00    +0.251 A 
ATOM     16  N   UNL     1      -1.676  -0.502  24.212  0.00  0.00    -0.190 NA
ATOM     17  C   UNL     1      -0.997  -0.139  24.507  0.00  0.00    +0.205 A 
ATOM     18  N   UNL     1      -1.157   0.115  25.276  0.00  0.00    -0.056 NA
ATOM     19  O   UNL     1      -1.934  -0.092  25.456  0.00  0.00    -0.336 OA
ENDROOT
BRANCH  17  20
ATOM     20  C   UNL     1      -0.283  -0.045  24.104  0.00  0.00    +0.058 A 
ATOM     21  C   UNL     1      -0.014   0.711  23.913  0.00  0.00    +0.008 A 
ATOM     22  C   UNL     1       0.700   0.804  23.510  0.00  0.00    +0.038 A 
ATOM     23  C   UNL     1       1.144   0.142  23.299  0.00  0.00    +0.149 A 
ATOM     24  N   UNL     1       0.875  -0.614  23.490  0.00  0.00    -0.226 NA
ATOM     25  C   UNL     1       0.161  -0.707  23.893  0.00  0.00    +0.104 A 
BRANCH  23  26
ATOM     26  N   UNL     1       1.858   0.236  22.896  0.00  0.00    -0.271 N 
ATOM     27  C   UNL     1       2.508   0.673  23.156  0.00  0.00    +0.104 A 
ATOM     28  C   UNL     1       3.099   0.616  22.583  0.00  0.00    +0.120 A 
ATOM     29  N   UNL     1       2.815   0.144  21.969  0.00  0.00    -0.222 NA
ATOM     30  C   UNL     1       2.047  -0.091  22.162  0.00  0.00    +0.184 A 
ENDBRANCH  23  26
ENDBRANCH  17  20
BRANCH  15  14
ATOM     10  N   UNL     1      -3.700  -0.338  24.563  0.00  0.00    -0.268 NA
ATOM     11  C   UNL     1      -4.342  -0.855  24.559  0.00  0.00    +0.072 C 
ATOM     12  C   UNL     1      -4.061  -1.612  24.731  0.00  0.00    +0.019 C 
ATOM     13  C   UNL     1      -3.245  -1.560  24.842  0.00  0.00    +0.027 C 
ATOM     14  C   UNL     1      -3.022  -0.772  24.738  0.00  0.00    +0.138 C 
BRANCH  10   7
ATOM      1  C   UNL     1      -3.966   3.434  24.601  0.00  0.00    +0.095 C 
ATOM      2  C   UNL     1      -3.825   2.909  23.981  0.00  0.00    +0.226 C 
ATOM      3  O   UNL     1      -3.714   3.195  23.215  0.00  0.00    -0.275 OA
ATOM      4  N   UNL     1      -3.794   2.097  24.127  0.00  0.00    -0.279 N 
ATOM      5  C   UNL     1      -3.652   1.572  23.506  0.00  0.00    +0.095 C 
ATOM      6  C   UNL     1      -3.621   0.760  23.651  0.00  0.00    +0.038 C 
ATOM      7  C   UNL     1      -3.731   0.474  24.418  0.00  0.00    +0.061 C 
ATOM      8  C   UNL     1      -3.873   0.999  25.038  0.00  0.00    +0.038 C 
ATOM      9  C   UNL     1      -3.904   1.811  24.892  0.00  0.00    +0.095 C 
ENDBRANCH  10   7
ENDBRANCH  15  14
TORSDOF 4
ENDMDL
MODEL 5
REMARK VINA RESULT:      -8.2     16.817     19.466
REMARK  Name = 
REMARK  4 active torsions:
REMARK  status: ('A' for Active; 'I' for Inactive)
REMARK    1  A    between atoms: C_7  and  N_10
REMARK    2  A    between atoms: C_14  and  C_15
REMARK    3  A    between atoms: C_17  and  C_20
REMARK    4  A    between atoms: C_23  and  N_26
REMARK                            x       y       z     vdW  Elec       q    Type
REMARK                         _______ _______ _______ _____ _____    ______ ____
ROOT
ATOM     15  C   UNL     1      15.076   7.853  19.384  0.00  0.00    +0.251 A 
ATOM     16  N   UNL     1      14.473   7.715  18.837  0.00  0.00    -0.190 NA
ATOM     17  C   UNL     1      14.271   8.436  18.492  0.00  0.00    +0.205 A 
ATOM     18  N   UNL     1      14.748   9.020  18.825  0.00  0.00    -0.056 NA
ATOM     19  O   UNL     1      15.245   8.661  19.376  0.00  0.00    -0.336 OA
ENDROOT
BRANCH  17  20
ATOM     20  C   UNL     1      13.693   8.552  17.915  0.00  0.00    +0.058 A 
ATOM     21  C   UNL     1      12.968   8.889  18.120  0.00  0.00    +0.008 A 
ATOM     22  C   UNL     1      12.390   9.005  17.543  0.00  0.00    +0.038 A 
ATOM     23  C   UNL     1      12.536   8.785  16.761  0.00  0.00    +0.149 A 
ATOM     24  N   UNL     1      13.261   8.448  16.557  0.00  0.00    -0.226 NA
ATOM     25  C   UNL     1      13.839   8.332  17.134  0.00  0.00    +0.104 A 
BRANCH  23  26
ATOM     26  N   UNL     1      11.958   8.901  16.184  0.00  0.00    -0.271 N 
ATOM     27  C   UNL     1      11.149   8.992  16.319  0.00  0.00    +0.104 A 
ATOM     28  C   UNL     1      10.778   9.094  15.590  0.00  0.00    +0.120 A 
ATOM     29  N   UNL     1      11.358   9.066  15.003  0.00  0.00    -0.222 NA
ATOM     30  C   UNL     1      12.087   8.947  15.371  0.00  0.00    +0.184 A 
ENDBRANCH  23  26
ENDBRANCH  17  20
BRANCH  15  14
ATOM     10  N   UNL     1      15.136   6.954  20.544  0.00  0.00    -0.268 NA
ATOM     11  C   UNL     1      15.685   6.412  20.835  0.00  0.00    +0.072 C 
ATOM     12  C   UNL     1      16.333   6.408  20.325  0.00  0.00    +0.019 C 
ATOM     13  C   UNL     1      16.184   6.947  19.719  0.00  0.00    +0.027 C 
ATOM     14  C   UNL     1      15.443   7.285  19.855  0.00  0.00    +0.138 C 
BRANCH  10   7
ATOM      1  C   UNL     1      11.556   7.209  21.734  0.00  0.00    +0.095 C 
ATOM      2  C   UNL     1      12.215   7.674  21.904  0.00  0.00    +0.226 C 
ATOM      3  O   UNL     1      12.146   8.319  22.414  0.00  0.00    -0.275 OA
ATOM      4  N   UNL     1      12.946   7.494  21.564  0.00  0.00    -0.279 N 
ATOM      5  C   UNL     1      13.606   7.959  21.734  0.00  0.00    +0.095 C 
ATOM      6  C   UNL     1      14.336   7.780  21.394  0.00  0.00    +0.038 C 
ATOM      7  C   UNL     1      14.406   7.134  20.884  0.00  0.00    +0.061 C 
ATOM      8  C   UNL     1      13.746   6.669  20.715  0.00  0.00    +0.038 C 
ATOM      9  C   UNL     1      13.016   6.849  21.055  0.00  0.00    +0.095 C 
ENDBRANCH  10   7
ENDBRANCH  15  14
TORSDOF 4
ENDMDL
MODEL 6
REMARK VINA RESULT:      -8.1     16.430     18.600
REMARK  Name = 
REMARK  4 active torsions:
REMARK  status: ('A' for Active; 'I' for Inactive)
REMARK    1  A    between atoms: C_7  and  N_10
REMARK    2  A    between atoms: C_14  and  C_15
REMARK    3  A    between atoms: C_17  and  C_20
REMARK    4  A    between atoms: C_23  and  N_26
REMARK                            x       y       z     vdW  Elec       q    Type
REMARK                         _______ _______ _______ _____ _____    ______ ____
ROOT
ATOM     15  C   UNL     1      11.578   8.088  20.513  0.00  0.00    +0.251 A 
ATOM     16  N   UNL     1      11.949   8.492  19.896  0.00  0.00    -0.190 NA
ATOM     17  C   UNL     1      12.058   7.961  19.274  0.00  0.00    +0.205 A 
ATOM     18  N   UNL     1      11.755   7.231  19.506  0.00  0.00    -0.056 NA
ATOM     19  O   UNL     1      11.459   7.309  20.271  0.00  0.00    -0.336 OA
ENDROOT
BRANCH  17  20
ATOM     20  C   UNL     1      12.408   8.133  18.547  0.00  0.00    +0.058 A 
ATOM     21  C   UNL     1      12.521   8.917  18.318  0.00  0.00    +0.008 A 
ATOM     22  C   UNL     1      12.871   9.088  17.591  0.00  0.00    +0.038 A 
ATOM     23  C   UNL     1      13.109   8.475  17.093  0.00  0.00    +0.149 A 
ATOM     24  N   UNL     1      12.997   7.690  17.322  0.00  0.00    -0.226 NA
ATOM     25  C   UNL     1      12.646   7.519  18.049  0.00  0.00    +0.104 A 
BRANCH  23  26
ATOM     26  N   UNL     1      13.460   8.646  16.365  0.00  0.00    -0.271 N 
ATOM     27  C   UNL     1      14.214   8.962  16.253  0.00  0.00    +0.104 A 
ATOM     28  C   UNL     1      14.338   9.043  15.441  0.00  0.00    +0.120 A 
ATOM     29  N   UNL     1      13.661   8.776  15.052  0.00  0.00    -0.222 NA
ATOM     30  C   UNL     1      13.118   8.531  15.624  0.00  0.00    +0.184 A 
ENDBRANCH  23  26
ENDBRANCH  17  20
BRANCH  15  14
ATOM     10  N   UNL     1      11.874   8.554  21.875  0.00  0.00    -0.268 NA
ATOM     11  C   UNL     1      11.430   8.875  22.492  0.00  0.00    +0.072 C 
ATOM     12  C   UNL     1      10.646   8.927  22.241  0.00  0.00    +0.019 C 
ATOM     13  C   UNL     1      10.606   8.638  21.469  0.00  0.00    +0.027 C 
ATOM     14  C   UNL     1      11.365   8.408  21.243  0.00  0.00    +0.138 C 
BRANCH  10   7
ATOM      1  C   UNL     1      15.655   8.582  21.838  0.00  0.00    +0.095 C 
ATOM      2  C   UNL     1      15.121   7.960  21.929  0.00  0.00    +0.226 C 
ATOM      3  O   UNL     1      15.397   7.190  22.033  0.00  0.00    -0.275 OA
ATOM      4  N   UNL     1      14.308   8.109  21.915  0.00  0.00    -0.279 N 
ATOM      5  C   UNL     1      13.774   7.487  22.006  0.00  0.00    +0.095 C 
ATOM      6  C   UNL     1      12.962   7.635  21.993  0.00  0.00    +0.038 C 
ATOM      7  C   UNL     1      12.685   8.406  21.888  0.00  0.00    +0.061 C 
ATOM      8  C   UNL     1      13.220   9.027  21.797  0.00  0.00    +0.038 C 
ATOM      9  C   UNL     1      14.032   8.878  21.811  0.00  0.00    +0.095 C 
ENDBRANCH  10   7
ENDBRANCH  15  14
TORSDOF 4
ENDMDL
MODEL 7
REMARK VINA RESULT:      -8.1     17.775     19.459
REMARK  Name = 
REMARK  4 active torsions:
REMARK  status: ('A' for Active; 'I' for Inactive)
REMARK    1  A    between atoms: C_7  and  N_10
REMARK    2  A    between atoms: C_14  and  C_15
REMARK    3  A    between atoms: C_17  and  C_20
REMARK    4  A    between atoms: C_23  and  N_26
REMARK                            x       y       z     vdW  Elec       q    Type
REMARK                         _______ _______ _______ _____ _____    ______ ____
ROOT
ATOM     15  C   UNL     1      13.776   7.732  20.745  0.00  0.00    +0.251 A 
ATOM     16  N   UNL     1      13.451   8.183  20.134  0.00  0.00    -0.190 NA
ATOM     17  C   UNL     1      13.032   7.675  19.638  0.00  0.00    +0.205 A 
ATOM     18  N   UNL     1      13.097   6.911  19.941  0.00  0.00    -0.056 NA
ATOM     19  O   UNL     1      13.556   6.946  20.624  0.00  0.00    -0.336 OA
ENDROOT
BRANCH  17  20
ATOM     20  C   UNL     1      12.619   7.894  18.957  0.00  0.00    +0.058 A 
ATOM     21  C   UNL     1      12.884   7.644  18.217  0.00  0.00    +0.008 A 
ATOM     22  C   UNL     1      12.471   7.862  17.536  0.00  0.00    +0.038 A 
ATOM     23  C   UNL     1      11.795   8.331  17.597  0.00  0.00    +0.149 A 
ATOM     24  N   UNL     1      11.530   8.580  18.337  0.00  0.00    -0.226 NA
ATOM     25  C   UNL     1      11.943   8.362  19.018  0.00  0.00    +0.104 A 
BRANCH  23  26
ATOM     26  N   UNL     1      11.382   8.549  16.916  0.00  0.00    -0.271 N 
ATOM     27  C   UNL     1      11.675   9.014  16.300  0.00  0.00    +0.104 A 
ATOM     28  C   UNL     1      11.078   9.094  15.735  0.00  0.00    +0.120 A 
ATOM     29  N   UNL     1      10.417   8.678  16.002  0.00  0.00    -0.222 NA
ATOM     30  C   UNL     1      10.606   8.341  16.732  0.00  0.00    +0.184 A 
ENDBRANCH  23  26
ENDBRANCH  17  20
BRANCH  15  14
ATOM     10  N   UNL     1      15.047   7.892  21.464  0.00  0.00    -0.268 NA
ATOM     11  C   UNL     1      15.282   8.275  22.156  0.00  0.00    +0.072 C 
ATOM     12  C   UNL     1      14.618   8.638  22.485  0.00  0.00    +0.019 C 
ATOM     13  C   UNL     1      13.972   8.478  21.996  0.00  0.00    +0.027 C 
ATOM     14  C   UNL     1      14.238   8.017  21.365  0.00  0.00    +0.138 C 
BRANCH  10   7
ATOM      1  C   UNL     1      17.097   5.350  19.560  0.00  0.00    +0.095 C 
ATOM      2  C   UNL     1      17.003   6.161  19.446  0.00  0.00    +0.226 C 
ATOM      3  O   UNL     1      17.397   6.540  18.829  0.00  0.00    -0.275 OA
ATOM      4  N   UNL     1      16.513   6.594  19.951  0.00  0.00    -0.279 N 
ATOM      5  C   UNL     1      16.419   7.406  19.837  0.00  0.00    +0.095 C 
ATOM      6  C   UNL     1      15.930   7.839  20.342  0.00  0.00    +0.038 C 
ATOM      7  C   UNL     1      15.535   7.459  20.960  0.00  0.00    +0.061 C 
ATOM      8  C   UNL     1      15.631   6.648  21.073  0.00  0.00    +0.038 C 
ATOM      9  C   UNL     1      16.120   6.215  20.569  0.00  0.00    +0.095 C 
ENDBRANCH  10   7
ENDBRANCH  15  14
TORSDOF 4
ENDMDL
MODEL 8
REMARK VINA RESULT:      -7.4     16.220     19.412
REMARK  Name = 
REMARK  4 active torsions:
REMARK  status: ('A' for Active; 'I' for Inactive)
REMARK    1  A    between atoms: C_7  and  N_10
REMARK    2  A    between atoms: C_14  and  C_15
REMARK    3  A    between atoms: C_17  and  C_20
REMARK    4  A    between atoms: C_23  and  N_26
REMARK                            x       y       z     vdW  Elec       q    Type
REMARK                         _______ _______ _______ _____ _____    ______ ____
ROOT
ATOM     15  C   UNL     1      14.693   8.167  20.659  0.00  0.00    +0.251 A 
ATOM     16  N   UNL     1      14.489   8.566  19.966  0.00  0.00    -0.190 NA
ATOM     17  C   UNL     1      14.527   8.029  19.342  0.00  0.00    +0.205 A 
ATOM     18  N   UNL     1      14.753   7.298  19.648  0.00  0.00    -0.056 NA
ATOM     19  O   UNL     1      14.856   7.383  20.461  0.00  0.00    -0.336 OA
ENDROOT
BRANCH  17  20
ATOM     20  C   UNL     1      14.366   8.195  18.549  0.00  0.00    +0.058 A 
ATOM     21  C   UNL     1      14.001   7.626  18.076  0.00  0.00    +0.008 A 
ATOM     22  C   UNL     1      13.840   7.792  17.283  0.00  0.00    +0.038 A 
ATOM     23  C   UNL     1      14.044   8.525  16.966  0.00  0.00    +0.149 A 
ATOM     24  N   UNL     1      14.408   9.094  17.439  0.00  0.00    -0.226 NA
ATOM     25  C   UNL     1      14.569   8.928  18.232  0.00  0.00    +0.104 A 
BRANCH  23  26
ATOM     26  N   UNL     1      13.883   8.691  16.173  0.00  0.00    -0.271 N 
ATOM     27  C   UNL     1      14.428   8.675  15.554  0.00  0.00    +0.104 A 
ATOM     28  C   UNL     1      14.030   8.875  14.859  0.00  0.00    +0.120 A 
ATOM     29  N   UNL     1      13.240   9.016  15.049  0.00  0.00    -0.222 NA
ATOM     30  C   UNL     1      13.149   8.901  15.862  0.00  0.00    +0.184 A 
ENDBRANCH  23  26
ENDBRANCH  17  20
BRANCH  15  14
ATOM     10  N   UNL     1      14.105   8.535  21.954  0.00  0.00    -0.268 NA
ATOM     11  C   UNL     1      14.382   8.904  22.638  0.00  0.00    +0.072 C 
ATOM     12  C   UNL     1      15.178   9.091  22.521  0.00  0.00    +0.019 C 
ATOM     13  C   UNL     1      15.391   8.838  21.765  0.00  0.00    +0.027 C 
ATOM     14  C   UNL     1      14.727   8.494  21.415  0.00  0.00    +0.138 C 
BRANCH  10   7
ATOM      1  C   UNL     1      10.861   6.624  21.607  0.00  0.00    +0.095 C 
ATOM      2  C   UNL     1      11.039   7.416  21.464  0.00  0.00    +0.226 C 
ATOM      3  O   UNL     1      10.450   7.930  21.198  0.00  0.00    -0.275 OA
ATOM      4  N   UNL     1      11.806   7.696  21.587  0.00  0.00    -0.279 N 
ATOM      5  C   UNL     1      11.983   8.489  21.443  0.00  0.00    +0.095 C 
ATOM      6  C   UNL     1      12.750   8.769  21.566  0.00  0.00    +0.038 C 
ATOM      7  C   UNL     1      13.339   8.255  21.832  0.00  0.00    +0.061 C 
ATOM      8  C   UNL     1      13.161   7.463  21.975  0.00  0.00    +0.038 C 
ATOM      9  C   UNL     1      12.394   7.183  21.852  0.00  0.00    +0.095 C 
ENDBRANCH  10   7
ENDBRANCH  15  14
TORSDOF 4
ENDMDL
