MODEL 1
REMARK VINA RESULT:     -12.3      0.000      0.000
REMARK  Name = 
REMARK  4 active torsions:
REMARK  status: ('A' for Active; 'I' for Inactive)
REMARK    1  A    between atoms: N_2  and  C_4
REMARK    2  A    between atoms: C_7  and  C_8
REMARK    3  A    between atoms: C_8  and  N_9
REMARK    4  A    between atoms: C_12  and  C_14
REMARK                            x       y       z     vdW  Elec       q    Type
REMARK                         _______ _______ _______ _____ _____    ______ ____
ROOT
ATOM      9  N   UNL     1      -4.554   2.029  24.663  0.00  0.00    -0.268 NA
ATOM     10  C   UNL     1      -5.129   1.825  25.219  0.00  0.00    +0.073 C 
ATOM     11  C   UNL     1      -5.101   1.007  25.325  0.00  0.00    +0.028 C 
ATOM     12  C   UNL     1      -4.509   0.706  24.836  0.00  0.00    +0.094 C 
ATOM     13  C   UNL     1      -4.171   1.337  24.426  0.00  0.00    +0.082 C 
ENDROOT
BRANCH  12  14
ATOM     14  C   UNL     1      -4.293  -0.087  24.767  0.00  0.00    +0.207 A 
ATOM     15  N   UNL     1      -3.850  -0.518  25.314  0.00  0.00    -0.212 NA
ATOM     16  C   UNL     1      -3.765  -1.286  25.025  0.00  0.00    +0.119 A 
ATOM     17  C   UNL     1      -4.156  -1.330  24.299  0.00  0.00    +0.164 A 
ATOM     18  O   UNL     1      -4.482  -0.589  24.140  0.00  0.00    -0.438 OA
ATOM     19  C   UNL     1      -4.163  -2.039  23.878  0.00  0.00    +0.039 A 
ATOM     20  C   UNL     1      -3.781  -2.704  24.181  0.00  0.00    +0.003 A 
ATOM     21  C   UNL     1      -3.391  -2.660  24.907  0.00  0.00    +0.002 A 
ATOM     22  C   UNL     1      -3.383  -1.951  25.329  0.00  0.00    +0.022 A 
ENDBRANCH  12  14
BRANCH   9   8
ATOM      8  C   UNL     1      -4.391   2.791  24.392  0.00  0.00    +0.099 C 
BRANCH   8   7
ATOM      4  C   UNL     1      -2.270   3.901  25.019  0.00  0.00    +0.048 A 
ATOM      5  C   UNL     1      -2.311   3.448  24.330  0.00  0.00    +0.014 A 
ATOM      6  C   UNL     1      -3.018   3.078  24.121  0.00  0.00    -0.002 A 
ATOM      7  C   UNL     1      -3.684   3.161  24.601  0.00  0.00    -0.006 A 
ATOM     23  C   UNL     1      -3.644   3.613  25.289  0.00  0.00    -0.002 A 
ATOM     24  C   UNL     1      -2.936   3.984  25.498  0.00  0.00    +0.014 A 
BRANCH   4   2
ATOM      1  C   UNL     1      -0.908   3.817  25.446  0.00  0.00    +0.112 C 
ATOM      2  N   UNL     1      -1.562   4.271  25.227  0.00  0.00    -0.304 N 
ATOM      3  C   UNL     1      -1.509   5.094  25.217  0.00  0.00    +0.112 C 
ENDBRANCH   4   2
ENDBRANCH   8   7
ENDBRANCH   9   8
TORSDOF 4
ENDMDL
MODEL 2
REMARK VINA RESULT:     -12.0      1.183      5.116
REMARK  Name = 
REMARK  4 active torsions:
REMARK  status: ('A' for Active; 'I' for Inactive)
REMARK    1  A    between atoms: N_2  and  C_4
REMARK    2  A    between atoms: C_7  and  C_8
REMARK    3  A    between atoms: C_8  and  N_9
REMARK    4  A    between atoms: C_12  and  C_14
REMARK                            x       y       z     vdW  Elec       q    Type
REMARK                         _______ _______ _______ _____ _____    ______ ____
ROOT
ATOM      9  N   UNL     1      -4.297   1.286  24.909  0.00  0.00    -0.268 NA
ATOM     10  C   UNL     1      -4.607   1.714  24.275  0.00  0.00    +0.073 C 
ATOM     11  C   UNL     1      -4.133   2.379  24.161  0.00  0.00    +0.028 C 
ATOM     12  C   UNL     1      -3.529   2.362  24.724  0.00  0.00    +0.094 C 
ATOM     13  C   UNL     1      -3.631   1.687  25.186  0.00  0.00    +0.082 C 
ENDROOT
BRANCH  12  14
ATOM     14  C   UNL     1      -2.930   2.923  24.810  0.00  0.00    +0.207 A 
ATOM     15  N   UNL     1      -3.030   3.708  25.040  0.00  0.00    -0.212 NA
ATOM     16  C   UNL     1      -2.288   4.067  25.053  0.00  0.00    +0.119 A 
ATOM     17  C   UNL     1      -1.728   3.503  24.830  0.00  0.00    +0.164 A 
ATOM     18  O   UNL     1      -2.125   2.796  24.679  0.00  0.00    -0.438 OA
ATOM     19  C   UNL     1      -0.930   3.707  24.792  0.00  0.00    +0.039 A 
ATOM     20  C   UNL     1      -0.690   4.474  24.978  0.00  0.00    +0.003 A 
ATOM     21  C   UNL     1      -1.250   5.038  25.201  0.00  0.00    +0.002 A 
ATOM     22  C   UNL     1      -2.048   4.835  25.238  0.00  0.00    +0.022 A 
ENDBRANCH  12  14
BRANCH   9   8
ATOM      8  C   UNL     1      -4.599   0.581  25.212  0.00  0.00    +0.099 C 
BRANCH   8   7
ATOM      4  C   UNL     1      -3.488  -1.568  24.692  0.00  0.00    +0.048 A 
ATOM      5  C   UNL     1      -3.356  -1.201  25.418  0.00  0.00    +0.014 A 
ATOM      6  C   UNL     1      -3.726  -0.485  25.592  0.00  0.00    -0.002 A 
ATOM      7  C   UNL     1      -4.229  -0.136  25.038  0.00  0.00    -0.006 A 
ATOM     23  C   UNL     1      -4.361  -0.503  24.312  0.00  0.00    -0.002 A 
ATOM     24  C   UNL     1      -3.990  -1.220  24.138  0.00  0.00    +0.014 A 
BRANCH   4   2
ATOM      1  C   UNL     1      -3.571  -2.958  24.367  0.00  0.00    +0.112 C 
ATOM      2  N   UNL     1      -3.117  -2.285  24.518  0.00  0.00    -0.304 N 
ATOM      3  C   UNL     1      -2.294  -2.329  24.497  0.00  0.00    +0.112 C 
ENDBRANCH   4   2
ENDBRANCH   8   7
ENDBRANCH   9   8
TORSDOF 4
ENDMDL
MODEL 3
REMARK VINA RESULT:     -11.1      2.103      5.680
REMARK  Name = 
REMARK  4 active torsions:
REMARK  status: ('A' for Active; 'I' for Inactive)
REMARK    1  A    between atoms: N_2  and  C_4
REMARK    2  A    between atoms: C_7  and  C_8
REMARK    3  A    between atoms: C_8  and  N_9
REMARK    4  A    between atoms: C_12  and  C_14
REMARK                            x       y       z     vdW  Elec       q    Type
REMARK                         _______ _______ _______ _____ _____    ______ ____
ROOT
ATOM      9  N   UNL     1      -0.987   0.268  25.343  0.00  0.00    -0.268 NA
ATOM     10  C   UNL     1      -0.464   0.377  24.714  0.00  0.00    +0.073 C 
ATOM     11  C   UNL     1      -0.434   1.184  24.544  0.00  0.00    +0.028 C 
ATOM     12  C   UNL     1      -0.938   1.574  25.069  0.00  0.00    +0.094 C 
ATOM     13  C   UNL     1      -1.280   1.008  25.562  0.00  0.00    +0.082 C 
ENDROOT
BRANCH  12  14
ATOM     14  C   UNL     1      -1.075   2.387  25.095  0.00  0.00    +0.207 A 
ATOM     15  N   UNL     1      -0.543   2.976  24.871  0.00  0.00    -0.212 NA
ATOM     16  C   UNL     1      -0.908   3.706  24.987  0.00  0.00    +0.119 A 
ATOM     17  C   UNL     1      -1.666   3.569  25.283  0.00  0.00    +0.164 A 
ATOM     18  O   UNL     1      -1.770   2.754  25.350  0.00  0.00    -0.438 OA
ATOM     19  C   UNL     1      -2.164   4.205  25.453  0.00  0.00    +0.039 A 
ATOM     20  C   UNL     1      -1.904   4.977  25.328  0.00  0.00    +0.003 A 
ATOM     21  C   UNL     1      -1.146   5.115  25.033  0.00  0.00    +0.002 A 
ATOM     22  C   UNL     1      -0.648   4.480  24.862  0.00  0.00    +0.022 A 
ENDBRANCH  12  14
BRANCH   9   8
ATOM      8  C   UNL     1      -1.183  -0.453  25.691  0.00  0.00    +0.099 C 
BRANCH   8   7
ATOM      4  C   UNL     1      -2.998  -1.838  24.735  0.00  0.00    +0.048 A 
ATOM      5  C   UNL     1      -2.222  -1.938  24.475  0.00  0.00    +0.014 A 
ATOM      6  C   UNL     1      -1.617  -1.477  24.793  0.00  0.00    -0.002 A 
ATOM      7  C   UNL     1      -1.789  -0.914  25.373  0.00  0.00    -0.006 A 
ATOM     23  C   UNL     1      -2.565  -0.814  25.633  0.00  0.00    -0.002 A 
ATOM     24  C   UNL     1      -3.170  -1.276  25.314  0.00  0.00    +0.014 A 
BRANCH   4   2
ATOM      1  C   UNL     1      -3.628  -3.110  24.570  0.00  0.00    +0.112 C 
ATOM      2  N   UNL     1      -3.603  -2.300  24.416  0.00  0.00    -0.304 N 
ATOM      3  C   UNL     1      -4.181  -1.952  23.943  0.00  0.00    +0.112 C 
ENDBRANCH   4   2
ENDBRANCH   8   7
ENDBRANCH   9   8
TORSDOF 4
ENDMDL
MODEL 4
REMARK VINA RESULT:     -10.9      1.898      2.501
REMARK  Name = 
REMARK  4 active torsions:
REMARK  status: ('A' for Active; 'I' for Inactive)
REMARK    1  A    between atoms: N_2  and  C_4
REMARK    2  A    between atoms: C_7  and  C_8
REMARK    3  A    between atoms: C_8  and  N_9
REMARK    4  A    between atoms: C_12  and  C_14
REMARK                            x       y       z     vdW  Elec       q    Type
REMARK                         _______ _______ _______ _____ _____    ______ ____
ROOT
ATOM      9  N   UNL     1      -0.751   0.745  25.060  0.00  0.00    -0.268 NA
ATOM     10  C   UNL     1      -0.726   0.377  25.798  0.00  0.00    +0.073 C 
ATOM     11  C   UNL     1      -1.276  -0.238  25.795  0.00  0.00    +0.028 C 
ATOM     12  C   UNL     1      -1.641  -0.250  25.055  0.00  0.00    +0.094 C 
ATOM     13  C   UNL     1      -1.316   0.357  24.601  0.00  0.00    +0.082 C 
ENDROOT
BRANCH  12  14
ATOM     14  C   UNL     1      -2.227  -0.777  24.811  0.00  0.00    +0.207 A 
ATOM     15  N   UNL     1      -2.212  -1.596  24.905  0.00  0.00    -0.212 NA
ATOM     16  C   UNL     1      -2.907  -1.902  24.584  0.00  0.00    +0.119 A 
ATOM     17  C   UNL     1      -3.352  -1.272  24.291  0.00  0.00    +0.164 A 
ATOM     18  O   UNL     1      -2.932  -0.577  24.431  0.00  0.00    -0.438 OA
ATOM     19  C   UNL     1      -4.082  -1.414  23.934  0.00  0.00    +0.039 A 
ATOM     20  C   UNL     1      -4.367  -2.185  23.869  0.00  0.00    +0.003 A 
ATOM     21  C   UNL     1      -3.922  -2.815  24.162  0.00  0.00    +0.002 A 
ATOM     22  C   UNL     1      -3.192  -2.674  24.519  0.00  0.00    +0.022 A 
ENDBRANCH  12  14
BRANCH   9   8
ATOM      8  C   UNL     1      -0.291   1.387  24.823  0.00  0.00    +0.099 C 
BRANCH   8   7
ATOM      4  C   UNL     1      -1.144   3.693  25.110  0.00  0.00    +0.048 A 
ATOM      5  C   UNL     1      -0.741   3.322  25.727  0.00  0.00    +0.014 A 
ATOM      6  C   UNL     1      -0.457   2.554  25.632  0.00  0.00    -0.002 A 
ATOM      7  C   UNL     1      -0.575   2.156  24.918  0.00  0.00    -0.006 A 
ATOM     23  C   UNL     1      -0.978   2.526  24.301  0.00  0.00    -0.002 A 
ATOM     24  C   UNL     1      -1.262   3.295  24.397  0.00  0.00    +0.014 A 
BRANCH   4   2
ATOM      1  C   UNL     1      -2.172   4.588  25.541  0.00  0.00    +0.112 C 
ATOM      2  N   UNL     1      -1.428   4.462  25.206  0.00  0.00    -0.304 N 
ATOM      3  C   UNL     1      -0.969   5.104  24.967  0.00  0.00    +0.112 C 
ENDBRANCH   4   2
ENDBRANCH   8   7
ENDBRANCH   9   8
TORSDOF 4
ENDMDL
MODEL 5
REMARK VINA RESULT:      -9.1      2.341      4.596
REMARK  Name = 
REMARK  4 active torsions:
REMARK  status: ('A' for Active; 'I' for Inactive)
REMARK    1  A    between atoms: N_2  and  C_4
REMARK    2  A    between atoms: C_7  and  C_8
REMARK    3  A    between atoms: C_8  and  N_9
REMARK    4  A    between atoms: C_12  and  C_14
REMARK                            x       y       z     vdW  Elec       q    Type
REMARK                         _______ _______ _______ _____ _____    ______ ____
ROOT
ATOM      9  N   UNL     1      -1.473   1.758  24.493  0.00  0.00    -0.268 NA
ATOM     10  C   UNL     1      -1.587   2.218  23.818  0.00  0.00    +0.073 C 
ATOM     11  C   UNL     1      -2.365   2.495  23.827  0.00  0.00    +0.028 C 
ATOM     12  C   UNL     1      -2.731   2.205  24.508  0.00  0.00    +0.094 C 
ATOM     13  C   UNL     1      -2.180   1.750  24.919  0.00  0.00    +0.082 C 
ENDROOT
BRANCH  12  14
ATOM     14  C   UNL     1      -3.511   2.346  24.736  0.00  0.00    +0.207 A 
ATOM     15  N   UNL     1      -4.149   1.835  24.627  0.00  0.00    -0.212 NA
ATOM     16  C   UNL     1      -4.821   2.197  24.937  0.00  0.00    +0.119 A 
ATOM     17  C   UNL     1      -4.600   2.932  25.239  0.00  0.00    +0.164 A 
ATOM     18  O   UNL     1      -3.790   3.025  25.115  0.00  0.00    -0.438 OA
ATOM     19  C   UNL     1      -5.165   3.422  25.588  0.00  0.00    +0.039 A 
ATOM     20  C   UNL     1      -5.951   3.177  25.635  0.00  0.00    +0.003 A 
ATOM     21  C   UNL     1      -6.172   2.441  25.333  0.00  0.00    +0.002 A 
ATOM     22  C   UNL     1      -5.608   1.951  24.985  0.00  0.00    +0.022 A 
ENDBRANCH  12  14
BRANCH   9   8
ATOM      8  C   UNL     1      -0.775   1.373  24.705  0.00  0.00    +0.099 C 
BRANCH   8   7
ATOM      4  C   UNL     1      -0.743  -1.090  24.946  0.00  0.00    +0.048 A 
ATOM      5  C   UNL     1      -0.544  -0.744  24.224  0.00  0.00    +0.014 A 
ATOM      6  C   UNL     1      -0.555   0.077  24.144  0.00  0.00    -0.002 A 
ATOM      7  C   UNL     1      -0.765   0.552  24.786  0.00  0.00    -0.006 A 
ATOM     23  C   UNL     1      -0.964   0.206  25.507  0.00  0.00    -0.002 A 
ATOM     24  C   UNL     1      -0.953  -0.616  25.587  0.00  0.00    +0.014 A 
BRANCH   4   2
ATOM      1  C   UNL     1      -1.370  -2.361  24.755  0.00  0.00    +0.112 C 
ATOM      2  N   UNL     1      -0.732  -1.911  25.026  0.00  0.00    -0.304 N 
ATOM      3  C   UNL     1      -0.085  -2.283  25.376  0.00  0.00    +0.112 C 
ENDBRANCH   4   2
ENDBRANCH   8   7
ENDBRANCH   9   8
TORSDOF 4
ENDMDL
