MODEL 1
REMARK VINA RESULT:      -9.8      0.000      0.000
REMARK  Name = 
REMARK  6 active torsions:
REMARK  status: ('A' for Active; 'I' for Inactive)
REMARK    1  A    between atoms: C_2  and  C_5
REMARK    2  A    between atoms: C_7  and  C_8
REMARK    3  A    between atoms: C_8  and  C_9
REMARK    4  A    between atoms: C_9  and  N_13
REMARK    5  A    between atoms: N_13  and  C_14
REMARK    6  A    between atoms: C_14  and  C_15
REMARK                            x       y       z     vdW  Elec       q    Type
REMARK                         _______ _______ _______ _____ _____    ______ ____
ROOT
ATOM      9  C   UNL     1      -4.730   1.791  24.985  0.00  0.00    +0.120 C 
ATOM     10  C   UNL     1      -5.131   2.420  24.631  0.00  0.00    +0.161 C 
ATOM     11  O   UNL     1      -5.832   1.984  24.650  0.00  0.00    -0.351 OA
ATOM     12  C   UNL     1      -5.431   1.355  25.003  0.00  0.00    +0.161 C 
ENDROOT
BRANCH   9   8
ATOM      8  C   UNL     1      -4.330   1.162  25.337  0.00  0.00    +0.070 C 
BRANCH   8   7
ATOM      5  C   UNL     1      -3.872  -0.767  24.546  0.00  0.00    +0.153 A 
ATOM      6  C   UNL     1      -4.077  -0.277  25.178  0.00  0.00    +0.054 A 
ATOM      7  C   UNL     1      -4.137   0.494  24.893  0.00  0.00    +0.102 A 
ATOM     20  N   UNL     1      -3.969   0.482  24.085  0.00  0.00    -0.082 NA
ATOM     21  O   UNL     1      -3.806  -0.299  23.872  0.00  0.00    -0.358 OA
BRANCH   5   2
ATOM      1  C   UNL     1      -3.638  -2.399  24.621  0.00  0.00    +0.008 C 
ATOM      2  C   UNL     1      -3.755  -1.583  24.584  0.00  0.00    +0.054 C 
ATOM      3  C   UNL     1      -4.196  -1.678  23.893  0.00  0.00    +0.008 C 
ATOM      4  C   UNL     1      -3.314  -1.488  25.274  0.00  0.00    +0.008 C 
ENDBRANCH   5   2
ENDBRANCH   8   7
ENDBRANCH   9   8
BRANCH   9  13
ATOM     13  N   UNL     1      -4.030   2.227  24.966  0.00  0.00    -0.207 NA
BRANCH  13  14
ATOM     14  C   UNL     1      -4.027   3.012  25.223  0.00  0.00    +0.153 C 
BRANCH  14  15
ATOM     15  C   UNL     1      -3.315   3.425  25.273  0.00  0.00    +0.141 A 
ATOM     16  C   UNL     1      -3.035   3.827  25.938  0.00  0.00    +0.038 A 
ATOM     17  C   UNL     1      -2.305   4.160  25.744  0.00  0.00    +0.043 A 
ATOM     18  C   UNL     1      -2.135   3.964  24.961  0.00  0.00    +0.179 A 
ATOM     19  O   UNL     1      -2.760   3.510  24.670  0.00  0.00    -0.453 OA
ENDBRANCH  14  15
ENDBRANCH  13  14
ENDBRANCH   9  13
TORSDOF 6
ENDMDL
MODEL 2
REMARK VINA RESULT:      -9.5      0.927      4.203
REMARK  Name = 
REMARK  6 active torsions:
REMARK  status: ('A' for Active; 'I' for Inactive)
REMARK    1  A    between atoms: C_2  and  C_5
REMARK    2  A    between atoms: C_7  and  C_8
REMARK    3  A    between atoms: C_8  and  C_9
REMARK    4  A    between atoms: C_9  and  N_13
REMARK    5  A    between atoms: N_13  and  C_14
REMARK    6  A    between atoms: C_14  and  C_15
REMARK                            x       y       z     vdW  Elec       q    Type
REMARK                         _______ _______ _______ _____ _____    ______ ____
ROOT
ATOM      9  C   UNL     1      -4.665   2.395  25.055  0.00  0.00    +0.120 C 
ATOM     10  C   UNL     1      -5.314   2.106  25.476  0.00  0.00    +0.161 C 
ATOM     11  O   UNL     1      -5.674   2.847  25.428  0.00  0.00    -0.351 OA
ATOM     12  C   UNL     1      -5.026   3.135  25.009  0.00  0.00    +0.161 C 
ENDROOT
BRANCH   9   8
ATOM      8  C   UNL     1      -4.016   2.683  24.636  0.00  0.00    +0.070 C 
BRANCH   8   7
ATOM      5  C   UNL     1      -2.323   3.812  25.280  0.00  0.00    +0.153 A 
ATOM      6  C   UNL     1      -2.715   3.363  24.709  0.00  0.00    +0.054 A 
ATOM      7  C   UNL     1      -3.445   3.138  25.019  0.00  0.00    +0.102 A 
ATOM     20  N   UNL     1      -3.504   3.448  25.783  0.00  0.00    -0.082 NA
ATOM     21  O   UNL     1      -2.810   3.864  25.943  0.00  0.00    -0.358 OA
BRANCH   5   2
ATOM      1  C   UNL     1      -0.824   4.486  25.121  0.00  0.00    +0.008 C 
ATOM      2  C   UNL     1      -1.574   4.149  25.201  0.00  0.00    +0.054 C 
ATOM      3  C   UNL     1      -1.238   3.396  25.176  0.00  0.00    +0.008 C 
ATOM      4  C   UNL     1      -1.909   4.902  25.225  0.00  0.00    +0.008 C 
ENDBRANCH   5   2
ENDBRANCH   8   7
ENDBRANCH   9   8
BRANCH   9  13
ATOM     13  N   UNL     1      -4.305   1.654  25.103  0.00  0.00    -0.207 NA
BRANCH  13  14
ATOM     14  C   UNL     1      -4.706   0.983  24.838  0.00  0.00    +0.153 C 
BRANCH  14  15
ATOM     15  C   UNL     1      -4.333   0.247  24.852  0.00  0.00    +0.141 A 
ATOM     16  C   UNL     1      -4.207  -0.244  24.200  0.00  0.00    +0.038 A 
ATOM     17  C   UNL     1      -3.816  -0.922  24.465  0.00  0.00    +0.043 A 
ATOM     18  C   UNL     1      -3.702  -0.848  25.279  0.00  0.00    +0.179 A 
ATOM     19  O   UNL     1      -4.022  -0.126  25.517  0.00  0.00    -0.453 OA
ENDBRANCH  14  15
ENDBRANCH  13  14
ENDBRANCH   9  13
TORSDOF 6
ENDMDL
MODEL 3
REMARK VINA RESULT:      -9.0      1.297      2.135
REMARK  Name = 
REMARK  6 active torsions:
REMARK  status: ('A' for Active; 'I' for Inactive)
REMARK    1  A    between atoms: C_2  and  C_5
REMARK    2  A    between atoms: C_7  and  C_8
REMARK    3  A    between atoms: C_8  and  C_9
REMARK    4  A    between atoms: C_9  and  N_13
REMARK    5  A    between atoms: N_13  and  C_14
REMARK    6  A    between atoms: C_14  and  C_15
REMARK                            x       y       z     vdW  Elec       q    Type
REMARK                         _______ _______ _______ _____ _____    ______ ____
ROOT
ATOM      9  C   UNL     1      -3.014   1.395  24.154  0.00  0.00    +0.120 C 
ATOM     10  C   UNL     1      -2.554   2.031  24.411  0.00  0.00    +0.161 C 
ATOM     11  O   UNL     1      -1.922   1.759  23.956  0.00  0.00    -0.351 OA
ATOM     12  C   UNL     1      -2.381   1.124  23.698  0.00  0.00    +0.161 C 
ENDROOT
BRANCH   9   8
ATOM      8  C   UNL     1      -3.472   0.760  23.896  0.00  0.00    +0.070 C 
BRANCH   8   7
ATOM      5  C   UNL     1      -3.469  -1.290  24.492  0.00  0.00    +0.153 A 
ATOM      6  C   UNL     1      -3.665  -0.696  23.953  0.00  0.00    +0.054 A 
ATOM      7  C   UNL     1      -3.394   0.022  24.256  0.00  0.00    +0.102 A 
ATOM     20  N   UNL     1      -3.030  -0.128  24.982  0.00  0.00    -0.082 NA
ATOM     21  O   UNL     1      -3.077  -0.939  25.127  0.00  0.00    -0.358 OA
BRANCH   5   2
ATOM      1  C   UNL     1      -3.802  -2.898  24.327  0.00  0.00    +0.008 C 
ATOM      2  C   UNL     1      -3.636  -2.093  24.410  0.00  0.00    +0.054 C 
ATOM      3  C   UNL     1      -3.002  -2.276  24.906  0.00  0.00    +0.008 C 
ATOM      4  C   UNL     1      -4.269  -1.912  23.914  0.00  0.00    +0.008 C 
ENDBRANCH   5   2
ENDBRANCH   8   7
ENDBRANCH   9   8
BRANCH   9  13
ATOM     13  N   UNL     1      -3.645   1.668  24.609  0.00  0.00    -0.207 NA
BRANCH  13  14
ATOM     14  C   UNL     1      -3.979   2.406  24.450  0.00  0.00    +0.153 C 
BRANCH  14  15
ATOM     15  C   UNL     1      -4.622   2.671  24.894  0.00  0.00    +0.141 A 
ATOM     16  C   UNL     1      -4.625   3.320  25.403  0.00  0.00    +0.038 A 
ATOM     17  C   UNL     1      -5.380   3.384  25.730  0.00  0.00    +0.043 A 
ATOM     18  C   UNL     1      -5.843   2.774  25.424  0.00  0.00    +0.179 A 
ATOM     19  O   UNL     1      -5.374   2.333  24.907  0.00  0.00    -0.453 OA
ENDBRANCH  14  15
ENDBRANCH  13  14
ENDBRANCH   9  13
TORSDOF 6
ENDMDL
