MODEL 1
REMARK VINA RESULT:     -10.4      0.000      0.000
REMARK  Name = 
REMARK  9 active torsions:
REMARK  status: ('A' for Active; 'I' for Inactive)
REMARK    1  A    between atoms: O_2  and  C_3
REMARK    2  A    between atoms: C_3  and  C_4
REMARK    3  A    between atoms: C_4  and  C_5
REMARK    4  A    between atoms: N_7  and  C_8
REMARK    5  A    between atoms: C_15  and  C_16
REMARK    6  A    between atoms: C_16  and  C_18
REMARK    7  A    between atoms: N_20  and  C_21
REMARK    8  A    between atoms: C_21  and  C_22
REMARK    9  A    between atoms: C_25  and  O_26
REMARK                            x       y       z     vdW  Elec       q    Type
REMARK                         _______ _______ _______ _____ _____    ______ ____
ROOT
ATOM      8  C   UNL     1      -0.699  -0.682  24.681  0.00  0.00    +0.095 C 
ATOM      9  C   UNL     1      -0.272  -0.632  23.978  0.00  0.00    +0.022 C 
ATOM     10  C   UNL     1       0.072   0.085  23.754  0.00  0.00    +0.002 C 
ATOM     11  C   UNL     1      -0.013   0.750  24.235  0.00  0.00    +0.002 C 
ATOM     12  C   UNL     1       0.415   0.800  23.530  0.00  0.00    +0.000 C 
ATOM     13  C   UNL     1       0.330   1.467  24.010  0.00  0.00    +0.000 C 
ATOM     14  C   UNL     1       0.245   2.132  24.491  0.00  0.00    +0.003 C 
ATOM     15  C   UNL     1      -0.182   2.081  25.193  0.00  0.00    +0.039 C 
ATOM     30  C   UNL     1      -0.525   1.366  25.418  0.00  0.00    +0.152 C 
ATOM     31  O   UNL     1      -0.953   1.315  26.121  0.00  0.00    -0.223 OA
ATOM     32  C   UNL     1      -0.441   0.700  24.937  0.00  0.00    +0.032 C 
ATOM     33  C   UNL     1      -0.784  -0.016  25.162  0.00  0.00    +0.022 C 
ATOM     34  C   UNL     1      -1.212  -0.066  25.865  0.00  0.00    +0.002 C 
ENDROOT
BRANCH   8   7
ATOM      5  C   UNL     1      -1.576  -1.775  24.400  0.00  0.00    +0.244 C 
ATOM      6  O   UNL     1      -1.765  -1.437  23.673  0.00  0.00    -0.273 OA
ATOM      7  N   UNL     1      -1.043  -1.398  24.905  0.00  0.00    -0.207 NA
BRANCH   5   4
ATOM      4  C   UNL     1      -1.919  -2.491  24.625  0.00  0.00    +0.119 C 
BRANCH   4   3
ATOM      3  C   UNL     1      -2.629  -2.733  24.280  0.00  0.00    +0.152 C 
BRANCH   3   2
ATOM      1  C   UNL     1      -3.980  -3.170  24.443  0.00  0.00    +0.174 C 
ATOM      2  O   UNL     1      -3.218  -3.074  24.746  0.00  0.00    -0.351 OA
ENDBRANCH   3   2
ENDBRANCH   4   3
ENDBRANCH   5   4
ENDBRANCH   8   7
BRANCH  15  16
ATOM     16  C   UNL     1      -0.267   2.747  25.674  0.00  0.00    +0.081 C 
ATOM     17  C   UNL     1       0.126   2.786  26.398  0.00  0.00    +0.010 C 
BRANCH  16  18
ATOM     18  C   UNL     1      -0.746   3.373  25.429  0.00  0.00    +0.241 C 
ATOM     19  O   UNL     1      -0.418   4.004  25.011  0.00  0.00    -0.273 OA
ATOM     20  N   UNL     1      -1.553   3.368  25.602  0.00  0.00    -0.201 NA
BRANCH  20  21
ATOM     21  C   UNL     1      -2.031   3.994  25.358  0.00  0.00    +0.141 C 
BRANCH  21  22
ATOM     22  C   UNL     1      -2.852   3.915  25.370  0.00  0.00    -0.000 A 
ATOM     23  C   UNL     1      -3.263   3.998  26.081  0.00  0.00    +0.001 A 
ATOM     24  C   UNL     1      -4.084   3.918  26.094  0.00  0.00    +0.037 A 
ATOM     25  C   UNL     1      -4.494   3.755  25.397  0.00  0.00    +0.139 A 
ATOM     28  C   UNL     1      -4.083   3.673  24.687  0.00  0.00    +0.037 A 
ATOM     29  C   UNL     1      -3.262   3.752  24.673  0.00  0.00    +0.001 A 
BRANCH  25  26
ATOM     26  O   UNL     1      -5.315   3.676  25.411  0.00  0.00    -0.471 OA
ATOM     27  C   UNL     1      -5.656   2.951  25.606  0.00  0.00    +0.252 C 
ENDBRANCH  25  26
ENDBRANCH  21  22
ENDBRANCH  20  21
ENDBRANCH  16  18
ENDBRANCH  15  16
TORSDOF 9
ENDMDL
MODEL 2
REMARK VINA RESULT:     -10.1      1.899      4.669
REMARK  Name = 
REMARK  9 active torsions:
REMARK  status: ('A' for Active; 'I' for Inactive)
REMARK    1  A    between atoms: O_2  and  C_3
REMARK    2  A    between atoms: C_3  and  C_4
REMARK    3  A    between atoms: C_4  and  C_5
REMARK    4  A    between atoms: N_7  and  C_8
REMARK    5  A    between atoms: C_15  and  C_16
REMARK    6  A    between atoms: C_16  and  C_18
REMARK    7  A    between atoms: N_20  and  C_21
REMARK    8  A    between atoms: C_21  and  C_22
REMARK    9  A    between atoms: C_25  and  O_26
REMARK                            x       y       z     vdW  Elec       q    Type
REMARK                         _______ _______ _______ _____ _____    ______ ____
ROOT
ATOM      8  C   UNL     1      -0.612   2.820  24.356  0.00  0.00    +0.095 C 
ATOM      9  C   UNL     1      -0.520   3.258  25.047  0.00  0.00    +0.022 C 
ATOM     10  C   UNL     1      -1.181   3.464  25.497  0.00  0.00    +0.002 C 
ATOM     11  C   UNL     1      -1.933   3.231  25.253  0.00  0.00    +0.002 C 
ATOM     12  C   UNL     1      -1.841   3.670  25.946  0.00  0.00    +0.000 C 
ATOM     13  C   UNL     1      -2.595   3.437  25.702  0.00  0.00    +0.000 C 
ATOM     14  C   UNL     1      -3.347   3.203  25.458  0.00  0.00    +0.003 C 
ATOM     15  C   UNL     1      -3.439   2.764  24.767  0.00  0.00    +0.039 C 
ATOM     30  C   UNL     1      -2.779   2.558  24.318  0.00  0.00    +0.152 C 
ATOM     31  O   UNL     1      -2.871   2.119  23.626  0.00  0.00    -0.223 OA
ATOM     32  C   UNL     1      -2.025   2.792  24.561  0.00  0.00    +0.032 C 
ATOM     33  C   UNL     1      -1.365   2.586  24.112  0.00  0.00    +0.022 C 
ATOM     34  C   UNL     1      -1.457   2.146  23.420  0.00  0.00    +0.002 C 
ENDROOT
BRANCH   8   7
ATOM      5  C   UNL     1       0.627   2.118  24.226  0.00  0.00    +0.244 C 
ATOM      6  O   UNL     1       0.544   1.830  24.994  0.00  0.00    -0.273 OA
ATOM      7  N   UNL     1       0.049   2.614  23.906  0.00  0.00    -0.207 NA
BRANCH   5   4
ATOM      4  C   UNL     1       1.287   1.912  23.777  0.00  0.00    +0.119 C 
BRANCH   4   3
ATOM      3  C   UNL     1       1.447   1.117  23.619  0.00  0.00    +0.152 C 
BRANCH   3   2
ATOM      1  C   UNL     1       2.128   0.154  22.814  0.00  0.00    +0.174 C 
ATOM      2  O   UNL     1       2.081   0.913  23.134  0.00  0.00    -0.351 OA
ENDBRANCH   3   2
ENDBRANCH   4   3
ENDBRANCH   5   4
ENDBRANCH   8   7
BRANCH  15  16
ATOM     16  C   UNL     1      -4.192   2.530  24.523  0.00  0.00    +0.081 C 
ATOM     17  C   UNL     1      -4.578   2.943  23.923  0.00  0.00    +0.010 C 
BRANCH  16  18
ATOM     18  C   UNL     1      -4.558   1.882  24.881  0.00  0.00    +0.241 C 
ATOM     19  O   UNL     1      -5.141   2.001  25.451  0.00  0.00    -0.273 OA
ATOM     20  N   UNL     1      -4.339   1.115  24.667  0.00  0.00    -0.201 NA
BRANCH  20  21
ATOM     21  C   UNL     1      -4.706   0.468  25.025  0.00  0.00    +0.141 C 
BRANCH  21  22
ATOM     22  C   UNL     1      -4.375  -0.284  24.952  0.00  0.00    -0.000 A 
ATOM     23  C   UNL     1      -4.490  -0.719  24.260  0.00  0.00    +0.001 A 
ATOM     24  C   UNL     1      -4.159  -1.471  24.187  0.00  0.00    +0.037 A 
ATOM     25  C   UNL     1      -3.713  -1.788  24.804  0.00  0.00    +0.139 A 
ATOM     28  C   UNL     1      -3.598  -1.353  25.495  0.00  0.00    +0.037 A 
ATOM     29  C   UNL     1      -3.929  -0.601  25.569  0.00  0.00    +0.001 A 
BRANCH  25  26
ATOM     26  O   UNL     1      -3.382  -2.541  24.730  0.00  0.00    -0.471 OA
ATOM     27  C   UNL     1      -2.633  -2.632  24.398  0.00  0.00    +0.252 C 
ENDBRANCH  25  26
ENDBRANCH  21  22
ENDBRANCH  20  21
ENDBRANCH  16  18
ENDBRANCH  15  16
TORSDOF 9
ENDMDL
MODEL 3
REMARK VINA RESULT:      -9.9      1.881      3.917
REMARK  Name = 
REMARK  9 active torsions:
REMARK  status: ('A' for Active; 'I' for Inactive)
REMARK    1  A    between atoms: O_2  and  C_3
REMARK    2  A    between atoms: C_3  and  C_4
REMARK    3  A    between atoms: C_4  and  C_5
REMARK    4  A    between atoms: N_7  and  C_8
REMARK    5  A    between atoms: C_15  and  C_16
REMARK    6  A    between atoms: C_16  and  C_18
REMARK    7  A    between atoms: N_20  and  C_21
REMARK    8  A    between atoms: C_21  and  C_22
REMARK    9  A    between atoms: C_25  and  O_26
REMARK                            x       y       z     vdW  Elec       q    Type
REMARK                         _______ _______ _______ _____ _____    ______ ____
ROOT
ATOM      8  C   UNL     1      -4.358  -0.111  24.439  0.00  0.00    +0.095 C 
ATOM      9  C   UNL     1      -4.973  -0.075  24.986  0.00  0.00    +0.022 C 
ATOM     10  C   UNL     1      -5.262   0.657  25.235  0.00  0.00    +0.002 C 
ATOM     11  C   UNL     1      -4.933   1.353  24.937  0.00  0.00    +0.002 C 
ATOM     12  C   UNL     1      -5.550   1.389  25.485  0.00  0.00    +0.000 C 
ATOM     13  C   UNL     1      -5.222   2.085  25.186  0.00  0.00    +0.000 C 
ATOM     14  C   UNL     1      -4.894   2.780  24.887  0.00  0.00    +0.003 C 
ATOM     15  C   UNL     1      -4.278   2.744  24.340  0.00  0.00    +0.039 C 
ATOM     30  C   UNL     1      -3.990   2.013  24.091  0.00  0.00    +0.152 C 
ATOM     31  O   UNL     1      -3.374   1.977  23.544  0.00  0.00    -0.223 OA
ATOM     32  C   UNL     1      -4.318   1.317  24.390  0.00  0.00    +0.032 C 
ATOM     33  C   UNL     1      -4.029   0.585  24.140  0.00  0.00    +0.022 C 
ATOM     34  C   UNL     1      -3.413   0.549  23.593  0.00  0.00    +0.002 C 
ENDROOT
BRANCH   8   7
ATOM      5  C   UNL     1      -3.787  -1.385  24.745  0.00  0.00    +0.244 C 
ATOM      6  O   UNL     1      -3.794  -1.196  25.547  0.00  0.00    -0.273 OA
ATOM      7  N   UNL     1      -4.069  -0.842  24.190  0.00  0.00    -0.207 NA
BRANCH   5   4
ATOM      4  C   UNL     1      -3.499  -2.116  24.495  0.00  0.00    +0.119 C 
BRANCH   4   3
ATOM      3  C   UNL     1      -2.770  -2.389  24.774  0.00  0.00    +0.152 C 
BRANCH   3   2
ATOM      1  C   UNL     1      -1.490  -2.813  24.302  0.00  0.00    +0.174 C 
ATOM      2  O   UNL     1      -2.312  -2.890  24.306  0.00  0.00    -0.351 OA
ENDBRANCH   3   2
ENDBRANCH   4   3
ENDBRANCH   5   4
ENDBRANCH   8   7
BRANCH  15  16
ATOM     16  C   UNL     1      -3.950   3.439  24.042  0.00  0.00    +0.081 C 
ATOM     17  C   UNL     1      -4.139   3.691  23.279  0.00  0.00    +0.010 C 
BRANCH  16  18
ATOM     18  C   UNL     1      -3.432   3.884  24.507  0.00  0.00    +0.241 C 
ATOM     19  O   UNL     1      -3.706   4.551  24.906  0.00  0.00    -0.273 OA
ATOM     20  N   UNL     1      -2.640   3.659  24.571  0.00  0.00    -0.201 NA
BRANCH  20  21
ATOM     21  C   UNL     1      -2.123   4.104  25.036  0.00  0.00    +0.141 C 
BRANCH  21  22
ATOM     22  C   UNL     1      -1.438   3.756  25.337  0.00  0.00    -0.000 A 
ATOM     23  C   UNL     1      -0.735   3.790  24.905  0.00  0.00    +0.001 A 
ATOM     24  C   UNL     1      -0.050   3.442  25.205  0.00  0.00    +0.037 A 
ATOM     25  C   UNL     1      -0.067   3.061  25.937  0.00  0.00    +0.139 A 
ATOM     28  C   UNL     1      -0.769   3.027  26.367  0.00  0.00    +0.037 A 
ATOM     29  C   UNL     1      -1.455   3.375  26.068  0.00  0.00    +0.001 A 
BRANCH  25  26
ATOM     26  O   UNL     1       0.619   2.713  26.236  0.00  0.00    -0.471 OA
ATOM     27  C   UNL     1       0.622   2.394  26.996  0.00  0.00    +0.252 C 
ENDBRANCH  25  26
ENDBRANCH  21  22
ENDBRANCH  20  21
ENDBRANCH  16  18
ENDBRANCH  15  16
TORSDOF 9
ENDMDL
MODEL 4
REMARK VINA RESULT:      -9.7      1.944      3.884
REMARK  Name = 
REMARK  9 active torsions:
REMARK  status: ('A' for Active; 'I' for Inactive)
REMARK    1  A    between atoms: O_2  and  C_3
REMARK    2  A    between atoms: C_3  and  C_4
REMARK    3  A    between atoms: C_4  and  C_5
REMARK    4  A    between atoms: N_7  and  C_8
REMARK    5  A    between atoms: C_15  and  C_16
REMARK    6  A    between atoms: C_16  and  C_18
REMARK    7  A    between atoms: N_20  and  C_21
REMARK    8  A    between atoms: C_21  and  C_22
REMARK    9  A    between atoms: C_25  and  O_26
REMARK                            x       y       z     vdW  Elec       q    Type
REMARK                         _______ _______ _______ _____ _____    ______ ____
ROOT
ATOM      8  C   UNL     1      -0.205  -0.661  24.219  0.00  0.00    +0.095 C 
ATOM      9  C   UNL     1      -0.173  -1.425  23.912  0.00  0.00    +0.022 C 
ATOM     10  C   UNL     1      -0.818  -1.934  24.003  0.00  0.00    +0.002 C 
ATOM     11  C   UNL     1      -1.493  -1.675  24.400  0.00  0.00    +0.002 C 
ATOM     12  C   UNL     1      -1.461  -2.441  24.093  0.00  0.00    +0.000 C 
ATOM     13  C   UNL     1      -2.138  -2.183  24.490  0.00  0.00    +0.000 C 
ATOM     14  C   UNL     1      -2.813  -1.925  24.887  0.00  0.00    +0.003 C 
ATOM     15  C   UNL     1      -2.844  -1.161  25.193  0.00  0.00    +0.039 C 
ATOM     30  C   UNL     1      -2.201  -0.653  25.104  0.00  0.00    +0.152 C 
ATOM     31  O   UNL     1      -2.232   0.112  25.410  0.00  0.00    -0.223 OA
ATOM     32  C   UNL     1      -1.525  -0.911  24.706  0.00  0.00    +0.032 C 
ATOM     33  C   UNL     1      -0.881  -0.403  24.616  0.00  0.00    +0.022 C 
ATOM     34  C   UNL     1      -0.913   0.362  24.923  0.00  0.00    +0.002 C 
ENDROOT
BRANCH   8   7
ATOM      5  C   UNL     1       0.812  -0.087  23.396  0.00  0.00    +0.244 C 
ATOM      6  O   UNL     1       0.542  -0.528  22.754  0.00  0.00    -0.273 OA
ATOM      7  N   UNL     1       0.439  -0.153  24.129  0.00  0.00    -0.207 NA
BRANCH   5   4
ATOM      4  C   UNL     1       1.456   0.421  23.306  0.00  0.00    +0.119 C 
BRANCH   4   3
ATOM      3  C   UNL     1       2.084   0.207  22.814  0.00  0.00    +0.152 C 
BRANCH   3   2
ATOM      1  C   UNL     1       3.429   0.418  22.380  0.00  0.00    +0.174 C 
ATOM      2  O   UNL     1       2.752   0.689  22.767  0.00  0.00    -0.351 OA
ENDBRANCH   3   2
ENDBRANCH   4   3
ENDBRANCH   5   4
ENDBRANCH   8   7
BRANCH  15  16
ATOM     16  C   UNL     1      -3.520  -0.903  25.590  0.00  0.00    +0.081 C 
ATOM     17  C   UNL     1      -3.585  -1.009  26.406  0.00  0.00    +0.010 C 
BRANCH  16  18
ATOM     18  C   UNL     1      -4.130  -0.538  25.171  0.00  0.00    +0.241 C 
ATOM     19  O   UNL     1      -4.517  -0.945  24.568  0.00  0.00    -0.273 OA
ATOM     20  N   UNL     1      -4.353   0.235  25.356  0.00  0.00    -0.201 NA
BRANCH  20  21
ATOM     21  C   UNL     1      -4.963   0.600  24.936  0.00  0.00    +0.141 C 
BRANCH  21  22
ATOM     22  C   UNL     1      -5.142   1.392  25.077  0.00  0.00    -0.000 A 
ATOM     23  C   UNL     1      -4.746   1.985  24.660  0.00  0.00    +0.001 A 
ATOM     24  C   UNL     1      -4.925   2.777  24.800  0.00  0.00    +0.037 A 
ATOM     25  C   UNL     1      -5.500   2.979  25.356  0.00  0.00    +0.139 A 
ATOM     28  C   UNL     1      -5.896   2.387  25.772  0.00  0.00    +0.037 A 
ATOM     29  C   UNL     1      -5.718   1.593  25.633  0.00  0.00    +0.001 A 
BRANCH  25  26
ATOM     26  O   UNL     1      -5.679   3.772  25.496  0.00  0.00    -0.471 OA
ATOM     27  C   UNL     1      -5.074   4.331  25.532  0.00  0.00    +0.252 C 
ENDBRANCH  25  26
ENDBRANCH  21  22
ENDBRANCH  20  21
ENDBRANCH  16  18
ENDBRANCH  15  16
TORSDOF 9
ENDMDL
MODEL 5
REMARK VINA RESULT:      -9.6      1.896      3.710
REMARK  Name = 
REMARK  9 active torsions:
REMARK  status: ('A' for Active; 'I' for Inactive)
REMARK    1  A    between atoms: O_2  and  C_3
REMARK    2  A    between atoms: C_3  and  C_4
REMARK    3  A    between atoms: C_4  and  C_5
REMARK    4  A    between atoms: N_7  and  C_8
REMARK    5  A    between atoms: C_15  and  C_16
REMARK    6  A    between atoms: C_16  and  C_18
REMARK    7  A    between atoms: N_20  and  C_21
REMARK    8  A    between atoms: C_21  and  C_22
REMARK    9  A    between atoms: C_25  and  O_26
REMARK                            x       y       z     vdW  Elec       q    Type
REMARK                         _______ _______ _______ _____ _____    ______ ____
ROOT
ATOM      8  C   UNL     1      -1.925  -0.811  24.374  0.00  0.00    +0.095 C 
ATOM      9  C   UNL     1      -2.035  -1.297  25.030  0.00  0.00    +0.022 C 
ATOM     10  C   UNL     1      -2.695  -1.194  25.515  0.00  0.00    +0.002 C 
ATOM     11  C   UNL     1      -3.245  -0.604  25.341  0.00  0.00    +0.002 C 
ATOM     12  C   UNL     1      -3.355  -1.091  25.999  0.00  0.00    +0.000 C 
ATOM     13  C   UNL     1      -3.906  -0.500  25.826  0.00  0.00    +0.000 C 
ATOM     14  C   UNL     1      -4.455   0.090  25.652  0.00  0.00    +0.003 C 
ATOM     15  C   UNL     1      -4.346   0.575  24.995  0.00  0.00    +0.039 C 
ATOM     30  C   UNL     1      -3.686   0.473  24.511  0.00  0.00    +0.152 C 
ATOM     31  O   UNL     1      -3.576   0.959  23.854  0.00  0.00    -0.223 OA
ATOM     32  C   UNL     1      -3.135  -0.118  24.685  0.00  0.00    +0.032 C 
ATOM     33  C   UNL     1      -2.476  -0.221  24.200  0.00  0.00    +0.022 C 
ATOM     34  C   UNL     1      -2.366   0.266  23.543  0.00  0.00    +0.002 C 
ENDROOT
BRANCH   8   7
ATOM      5  C   UNL     1      -0.507  -0.814  24.199  0.00  0.00    +0.244 C 
ATOM      6  O   UNL     1      -0.409  -0.611  24.992  0.00  0.00    -0.273 OA
ATOM      7  N   UNL     1      -1.266  -0.914  23.889  0.00  0.00    -0.207 NA
BRANCH   5   4
ATOM      4  C   UNL     1       0.153  -0.917  23.715  0.00  0.00    +0.119 C 
BRANCH   4   3
ATOM      3  C   UNL     1       0.666  -0.285  23.578  0.00  0.00    +0.152 C 
BRANCH   3   2
ATOM      1  C   UNL     1       1.840   0.101  22.860  0.00  0.00    +0.174 C 
ATOM      2  O   UNL     1       1.090  -0.244  22.871  0.00  0.00    -0.351 OA
ENDBRANCH   3   2
ENDBRANCH   4   3
ENDBRANCH   5   4
ENDBRANCH   8   7
BRANCH  15  16
ATOM     16  C   UNL     1      -4.895   1.165  24.822  0.00  0.00    +0.081 C 
ATOM     17  C   UNL     1      -5.448   1.051  24.221  0.00  0.00    +0.010 C 
BRANCH  16  18
ATOM     18  C   UNL     1      -4.892   1.871  25.250  0.00  0.00    +0.241 C 
ATOM     19  O   UNL     1      -5.436   1.987  25.858  0.00  0.00    -0.273 OA
ATOM     20  N   UNL     1      -4.342   2.461  25.070  0.00  0.00    -0.201 NA
BRANCH  20  21
ATOM     21  C   UNL     1      -4.339   3.166  25.498  0.00  0.00    +0.141 C 
BRANCH  21  22
ATOM     22  C   UNL     1      -3.678   3.658  25.475  0.00  0.00    -0.000 A 
ATOM     23  C   UNL     1      -3.499   4.076  24.786  0.00  0.00    +0.001 A 
ATOM     24  C   UNL     1      -2.838   4.568  24.762  0.00  0.00    +0.037 A 
ATOM     25  C   UNL     1      -2.355   4.643  25.427  0.00  0.00    +0.139 A 
ATOM     28  C   UNL     1      -2.534   4.226  26.115  0.00  0.00    +0.037 A 
ATOM     29  C   UNL     1      -3.195   3.733  26.140  0.00  0.00    +0.001 A 
BRANCH  25  26
ATOM     26  O   UNL     1      -1.694   5.136  25.402  0.00  0.00    -0.471 OA
ATOM     27  C   UNL     1      -1.002   4.881  25.034  0.00  0.00    +0.252 C 
ENDBRANCH  25  26
ENDBRANCH  21  22
ENDBRANCH  20  21
ENDBRANCH  16  18
ENDBRANCH  15  16
TORSDOF 9
ENDMDL
MODEL 6
REMARK VINA RESULT:      -9.4      1.097      4.969
REMARK  Name = 
REMARK  9 active torsions:
REMARK  status: ('A' for Active; 'I' for Inactive)
REMARK    1  A    between atoms: O_2  and  C_3
REMARK    2  A    between atoms: C_3  and  C_4
REMARK    3  A    between atoms: C_4  and  C_5
REMARK    4  A    between atoms: N_7  and  C_8
REMARK    5  A    between atoms: C_15  and  C_16
REMARK    6  A    between atoms: C_16  and  C_18
REMARK    7  A    between atoms: N_20  and  C_21
REMARK    8  A    between atoms: C_21  and  C_22
REMARK    9  A    between atoms: C_25  and  O_26
REMARK                            x       y       z     vdW  Elec       q    Type
REMARK                         _______ _______ _______ _____ _____    ______ ____
ROOT
ATOM      8  C   UNL     1      -2.125   3.335  25.045  0.00  0.00    +0.095 C 
ATOM      9  C   UNL     1      -1.614   3.589  25.639  0.00  0.00    +0.022 C 
ATOM     10  C   UNL     1      -0.900   3.194  25.766  0.00  0.00    +0.002 C 
ATOM     11  C   UNL     1      -0.699   2.546  25.298  0.00  0.00    +0.002 C 
ATOM     12  C   UNL     1      -0.187   2.800  25.894  0.00  0.00    +0.000 C 
ATOM     13  C   UNL     1       0.015   2.151  25.425  0.00  0.00    +0.000 C 
ATOM     14  C   UNL     1       0.216   1.503  24.956  0.00  0.00    +0.003 C 
ATOM     15  C   UNL     1      -0.295   1.249  24.362  0.00  0.00    +0.039 C 
ATOM     30  C   UNL     1      -1.009   1.643  24.235  0.00  0.00    +0.152 C 
ATOM     31  O   UNL     1      -1.521   1.388  23.640  0.00  0.00    -0.223 OA
ATOM     32  C   UNL     1      -1.210   2.292  24.704  0.00  0.00    +0.032 C 
ATOM     33  C   UNL     1      -1.924   2.686  24.577  0.00  0.00    +0.022 C 
ATOM     34  C   UNL     1      -2.436   2.431  23.982  0.00  0.00    +0.002 C 
ENDROOT
BRANCH   8   7
ATOM      5  C   UNL     1      -3.363   3.844  25.545  0.00  0.00    +0.244 C 
ATOM      6  O   UNL     1      -3.174   3.566  26.297  0.00  0.00    -0.273 OA
ATOM      7  N   UNL     1      -2.839   3.729  24.918  0.00  0.00    -0.207 NA
BRANCH   5   4
ATOM      4  C   UNL     1      -4.077   4.238  25.418  0.00  0.00    +0.119 C 
BRANCH   4   3
ATOM      3  C   UNL     1      -4.771   3.955  25.764  0.00  0.00    +0.152 C 
BRANCH   3   2
ATOM      1  C   UNL     1      -6.154   3.637  25.596  0.00  0.00    +0.174 C 
ATOM      2  O   UNL     1      -5.499   4.102  25.405  0.00  0.00    -0.351 OA
ENDBRANCH   3   2
ENDBRANCH   4   3
ENDBRANCH   5   4
ENDBRANCH   8   7
BRANCH  15  16
ATOM     16  C   UNL     1      -0.094   0.600  23.894  0.00  0.00    +0.081 C 
ATOM     17  C   UNL     1       0.129   0.712  23.108  0.00  0.00    +0.010 C 
BRANCH  16  18
ATOM     18  C   UNL     1      -0.118  -0.161  24.212  0.00  0.00    +0.241 C 
ATOM     19  O   UNL     1       0.581  -0.533  24.443  0.00  0.00    -0.273 OA
ATOM     20  N   UNL     1      -0.841  -0.550  24.300  0.00  0.00    -0.201 NA
BRANCH  20  21
ATOM     21  C   UNL     1      -0.863  -1.311  24.618  0.00  0.00    +0.141 C 
BRANCH  21  22
ATOM     22  C   UNL     1      -1.574  -1.729  24.635  0.00  0.00    -0.000 A 
ATOM     23  C   UNL     1      -2.200  -1.458  25.101  0.00  0.00    +0.001 A 
ATOM     24  C   UNL     1      -2.911  -1.876  25.118  0.00  0.00    +0.037 A 
ATOM     25  C   UNL     1      -2.997  -2.564  24.670  0.00  0.00    +0.139 A 
ATOM     28  C   UNL     1      -2.372  -2.833  24.205  0.00  0.00    +0.037 A 
ATOM     29  C   UNL     1      -1.660  -2.416  24.187  0.00  0.00    +0.001 A 
BRANCH  25  26
ATOM     26  O   UNL     1      -3.709  -2.981  24.688  0.00  0.00    -0.471 OA
ATOM     27  C   UNL     1      -4.301  -2.811  24.140  0.00  0.00    +0.252 C 
ENDBRANCH  25  26
ENDBRANCH  21  22
ENDBRANCH  20  21
ENDBRANCH  16  18
ENDBRANCH  15  16
TORSDOF 9
ENDMDL
MODEL 7
REMARK VINA RESULT:      -9.3      2.179      3.889
REMARK  Name = 
REMARK  9 active torsions:
REMARK  status: ('A' for Active; 'I' for Inactive)
REMARK    1  A    between atoms: O_2  and  C_3
REMARK    2  A    between atoms: C_3  and  C_4
REMARK    3  A    between atoms: C_4  and  C_5
REMARK    4  A    between atoms: N_7  and  C_8
REMARK    5  A    between atoms: C_15  and  C_16
REMARK    6  A    between atoms: C_16  and  C_18
REMARK    7  A    between atoms: N_20  and  C_21
REMARK    8  A    between atoms: C_21  and  C_22
REMARK    9  A    between atoms: C_25  and  O_26
REMARK                            x       y       z     vdW  Elec       q    Type
REMARK                         _______ _______ _______ _____ _____    ______ ____
ROOT
ATOM      8  C   UNL     1       0.890   0.599  23.630  0.00  0.00    +0.095 C 
ATOM      9  C   UNL     1       0.911   1.384  23.881  0.00  0.00    +0.022 C 
ATOM     10  C   UNL     1       0.286   1.693  24.323  0.00  0.00    +0.002 C 
ATOM     11  C   UNL     1      -0.359   1.216  24.513  0.00  0.00    +0.002 C 
ATOM     12  C   UNL     1      -0.339   2.002  24.765  0.00  0.00    +0.000 C 
ATOM     13  C   UNL     1      -0.985   1.525  24.955  0.00  0.00    +0.000 C 
ATOM     14  C   UNL     1      -1.630   1.047  25.145  0.00  0.00    +0.003 C 
ATOM     15  C   UNL     1      -1.651   0.263  24.895  0.00  0.00    +0.039 C 
ATOM     30  C   UNL     1      -1.026  -0.047  24.453  0.00  0.00    +0.152 C 
ATOM     31  O   UNL     1      -1.047  -0.832  24.202  0.00  0.00    -0.223 OA
ATOM     32  C   UNL     1      -0.380   0.431  24.263  0.00  0.00    +0.032 C 
ATOM     33  C   UNL     1       0.244   0.122  23.821  0.00  0.00    +0.022 C 
ATOM     34  C   UNL     1       0.223  -0.664  23.570  0.00  0.00    +0.002 C 
ENDROOT
BRANCH   8   7
ATOM      5  C   UNL     1       2.222   0.711  23.124  0.00  0.00    +0.244 C 
ATOM      6  O   UNL     1       2.304   1.440  23.501  0.00  0.00    -0.273 OA
ATOM      7  N   UNL     1       1.515   0.290  23.189  0.00  0.00    -0.207 NA
BRANCH   5   4
ATOM      4  C   UNL     1       2.846   0.402  22.683  0.00  0.00    +0.119 C 
BRANCH   4   3
ATOM      3  C   UNL     1       3.619   0.651  22.832  0.00  0.00    +0.152 C 
BRANCH   3   2
ATOM      1  C   UNL     1       4.984   0.266  23.007  0.00  0.00    +0.174 C 
ATOM      2  O   UNL     1       4.254   0.163  22.635  0.00  0.00    -0.351 OA
ENDBRANCH   3   2
ENDBRANCH   4   3
ENDBRANCH   5   4
ENDBRANCH   8   7
BRANCH  15  16
ATOM     16  C   UNL     1      -2.296  -0.215  25.085  0.00  0.00    +0.081 C 
ATOM     17  C   UNL     1      -2.209  -0.829  25.629  0.00  0.00    +0.010 C 
BRANCH  16  18
ATOM     18  C   UNL     1      -3.029  -0.078  24.730  0.00  0.00    +0.241 C 
ATOM     19  O   UNL     1      -3.248  -0.503  24.059  0.00  0.00    -0.273 OA
ATOM     20  N   UNL     1      -3.542   0.486  25.048  0.00  0.00    -0.201 NA
BRANCH  20  21
ATOM     21  C   UNL     1      -4.274   0.622  24.694  0.00  0.00    +0.141 C 
BRANCH  21  22
ATOM     22  C   UNL     1      -4.710   1.292  24.896  0.00  0.00    -0.000 A 
ATOM     23  C   UNL     1      -5.270   1.252  25.503  0.00  0.00    +0.001 A 
ATOM     24  C   UNL     1      -5.706   1.922  25.705  0.00  0.00    +0.037 A 
ATOM     25  C   UNL     1      -5.584   2.632  25.303  0.00  0.00    +0.139 A 
ATOM     28  C   UNL     1      -5.026   2.672  24.698  0.00  0.00    +0.037 A 
ATOM     29  C   UNL     1      -4.588   2.002  24.494  0.00  0.00    +0.001 A 
BRANCH  25  26
ATOM     26  O   UNL     1      -6.021   3.302  25.506  0.00  0.00    -0.471 OA
ATOM     27  C   UNL     1      -5.650   4.035  25.565  0.00  0.00    +0.252 C 
ENDBRANCH  25  26
ENDBRANCH  21  22
ENDBRANCH  20  21
ENDBRANCH  16  18
ENDBRANCH  15  16
TORSDOF 9
ENDMDL
MODEL 8
REMARK VINA RESULT:      -9.2      2.470      5.859
REMARK  Name = 
REMARK  9 active torsions:
REMARK  status: ('A' for Active; 'I' for Inactive)
REMARK    1  A    between atoms: O_2  and  C_3
REMARK    2  A    between atoms: C_3  and  C_4
REMARK    3  A    between atoms: C_4  and  C_5
REMARK    4  A    between atoms: N_7  and  C_8
REMARK    5  A    between atoms: C_15  and  C_16
REMARK    6  A    between atoms: C_16  and  C_18
REMARK    7  A    between atoms: N_20  and  C_21
REMARK    8  A    between atoms: C_21  and  C_22
REMARK    9  A    between atoms: C_25  and  O_26
REMARK                            x       y       z     vdW  Elec       q    Type
REMARK                         _______ _______ _______ _____ _____    ______ ____
ROOT
ATOM      8  C   UNL     1      -2.446   2.538  24.451  0.00  0.00    +0.095 C 
ATOM      9  C   UNL     1      -1.960   3.146  24.722  0.00  0.00    +0.022 C 
ATOM     10  C   UNL     1      -1.142   3.036  24.758  0.00  0.00    +0.002 C 
ATOM     11  C   UNL     1      -0.813   2.318  24.523  0.00  0.00    +0.002 C 
ATOM     12  C   UNL     1      -0.326   2.927  24.794  0.00  0.00    +0.000 C 
ATOM     13  C   UNL     1       0.005   2.208  24.559  0.00  0.00    +0.000 C 
ATOM     14  C   UNL     1       0.334   1.489  24.324  0.00  0.00    +0.003 C 
ATOM     15  C   UNL     1      -0.152   0.881  24.054  0.00  0.00    +0.039 C 
ATOM     30  C   UNL     1      -0.968   0.990  24.018  0.00  0.00    +0.152 C 
ATOM     31  O   UNL     1      -1.455   0.382  23.747  0.00  0.00    -0.223 OA
ATOM     32  C   UNL     1      -1.299   1.710  24.253  0.00  0.00    +0.032 C 
ATOM     33  C   UNL     1      -2.115   1.819  24.216  0.00  0.00    +0.022 C 
ATOM     34  C   UNL     1      -2.602   1.210  23.945  0.00  0.00    +0.002 C 
ENDROOT
BRANCH   8   7
ATOM      5  C   UNL     1      -3.645   3.096  24.993  0.00  0.00    +0.244 C 
ATOM      6  O   UNL     1      -3.210   3.435  25.606  0.00  0.00    -0.273 OA
ATOM      7  N   UNL     1      -3.263   2.647  24.415  0.00  0.00    -0.207 NA
BRANCH   5   4
ATOM      4  C   UNL     1      -4.461   3.206  24.957  0.00  0.00    +0.119 C 
BRANCH   4   3
ATOM      3  C   UNL     1      -4.931   3.027  25.612  0.00  0.00    +0.152 C 
BRANCH   3   2
ATOM      1  C   UNL     1      -6.138   2.333  25.932  0.00  0.00    +0.174 C 
ATOM      2  O   UNL     1      -5.745   2.932  25.522  0.00  0.00    -0.351 OA
ENDBRANCH   3   2
ENDBRANCH   4   3
ENDBRANCH   5   4
ENDBRANCH   8   7
BRANCH  15  16
ATOM     16  C   UNL     1       0.178   0.162  23.819  0.00  0.00    +0.081 C 
ATOM     17  C   UNL     1      -0.008  -0.530  24.227  0.00  0.00    +0.010 C 
BRANCH  16  18
ATOM     18  C   UNL     1       0.695   0.137  23.175  0.00  0.00    +0.241 C 
ATOM     19  O   UNL     1       0.396   0.115  22.408  0.00  0.00    -0.273 OA
ATOM     20  N   UNL     1       1.511   0.132  23.301  0.00  0.00    -0.201 NA
BRANCH  20  21
ATOM     21  C   UNL     1       2.026   0.107  22.657  0.00  0.00    +0.141 C 
BRANCH  21  22
ATOM     22  C   UNL     1       2.839   0.170  22.779  0.00  0.00    -0.000 A 
ATOM     23  C   UNL     1       3.229   0.875  22.602  0.00  0.00    +0.001 A 
ATOM     24  C   UNL     1       4.043   0.938  22.724  0.00  0.00    +0.037 A 
ATOM     25  C   UNL     1       4.467   0.297  23.023  0.00  0.00    +0.139 A 
ATOM     28  C   UNL     1       4.077  -0.408  23.200  0.00  0.00    +0.037 A 
ATOM     29  C   UNL     1       3.263  -0.472  23.078  0.00  0.00    +0.001 A 
BRANCH  25  26
ATOM     26  O   UNL     1       5.280   0.361  23.144  0.00  0.00    -0.471 OA
ATOM     27  C   UNL     1       5.624   0.033  23.818  0.00  0.00    +0.252 C 
ENDBRANCH  25  26
ENDBRANCH  21  22
ENDBRANCH  20  21
ENDBRANCH  16  18
ENDBRANCH  15  16
TORSDOF 9
ENDMDL
MODEL 9
REMARK VINA RESULT:      -9.1      1.928      5.123
REMARK  Name = 
REMARK  9 active torsions:
REMARK  status: ('A' for Active; 'I' for Inactive)
REMARK    1  A    between atoms: O_2  and  C_3
REMARK    2  A    between atoms: C_3  and  C_4
REMARK    3  A    between atoms: C_4  and  C_5
REMARK    4  A    between atoms: N_7  and  C_8
REMARK    5  A    between atoms: C_15  and  C_16
REMARK    6  A    between atoms: C_16  and  C_18
REMARK    7  A    between atoms: N_20  and  C_21
REMARK    8  A    between atoms: C_21  and  C_22
REMARK    9  A    between atoms: C_25  and  O_26
REMARK                            x       y       z     vdW  Elec       q    Type
REMARK                         _______ _______ _______ _____ _____    ______ ____
ROOT
ATOM      8  C   UNL     1      -0.483   3.012  25.815  0.00  0.00    +0.095 C 
ATOM      9  C   UNL     1      -0.872   3.687  26.083  0.00  0.00    +0.022 C 
ATOM     10  C   UNL     1      -1.620   3.877  25.790  0.00  0.00    +0.002 C 
ATOM     11  C   UNL     1      -1.977   3.390  25.228  0.00  0.00    +0.002 C 
ATOM     12  C   UNL     1      -2.367   4.067  25.497  0.00  0.00    +0.000 C 
ATOM     13  C   UNL     1      -2.725   3.580  24.934  0.00  0.00    +0.000 C 
ATOM     14  C   UNL     1      -3.083   3.094  24.372  0.00  0.00    +0.003 C 
ATOM     15  C   UNL     1      -2.694   2.418  24.104  0.00  0.00    +0.039 C 
ATOM     30  C   UNL     1      -1.947   2.228  24.397  0.00  0.00    +0.152 C 
ATOM     31  O   UNL     1      -1.557   1.552  24.128  0.00  0.00    -0.223 OA
ATOM     32  C   UNL     1      -1.588   2.715  24.959  0.00  0.00    +0.032 C 
ATOM     33  C   UNL     1      -0.841   2.525  25.252  0.00  0.00    +0.022 C 
ATOM     34  C   UNL     1      -0.452   1.849  24.984  0.00  0.00    +0.002 C 
ENDROOT
BRANCH   8   7
ATOM      5  C   UNL     1       0.368   2.686  26.916  0.00  0.00    +0.244 C 
ATOM      6  O   UNL     1      -0.275   2.740  27.428  0.00  0.00    -0.273 OA
ATOM      7  N   UNL     1       0.264   2.822  26.108  0.00  0.00    -0.207 NA
BRANCH   5   4
ATOM      4  C   UNL     1       1.115   2.496  27.209  0.00  0.00    +0.119 C 
BRANCH   4   3
ATOM      3  C   UNL     1       1.306   2.668  27.993  0.00  0.00    +0.152 C 
BRANCH   3   2
ATOM      1  C   UNL     1       2.286   2.725  29.032  0.00  0.00    +0.174 C 
ATOM      2  O   UNL     1       2.096   2.690  28.229  0.00  0.00    -0.351 OA
ENDBRANCH   3   2
ENDBRANCH   4   3
ENDBRANCH   5   4
ENDBRANCH   8   7
BRANCH  15  16
ATOM     16  C   UNL     1      -3.051   1.932  23.542  0.00  0.00    +0.081 C 
ATOM     17  C   UNL     1      -2.779   1.931  22.763  0.00  0.00    +0.010 C 
BRANCH  16  18
ATOM     18  C   UNL     1      -3.682   1.446  23.759  0.00  0.00    +0.241 C 
ATOM     19  O   UNL     1      -4.439   1.762  23.836  0.00  0.00    -0.273 OA
ATOM     20  N   UNL     1      -3.555   0.642  23.900  0.00  0.00    -0.201 NA
BRANCH  20  21
ATOM     21  C   UNL     1      -4.186   0.157  24.117  0.00  0.00    +0.141 C 
BRANCH  21  22
ATOM     22  C   UNL     1      -4.047  -0.629  24.325  0.00  0.00    -0.000 A 
ATOM     23  C   UNL     1      -4.180  -1.231  23.776  0.00  0.00    +0.001 A 
ATOM     24  C   UNL     1      -4.042  -2.017  23.984  0.00  0.00    +0.037 A 
ATOM     25  C   UNL     1      -3.770  -2.202  24.741  0.00  0.00    +0.139 A 
ATOM     28  C   UNL     1      -3.637  -1.601  25.289  0.00  0.00    +0.037 A 
ATOM     29  C   UNL     1      -3.775  -0.814  25.082  0.00  0.00    +0.001 A 
BRANCH  25  26
ATOM     26  O   UNL     1      -3.632  -2.989  24.948  0.00  0.00    -0.471 OA
ATOM     27  C   UNL     1      -3.017  -3.407  24.593  0.00  0.00    +0.252 C 
ENDBRANCH  25  26
ENDBRANCH  21  22
ENDBRANCH  20  21
ENDBRANCH  16  18
ENDBRANCH  15  16
TORSDOF 9
ENDMDL
MODEL 10
REMARK VINA RESULT:      -6.7     15.681     18.803
REMARK  Name = 
REMARK  9 active torsions:
REMARK  status: ('A' for Active; 'I' for Inactive)
REMARK    1  A    between atoms: O_2  and  C_3
REMARK    2  A    between atoms: C_3  and  C_4
REMARK    3  A    between atoms: C_4  and  C_5
REMARK    4  A    between atoms: N_7  and  C_8
REMARK    5  A    between atoms: C_15  and  C_16
REMARK    6  A    between atoms: C_16  and  C_18
REMARK    7  A    between atoms: N_20  and  C_21
REMARK    8  A    between atoms: C_21  and  C_22
REMARK    9  A    between atoms: C_25  and  O_26
REMARK                            x       y       z     vdW  Elec       q    Type
REMARK                         _______ _______ _______ _____ _____    ______ ____
ROOT
ATOM      8  C   UNL     1      -6.533  -8.551   8.966  0.00  0.00    +0.095 C 
ATOM      9  C   UNL     1      -6.608  -9.215   8.483  0.00  0.00    +0.022 C 
ATOM     10  C   UNL     1      -6.022  -9.797   8.486  0.00  0.00    +0.002 C 
ATOM     11  C   UNL     1      -5.362  -9.713   8.972  0.00  0.00    +0.002 C 
ATOM     12  C   UNL     1      -5.437 -10.378   8.488  0.00  0.00    +0.000 C 
ATOM     13  C   UNL     1      -4.776 -10.295   8.975  0.00  0.00    +0.000 C 
ATOM     14  C   UNL     1      -4.115 -10.212   9.462  0.00  0.00    +0.003 C 
ATOM     15  C   UNL     1      -4.040  -9.548   9.945  0.00  0.00    +0.039 C 
ATOM     30  C   UNL     1      -4.625  -8.967   9.942  0.00  0.00    +0.152 C 
ATOM     31  O   UNL     1      -4.549  -8.303  10.426  0.00  0.00    -0.223 OA
ATOM     32  C   UNL     1      -5.286  -9.050   9.455  0.00  0.00    +0.032 C 
ATOM     33  C   UNL     1      -5.871  -8.468   9.453  0.00  0.00    +0.022 C 
ATOM     34  C   UNL     1      -5.796  -7.804   9.937  0.00  0.00    +0.002 C 
ENDROOT
BRANCH   8   7
ATOM      5  C   UNL     1      -7.902  -8.175   8.805  0.00  0.00    +0.244 C 
ATOM      6  O   UNL     1      -8.099  -8.959   8.649  0.00  0.00    -0.273 OA
ATOM      7  N   UNL     1      -7.118  -7.970   8.963  0.00  0.00    -0.207 NA
BRANCH   5   4
ATOM      4  C   UNL     1      -8.487  -7.593   8.802  0.00  0.00    +0.119 C 
BRANCH   4   3
ATOM      3  C   UNL     1      -9.283  -7.810   8.808  0.00  0.00    +0.152 C 
BRANCH   3   2
ATOM      1  C   UNL     1     -10.659  -7.427   8.864  0.00  0.00    +0.174 C 
ATOM      2  O   UNL     1      -9.868  -7.233   8.731  0.00  0.00    -0.351 OA
ENDBRANCH   3   2
ENDBRANCH   4   3
ENDBRANCH   5   4
ENDBRANCH   8   7
BRANCH  15  16
ATOM     16  C   UNL     1      -3.379  -9.465  10.432  0.00  0.00    +0.081 C 
ATOM     17  C   UNL     1      -2.977  -8.745  10.463  0.00  0.00    +0.010 C 
BRANCH  16  18
ATOM     18  C   UNL     1      -3.120 -10.103  10.888  0.00  0.00    +0.241 C 
ATOM     19  O   UNL     1      -2.827 -10.780  10.521  0.00  0.00    -0.273 OA
ATOM     20  N   UNL     1      -3.154 -10.062  11.712  0.00  0.00    -0.201 NA
BRANCH  20  21
ATOM     21  C   UNL     1      -2.895 -10.699  12.167  0.00  0.00    +0.141 C 
BRANCH  21  22
ATOM     22  C   UNL     1      -2.915 -10.651  12.990  0.00  0.00    -0.000 A 
ATOM     23  C   UNL     1      -2.209 -10.641  13.419  0.00  0.00    +0.001 A 
ATOM     24  C   UNL     1      -2.229 -10.593  14.242  0.00  0.00    +0.037 A 
ATOM     25  C   UNL     1      -2.953 -10.556  14.637  0.00  0.00    +0.139 A 
ATOM     28  C   UNL     1      -3.657 -10.567  14.208  0.00  0.00    +0.037 A 
ATOM     29  C   UNL     1      -3.638 -10.614  13.384  0.00  0.00    +0.001 A 
BRANCH  25  26
ATOM     26  O   UNL     1      -2.971 -10.509  15.460  0.00  0.00    -0.471 OA
ATOM     27  C   UNL     1      -2.267 -10.480  15.888  0.00  0.00    +0.252 C 
ENDBRANCH  25  26
ENDBRANCH  21  22
ENDBRANCH  20  21
ENDBRANCH  16  18
ENDBRANCH  15  16
TORSDOF 9
ENDMDL
