MODEL 1
REMARK VINA RESULT:      -9.2      0.000      0.000
REMARK  Name = 
REMARK  8 active torsions:
REMARK  status: ('A' for Active; 'I' for Inactive)
REMARK    1  A    between atoms: N_6  and  C_7
REMARK    2  A    between atoms: C_7  and  C_8
REMARK    3  A    between atoms: C_11  and  C_14
REMARK    4  A    between atoms: C_22  and  C_23
REMARK    5  A    between atoms: C_23  and  C_24
REMARK    6  A    between atoms: C_24  and  C_25
REMARK    7  A    between atoms: N_27  and  C_28
REMARK    8  A    between atoms: C_28  and  C_29
REMARK                            x       y       z     vdW  Elec       q    Type
REMARK                         _______ _______ _______ _____ _____    ______ ____
ROOT
ATOM      1  C   UNL     1       0.025   1.731  23.426  0.00  0.00    +0.090 C 
ATOM      2  N   UNL     1      -0.318   1.034  23.702  0.00  0.00    -0.271 NA
ATOM      3  C   UNL     1      -1.083   1.105  24.003  0.00  0.00    +0.083 C 
ATOM      4  C   UNL     1      -1.495   1.819  24.033  0.00  0.00    +0.035 C 
ATOM      5  C   UNL     1      -2.235   1.672  24.366  0.00  0.00    +0.074 C 
ATOM      6  N   UNL     1      -2.281   0.867  24.541  0.00  0.00    -0.262 NA
ATOM     17  C   UNL     1      -1.569   0.517  24.317  0.00  0.00    +0.151 C 
ATOM     18  C   UNL     1      -1.410  -0.287  24.409  0.00  0.00    +0.257 C 
ATOM     19  O   UNL     1      -2.015  -0.736  24.745  0.00  0.00    -0.272 OA
ATOM     20  N   UNL     1      -0.726  -0.702  24.208  0.00  0.00    -0.203 NA
ATOM     21  C   UNL     1      -0.031  -0.415  23.867  0.00  0.00    +0.131 C 
ATOM     22  C   UNL     1       0.150   0.357  23.642  0.00  0.00    +0.080 C 
ENDROOT
BRANCH   6   7
ATOM      7  C   UNL     1      -2.926   0.481  24.882  0.00  0.00    +0.100 C 
BRANCH   7   8
ATOM      8  C   UNL     1      -3.656   0.864  24.932  0.00  0.00    -0.006 A 
ATOM      9  C   UNL     1      -3.744   1.523  25.420  0.00  0.00    -0.003 A 
ATOM     10  C   UNL     1      -4.473   1.904  25.469  0.00  0.00    +0.006 A 
ATOM     11  C   UNL     1      -5.115   1.627  25.030  0.00  0.00    +0.080 A 
ATOM     12  C   UNL     1      -5.026   0.967  24.542  0.00  0.00    +0.006 A 
ATOM     13  C   UNL     1      -4.297   0.586  24.493  0.00  0.00    -0.003 A 
BRANCH  11  14
ATOM     14  C   UNL     1      -5.845   2.009  25.080  0.00  0.00    +0.388 C 
ATOM     15  O   UNL     1      -5.898   2.753  25.431  0.00  0.00    -0.241 OA
ATOM     16  O   UNL     1      -6.521   1.646  24.778  0.00  0.00    -0.241 OA
ENDBRANCH  11  14
ENDBRANCH   7   8
ENDBRANCH   6   7
BRANCH  22  23
ATOM     23  C   UNL     1       0.899   0.468  23.313  0.00  0.00    +0.027 C 
BRANCH  23  24
ATOM     24  C   UNL     1       1.357  -0.183  23.100  0.00  0.00    +0.088 C 
BRANCH  24  25
ATOM     25  C   UNL     1       2.059  -0.075  22.680  0.00  0.00    +0.242 C 
ATOM     26  O   UNL     1       2.043  -0.020  21.857  0.00  0.00    -0.273 OA
ATOM     27  N   UNL     1       2.777  -0.022  23.082  0.00  0.00    -0.197 NA
BRANCH  27  28
ATOM     28  C   UNL     1       3.479   0.086  22.663  0.00  0.00    +0.179 C 
BRANCH  28  29
ATOM     29  C   UNL     1       4.202   0.077  23.058  0.00  0.00    +0.145 A 
ATOM     30  C   UNL     1       4.713   0.718  23.151  0.00  0.00    +0.038 A 
ATOM     31  C   UNL     1       5.369   0.461  23.581  0.00  0.00    +0.043 A 
ATOM     32  C   UNL     1       5.263  -0.338  23.754  0.00  0.00    +0.179 A 
ATOM     33  O   UNL     1       4.542  -0.576  23.431  0.00  0.00    -0.453 OA
ENDBRANCH  28  29
ENDBRANCH  27  28
ENDBRANCH  24  25
ENDBRANCH  23  24
ENDBRANCH  22  23
TORSDOF 8
ENDMDL
MODEL 2
REMARK VINA RESULT:      -6.3     17.268     18.939
REMARK  Name = 
REMARK  8 active torsions:
REMARK  status: ('A' for Active; 'I' for Inactive)
REMARK    1  A    between atoms: N_6  and  C_7
REMARK    2  A    between atoms: C_7  and  C_8
REMARK    3  A    between atoms: C_11  and  C_14
REMARK    4  A    between atoms: C_22  and  C_23
REMARK    5  A    between atoms: C_23  and  C_24
REMARK    6  A    between atoms: C_24  and  C_25
REMARK    7  A    between atoms: N_27  and  C_28
REMARK    8  A    between atoms: C_28  and  C_29
REMARK                            x       y       z     vdW  Elec       q    Type
REMARK                         _______ _______ _______ _____ _____    ______ ____
ROOT
ATOM      1  C   UNL     1      -6.527  -8.041   8.797  0.00  0.00    +0.090 C 
ATOM      2  N   UNL     1      -6.667  -8.653   9.332  0.00  0.00    -0.271 NA
ATOM      3  C   UNL     1      -5.996  -8.997   9.666  0.00  0.00    +0.083 C 
ATOM      4  C   UNL     1      -5.226  -8.758   9.490  0.00  0.00    +0.035 C 
ATOM      5  C   UNL     1      -4.707  -9.226   9.927  0.00  0.00    +0.074 C 
ATOM      6  N   UNL     1      -5.155  -9.756  10.374  0.00  0.00    -0.262 NA
ATOM     17  C   UNL     1      -5.952  -9.614  10.213  0.00  0.00    +0.151 C 
ATOM     18  C   UNL     1      -6.568 -10.038  10.559  0.00  0.00    +0.257 C 
ATOM     19  O   UNL     1      -6.342 -10.628  11.091  0.00  0.00    -0.272 OA
ATOM     20  N   UNL     1      -7.380  -9.952  10.446  0.00  0.00    -0.203 NA
ATOM     21  C   UNL     1      -7.777  -9.418   9.957  0.00  0.00    +0.131 C 
ATOM     22  C   UNL     1      -7.460  -8.841   9.461  0.00  0.00    +0.080 C 
ENDROOT
BRANCH   6   7
ATOM      7  C   UNL     1      -4.859 -10.326  10.891  0.00  0.00    +0.100 C 
BRANCH   7   8
ATOM      8  C   UNL     1      -4.073 -10.289  11.139  0.00  0.00    -0.006 A 
ATOM      9  C   UNL     1      -3.465 -10.474  10.612  0.00  0.00    -0.003 A 
ATOM     10  C   UNL     1      -2.679 -10.437  10.861  0.00  0.00    +0.006 A 
ATOM     11  C   UNL     1      -2.501 -10.215  11.635  0.00  0.00    +0.080 A 
ATOM     12  C   UNL     1      -3.109 -10.030  12.161  0.00  0.00    +0.006 A 
ATOM     13  C   UNL     1      -3.895 -10.067  11.913  0.00  0.00    -0.003 A 
BRANCH  11  14
ATOM     14  C   UNL     1      -1.715 -10.177  11.883  0.00  0.00    +0.388 C 
ATOM     15  O   UNL     1      -1.243  -9.537  11.663  0.00  0.00    -0.241 OA
ATOM     16  O   UNL     1      -1.401 -10.780  12.351  0.00  0.00    -0.241 OA
ENDBRANCH  11  14
ENDBRANCH   7   8
ENDBRANCH   6   7
BRANCH  22  23
ATOM     23  C   UNL     1      -8.007  -8.390   9.039  0.00  0.00    +0.027 C 
BRANCH  23  24
ATOM     24  C   UNL     1      -8.736  -8.203   9.376  0.00  0.00    +0.088 C 
BRANCH  24  25
ATOM     25  C   UNL     1      -9.297  -7.785   8.939  0.00  0.00    +0.242 C 
ATOM     26  O   UNL     1      -9.782  -8.182   8.402  0.00  0.00    -0.273 OA
ATOM     27  N   UNL     1      -9.375  -6.970   9.040  0.00  0.00    -0.197 NA
BRANCH  27  28
ATOM     28  C   UNL     1      -9.937  -6.551   8.604  0.00  0.00    +0.179 C 
BRANCH  28  29
ATOM     29  C   UNL     1     -10.023  -5.739   8.714  0.00  0.00    +0.145 A 
ATOM     30  C   UNL     1     -10.705  -5.354   8.974  0.00  0.00    +0.038 A 
ATOM     31  C   UNL     1     -10.546  -4.545   9.004  0.00  0.00    +0.043 A 
ATOM     32  C   UNL     1      -9.765  -4.430   8.762  0.00  0.00    +0.179 A 
ATOM     33  O   UNL     1      -9.442  -5.168   8.583  0.00  0.00    -0.453 OA
ENDBRANCH  28  29
ENDBRANCH  27  28
ENDBRANCH  24  25
ENDBRANCH  23  24
ENDBRANCH  22  23
TORSDOF 8
ENDMDL
MODEL 3
REMARK VINA RESULT:      -5.8     13.908     16.066
REMARK  Name = 
REMARK  8 active torsions:
REMARK  status: ('A' for Active; 'I' for Inactive)
REMARK    1  A    between atoms: N_6  and  C_7
REMARK    2  A    between atoms: C_7  and  C_8
REMARK    3  A    between atoms: C_11  and  C_14
REMARK    4  A    between atoms: C_22  and  C_23
REMARK    5  A    between atoms: C_23  and  C_24
REMARK    6  A    between atoms: C_24  and  C_25
REMARK    7  A    between atoms: N_27  and  C_28
REMARK    8  A    between atoms: C_28  and  C_29
REMARK                            x       y       z     vdW  Elec       q    Type
REMARK                         _______ _______ _______ _____ _____    ______ ____
ROOT
ATOM      1  C   UNL     1      -5.445 -10.762  14.874  0.00  0.00    +0.090 C 
ATOM      2  N   UNL     1      -4.671 -10.758  15.160  0.00  0.00    -0.271 NA
ATOM      3  C   UNL     1      -4.077 -10.744  14.588  0.00  0.00    +0.083 C 
ATOM      4  C   UNL     1      -4.228 -10.736  13.776  0.00  0.00    +0.035 C 
ATOM      5  C   UNL     1      -3.504 -10.723  13.382  0.00  0.00    +0.074 C 
ATOM      6  N   UNL     1      -2.905 -10.724  13.950  0.00  0.00    -0.262 NA
ATOM     17  C   UNL     1      -3.259 -10.737  14.695  0.00  0.00    +0.151 C 
ATOM     18  C   UNL     1      -2.833 -10.742  15.400  0.00  0.00    +0.257 C 
ATOM     19  O   UNL     1      -2.012 -10.732  15.323  0.00  0.00    -0.272 OA
ATOM     20  N   UNL     1      -3.119 -10.755  16.174  0.00  0.00    -0.203 NA
ATOM     21  C   UNL     1      -3.903 -10.766  16.432  0.00  0.00    +0.131 C 
ATOM     22  C   UNL     1      -4.593 -10.768  15.982  0.00  0.00    +0.080 C 
ENDROOT
BRANCH   6   7
ATOM      7  C   UNL     1      -2.094 -10.713  13.799  0.00  0.00    +0.100 C 
BRANCH   7   8
ATOM      8  C   UNL     1      -1.802 -10.306  13.143  0.00  0.00    -0.006 A 
ATOM      9  C   UNL     1      -1.986 -10.563  12.381  0.00  0.00    -0.003 A 
ATOM     10  C   UNL     1      -1.694 -10.155  11.727  0.00  0.00    +0.006 A 
ATOM     11  C   UNL     1      -1.218  -9.489  11.834  0.00  0.00    +0.080 A 
ATOM     12  C   UNL     1      -1.034  -9.232  12.596  0.00  0.00    +0.006 A 
ATOM     13  C   UNL     1      -1.326  -9.640  13.251  0.00  0.00    -0.003 A 
BRANCH  11  14
ATOM     14  C   UNL     1      -0.926  -9.080  11.179  0.00  0.00    +0.388 C 
ATOM     15  O   UNL     1      -0.188  -8.714  11.217  0.00  0.00    -0.241 OA
ATOM     16  O   UNL     1      -1.373  -9.039  10.487  0.00  0.00    -0.241 OA
ENDBRANCH  11  14
ENDBRANCH   7   8
ENDBRANCH   6   7
BRANCH  22  23
ATOM     23  C   UNL     1      -5.300 -10.781  16.408  0.00  0.00    +0.027 C 
BRANCH  23  24
ATOM     24  C   UNL     1      -5.473 -10.174  16.938  0.00  0.00    +0.088 C 
BRANCH  24  25
ATOM     25  C   UNL     1      -6.169 -10.199  17.381  0.00  0.00    +0.242 C 
ATOM     26  O   UNL     1      -6.218 -10.687  18.044  0.00  0.00    -0.273 OA
ATOM     27  N   UNL     1      -6.815  -9.736  17.161  0.00  0.00    -0.197 NA
BRANCH  27  28
ATOM     28  C   UNL     1      -7.511  -9.761  17.604  0.00  0.00    +0.179 C 
BRANCH  28  29
ATOM     29  C   UNL     1      -8.182  -9.360  17.342  0.00  0.00    +0.145 A 
ATOM     30  C   UNL     1      -8.765  -9.663  16.843  0.00  0.00    +0.038 A 
ATOM     31  C   UNL     1      -9.332  -9.075  16.725  0.00  0.00    +0.043 A 
ATOM     32  C   UNL     1      -9.098  -8.408  17.151  0.00  0.00    +0.179 A 
ATOM     33  O   UNL     1      -8.388  -8.583  17.532  0.00  0.00    -0.453 OA
ENDBRANCH  28  29
ENDBRANCH  27  28
ENDBRANCH  24  25
ENDBRANCH  23  24
ENDBRANCH  22  23
TORSDOF 8
ENDMDL
MODEL 4
REMARK VINA RESULT:      -5.7     14.869     16.974
REMARK  Name = 
REMARK  8 active torsions:
REMARK  status: ('A' for Active; 'I' for Inactive)
REMARK    1  A    between atoms: N_6  and  C_7
REMARK    2  A    between atoms: C_7  and  C_8
REMARK    3  A    between atoms: C_11  and  C_14
REMARK    4  A    between atoms: C_22  and  C_23
REMARK    5  A    between atoms: C_23  and  C_24
REMARK    6  A    between atoms: C_24  and  C_25
REMARK    7  A    between atoms: N_27  and  C_28
REMARK    8  A    between atoms: C_28  and  C_29
REMARK                            x       y       z     vdW  Elec       q    Type
REMARK                         _______ _______ _______ _____ _____    ______ ____
ROOT
ATOM      1  C   UNL     1      -5.548 -10.282  15.368  0.00  0.00    +0.090 C 
ATOM      2  N   UNL     1      -5.759 -10.401  14.580  0.00  0.00    -0.271 NA
ATOM      3  C   UNL     1      -5.133 -10.463  14.046  0.00  0.00    +0.083 C 
ATOM      4  C   UNL     1      -4.340 -10.411  14.268  0.00  0.00    +0.035 C 
ATOM      5  C   UNL     1      -3.879 -10.497  13.590  0.00  0.00    +0.074 C 
ATOM      6  N   UNL     1      -4.387 -10.603  12.948  0.00  0.00    -0.262 NA
ATOM     17  C   UNL     1      -5.162 -10.582  13.230  0.00  0.00    +0.151 C 
ATOM     18  C   UNL     1      -5.824 -10.669  12.747  0.00  0.00    +0.257 C 
ATOM     19  O   UNL     1      -5.669 -10.781  11.944  0.00  0.00    -0.272 OA
ATOM     20  N   UNL     1      -6.621 -10.658  12.959  0.00  0.00    -0.203 NA
ATOM     21  C   UNL     1      -6.952 -10.558  13.708  0.00  0.00    +0.131 C 
ATOM     22  C   UNL     1      -6.569 -10.444  14.429  0.00  0.00    +0.080 C 
ENDROOT
BRANCH   6   7
ATOM      7  C   UNL     1      -4.160 -10.711  12.162  0.00  0.00    +0.100 C 
BRANCH   7   8
ATOM      8  C   UNL     1      -3.465 -10.363  11.882  0.00  0.00    -0.006 A 
ATOM      9  C   UNL     1      -2.735 -10.713  12.040  0.00  0.00    -0.003 A 
ATOM     10  C   UNL     1      -2.042 -10.364  11.760  0.00  0.00    +0.006 A 
ATOM     11  C   UNL     1      -2.080  -9.665  11.323  0.00  0.00    +0.080 A 
ATOM     12  C   UNL     1      -2.810  -9.316  11.165  0.00  0.00    +0.006 A 
ATOM     13  C   UNL     1      -3.503  -9.665  11.445  0.00  0.00    -0.003 A 
BRANCH  11  14
ATOM     14  C   UNL     1      -1.386  -9.316  11.043  0.00  0.00    +0.388 C 
ATOM     15  O   UNL     1      -0.680  -9.409  11.460  0.00  0.00    -0.241 OA
ATOM     16  O   UNL     1      -1.398  -8.876  10.346  0.00  0.00    -0.241 OA
ENDBRANCH  11  14
ENDBRANCH   7   8
ENDBRANCH   6   7
BRANCH  22  23
ATOM     23  C   UNL     1      -7.060 -10.361  15.087  0.00  0.00    +0.027 C 
BRANCH  23  24
ATOM     24  C   UNL     1      -7.850 -10.146  14.989  0.00  0.00    +0.088 C 
BRANCH  24  25
ATOM     25  C   UNL     1      -8.339 -10.058  15.647  0.00  0.00    +0.242 C 
ATOM     26  O   UNL     1      -8.437 -10.685  16.174  0.00  0.00    -0.273 OA
ATOM     27  N   UNL     1      -8.730  -9.344  15.779  0.00  0.00    -0.197 NA
BRANCH  27  28
ATOM     28  C   UNL     1      -9.219  -9.256  16.437  0.00  0.00    +0.179 C 
BRANCH  28  29
ATOM     29  C   UNL     1      -9.612  -8.542  16.567  0.00  0.00    +0.145 A 
ATOM     30  C   UNL     1      -9.725  -8.177  17.298  0.00  0.00    +0.038 A 
ATOM     31  C   UNL     1     -10.144  -7.477  17.172  0.00  0.00    +0.043 A 
ATOM     32  C   UNL     1     -10.289  -7.411  16.362  0.00  0.00    +0.179 A 
ATOM     33  O   UNL     1      -9.960  -8.068  15.988  0.00  0.00    -0.453 OA
ENDBRANCH  28  29
ENDBRANCH  27  28
ENDBRANCH  24  25
ENDBRANCH  23  24
ENDBRANCH  22  23
TORSDOF 8
ENDMDL
MODEL 5
REMARK VINA RESULT:      -5.7     14.272     17.891
REMARK  Name = 
REMARK  8 active torsions:
REMARK  status: ('A' for Active; 'I' for Inactive)
REMARK    1  A    between atoms: N_6  and  C_7
REMARK    2  A    between atoms: C_7  and  C_8
REMARK    3  A    between atoms: C_11  and  C_14
REMARK    4  A    between atoms: C_22  and  C_23
REMARK    5  A    between atoms: C_23  and  C_24
REMARK    6  A    between atoms: C_24  and  C_25
REMARK    7  A    between atoms: N_27  and  C_28
REMARK    8  A    between atoms: C_28  and  C_29
REMARK                            x       y       z     vdW  Elec       q    Type
REMARK                         _______ _______ _______ _____ _____    ______ ____
ROOT
ATOM      1  C   UNL     1      11.031  -6.182  32.873  0.00  0.00    +0.090 C 
ATOM      2  N   UNL     1      11.634  -6.537  32.437  0.00  0.00    -0.271 NA
ATOM      3  C   UNL     1      12.313  -6.082  32.327  0.00  0.00    +0.083 C 
ATOM      4  C   UNL     1      12.401  -5.318  32.626  0.00  0.00    +0.035 C 
ATOM      5  C   UNL     1      13.146  -5.042  32.405  0.00  0.00    +0.074 C 
ATOM      6  N   UNL     1      13.519  -5.635  31.969  0.00  0.00    -0.262 NA
ATOM     17  C   UNL     1      13.004  -6.278  31.921  0.00  0.00    +0.151 C 
ATOM     18  C   UNL     1      13.187  -6.978  31.525  0.00  0.00    +0.257 C 
ATOM     19  O   UNL     1      13.931  -7.005  31.170  0.00  0.00    -0.272 OA
ATOM     20  N   UNL     1      12.724  -7.655  31.437  0.00  0.00    -0.203 NA
ATOM     21  C   UNL     1      11.963  -7.799  31.724  0.00  0.00    +0.131 C 
ATOM     22  C   UNL     1      11.479  -7.302  32.169  0.00  0.00    +0.080 C 
ENDROOT
BRANCH   6   7
ATOM      7  C   UNL     1      14.274  -5.593  31.639  0.00  0.00    +0.100 C 
BRANCH   7   8
ATOM      8  C   UNL     1      14.747  -4.930  31.775  0.00  0.00    -0.006 A 
ATOM      9  C   UNL     1      15.237  -4.901  32.438  0.00  0.00    -0.003 A 
ATOM     10  C   UNL     1      15.708  -4.238  32.573  0.00  0.00    +0.006 A 
ATOM     11  C   UNL     1      15.690  -3.604  32.045  0.00  0.00    +0.080 A 
ATOM     12  C   UNL     1      15.200  -3.634  31.382  0.00  0.00    +0.006 A 
ATOM     13  C   UNL     1      14.728  -4.296  31.247  0.00  0.00    -0.003 A 
BRANCH  11  14
ATOM     14  C   UNL     1      16.162  -2.941  32.181  0.00  0.00    +0.388 C 
ATOM     15  O   UNL     1      16.904  -3.027  32.532  0.00  0.00    -0.241 OA
ATOM     16  O   UNL     1      15.892  -2.192  31.965  0.00  0.00    -0.241 OA
ENDBRANCH  11  14
ENDBRANCH   7   8
ENDBRANCH   6   7
BRANCH  22  23
ATOM     23  C   UNL     1      10.741  -7.609  32.373  0.00  0.00    +0.027 C 
BRANCH  23  24
ATOM     24  C   UNL     1      10.394  -8.195  31.907  0.00  0.00    +0.088 C 
BRANCH  24  25
ATOM     25  C   UNL     1       9.702  -8.567  32.159  0.00  0.00    +0.242 C 
ATOM     26  O   UNL     1       9.692  -8.979  32.873  0.00  0.00    -0.273 OA
ATOM     27  N   UNL     1       9.021  -8.528  31.696  0.00  0.00    -0.197 NA
BRANCH  27  28
ATOM     28  C   UNL     1       8.329  -8.901  31.948  0.00  0.00    +0.179 C 
BRANCH  28  29
ATOM     29  C   UNL     1       7.634  -8.821  31.511  0.00  0.00    +0.145 A 
ATOM     30  C   UNL     1       7.313  -9.386  31.002  0.00  0.00    +0.038 A 
ATOM     31  C   UNL     1       6.619  -9.076  30.682  0.00  0.00    +0.043 A 
ATOM     32  C   UNL     1       6.511  -8.320  30.992  0.00  0.00    +0.179 A 
ATOM     33  O   UNL     1       7.138  -8.162  31.505  0.00  0.00    -0.453 OA
ENDBRANCH  28  29
ENDBRANCH  27  28
ENDBRANCH  24  25
ENDBRANCH  23  24
ENDBRANCH  22  23
TORSDOF 8
ENDMDL
MODEL 6
REMARK VINA RESULT:      -5.7     14.383     18.127
REMARK  Name = 
REMARK  8 active torsions:
REMARK  status: ('A' for Active; 'I' for Inactive)
REMARK    1  A    between atoms: N_6  and  C_7
REMARK    2  A    between atoms: C_7  and  C_8
REMARK    3  A    between atoms: C_11  and  C_14
REMARK    4  A    between atoms: C_22  and  C_23
REMARK    5  A    between atoms: C_23  and  C_24
REMARK    6  A    between atoms: C_24  and  C_25
REMARK    7  A    between atoms: N_27  and  C_28
REMARK    8  A    between atoms: C_28  and  C_29
REMARK                            x       y       z     vdW  Elec       q    Type
REMARK                         _______ _______ _______ _____ _____    ______ ____
ROOT
ATOM      1  C   UNL     1      12.233  -9.023  31.308  0.00  0.00    +0.090 C 
ATOM      2  N   UNL     1      12.253  -8.202  31.229  0.00  0.00    -0.271 NA
ATOM      3  C   UNL     1      12.915  -7.895  30.845  0.00  0.00    +0.083 C 
ATOM      4  C   UNL     1      13.528  -8.363  30.552  0.00  0.00    +0.035 C 
ATOM      5  C   UNL     1      14.087  -7.864  30.207  0.00  0.00    +0.074 C 
ATOM      6  N   UNL     1      13.820  -7.087  30.288  0.00  0.00    -0.262 NA
ATOM     17  C   UNL     1      13.095  -7.106  30.682  0.00  0.00    +0.151 C 
ATOM     18  C   UNL     1      12.658  -6.431  30.863  0.00  0.00    +0.257 C 
ATOM     19  O   UNL     1      12.991  -5.715  30.623  0.00  0.00    -0.272 OA
ATOM     20  N   UNL     1      11.933  -6.376  31.251  0.00  0.00    -0.203 NA
ATOM     21  C   UNL     1      11.465  -6.985  31.555  0.00  0.00    +0.131 C 
ATOM     22  C   UNL     1      11.607  -7.796  31.545  0.00  0.00    +0.080 C 
ENDROOT
BRANCH   6   7
ATOM      7  C   UNL     1      14.209  -6.410  30.021  0.00  0.00    +0.100 C 
BRANCH   7   8
ATOM      8  C   UNL     1      14.872  -6.481  29.535  0.00  0.00    -0.006 A 
ATOM      9  C   UNL     1      14.780  -6.637  28.730  0.00  0.00    -0.003 A 
ATOM     10  C   UNL     1      15.443  -6.707  28.245  0.00  0.00    +0.006 A 
ATOM     11  C   UNL     1      16.199  -6.622  28.566  0.00  0.00    +0.080 A 
ATOM     12  C   UNL     1      16.291  -6.467  29.370  0.00  0.00    +0.006 A 
ATOM     13  C   UNL     1      15.628  -6.396  29.855  0.00  0.00    -0.003 A 
BRANCH  11  14
ATOM     14  C   UNL     1      16.863  -6.693  28.080  0.00  0.00    +0.388 C 
ATOM     15  O   UNL     1      17.177  -7.439  27.917  0.00  0.00    -0.241 OA
ATOM     16  O   UNL     1      17.212  -6.019  27.758  0.00  0.00    -0.241 OA
ENDBRANCH  11  14
ENDBRANCH   7   8
ENDBRANCH   6   7
BRANCH  22  23
ATOM     23  C   UNL     1      11.028  -8.266  31.898  0.00  0.00    +0.027 C 
BRANCH  23  24
ATOM     24  C   UNL     1      10.311  -7.932  32.132  0.00  0.00    +0.088 C 
BRANCH  24  25
ATOM     25  C   UNL     1       9.669  -8.418  32.314  0.00  0.00    +0.242 C 
ATOM     26  O   UNL     1       9.762  -9.043  32.844  0.00  0.00    -0.273 OA
ATOM     27  N   UNL     1       8.935  -8.278  31.967  0.00  0.00    -0.197 NA
BRANCH  27  28
ATOM     28  C   UNL     1       8.292  -8.763  32.149  0.00  0.00    +0.179 C 
BRANCH  28  29
ATOM     29  C   UNL     1       7.549  -8.599  31.833  0.00  0.00    +0.145 A 
ATOM     30  C   UNL     1       7.284  -8.808  31.080  0.00  0.00    +0.038 A 
ATOM     31  C   UNL     1       6.510  -8.536  30.997  0.00  0.00    +0.043 A 
ATOM     32  C   UNL     1       6.296  -8.158  31.698  0.00  0.00    +0.179 A 
ATOM     33  O   UNL     1       6.938  -8.196  32.215  0.00  0.00    -0.453 OA
ENDBRANCH  28  29
ENDBRANCH  27  28
ENDBRANCH  24  25
ENDBRANCH  23  24
ENDBRANCH  22  23
TORSDOF 8
ENDMDL
MODEL 7
REMARK VINA RESULT:      -5.2     15.670     17.657
REMARK  Name = 
REMARK  8 active torsions:
REMARK  status: ('A' for Active; 'I' for Inactive)
REMARK    1  A    between atoms: N_6  and  C_7
REMARK    2  A    between atoms: C_7  and  C_8
REMARK    3  A    between atoms: C_11  and  C_14
REMARK    4  A    between atoms: C_22  and  C_23
REMARK    5  A    between atoms: C_23  and  C_24
REMARK    6  A    between atoms: C_24  and  C_25
REMARK    7  A    between atoms: N_27  and  C_28
REMARK    8  A    between atoms: C_28  and  C_29
REMARK                            x       y       z     vdW  Elec       q    Type
REMARK                         _______ _______ _______ _____ _____    ______ ____
ROOT
ATOM      1  C   UNL     1      -7.343 -10.051  14.271  0.00  0.00    +0.090 C 
ATOM      2  N   UNL     1      -7.611  -9.915  13.503  0.00  0.00    -0.271 NA
ATOM      3  C   UNL     1      -7.025  -9.845  12.926  0.00  0.00    +0.083 C 
ATOM      4  C   UNL     1      -6.218  -9.904  13.088  0.00  0.00    +0.035 C 
ATOM      5  C   UNL     1      -5.808  -9.806  12.379  0.00  0.00    +0.074 C 
ATOM      6  N   UNL     1      -6.361  -9.685  11.779  0.00  0.00    -0.262 NA
ATOM     17  C   UNL     1      -7.113  -9.709  12.117  0.00  0.00    +0.151 C 
ATOM     18  C   UNL     1      -7.808  -9.611  11.685  0.00  0.00    +0.257 C 
ATOM     19  O   UNL     1      -7.712  -9.483  10.875  0.00  0.00    -0.272 OA
ATOM     20  N   UNL     1      -8.588  -9.623  11.954  0.00  0.00    -0.203 NA
ATOM     21  C   UNL     1      -8.864  -9.737  12.724  0.00  0.00    +0.131 C 
ATOM     22  C   UNL     1      -8.430  -9.866  13.412  0.00  0.00    +0.080 C 
ENDROOT
BRANCH   6   7
ATOM      7  C   UNL     1      -6.191  -9.562  10.981  0.00  0.00    +0.100 C 
BRANCH   7   8
ATOM      8  C   UNL     1      -5.412  -9.435  10.740  0.00  0.00    -0.006 A 
ATOM      9  C   UNL     1      -5.116  -8.667  10.687  0.00  0.00    -0.003 A 
ATOM     10  C   UNL     1      -4.337  -8.542  10.447  0.00  0.00    +0.006 A 
ATOM     11  C   UNL     1      -3.854  -9.184  10.259  0.00  0.00    +0.080 A 
ATOM     12  C   UNL     1      -4.151  -9.952  10.312  0.00  0.00    +0.006 A 
ATOM     13  C   UNL     1      -4.930 -10.078  10.553  0.00  0.00    -0.003 A 
BRANCH  11  14
ATOM     14  C   UNL     1      -3.075  -9.058  10.018  0.00  0.00    +0.388 C 
ATOM     15  O   UNL     1      -2.451  -9.247  10.525  0.00  0.00    -0.241 OA
ATOM     16  O   UNL     1      -2.920  -8.744   9.272  0.00  0.00    -0.241 OA
ENDBRANCH  11  14
ENDBRANCH   7   8
ENDBRANCH   6   7
BRANCH  22  23
ATOM     23  C   UNL     1      -8.872  -9.961  14.103  0.00  0.00    +0.027 C 
BRANCH  23  24
ATOM     24  C   UNL     1      -9.661  -9.725  14.123  0.00  0.00    +0.088 C 
BRANCH  24  25
ATOM     25  C   UNL     1     -10.073  -9.723  14.838  0.00  0.00    +0.242 C 
ATOM     26  O   UNL     1     -10.411 -10.420  15.121  0.00  0.00    -0.273 OA
ATOM     27  N   UNL     1     -10.148  -9.024  15.269  0.00  0.00    -0.197 NA
BRANCH  27  28
ATOM     28  C   UNL     1     -10.560  -9.021  15.984  0.00  0.00    +0.179 C 
BRANCH  28  29
ATOM     29  C   UNL     1     -10.525  -8.362  16.478  0.00  0.00    +0.145 A 
ATOM     30  C   UNL     1     -10.719  -7.588  16.269  0.00  0.00    +0.038 A 
ATOM     31  C   UNL     1     -10.604  -7.108  16.930  0.00  0.00    +0.043 A 
ATOM     32  C   UNL     1     -10.339  -7.586  17.548  0.00  0.00    +0.179 A 
ATOM     33  O   UNL     1     -10.290  -8.361  17.269  0.00  0.00    -0.453 OA
ENDBRANCH  28  29
ENDBRANCH  27  28
ENDBRANCH  24  25
ENDBRANCH  23  24
ENDBRANCH  22  23
TORSDOF 8
ENDMDL
