MODEL 1
REMARK VINA RESULT:     -12.6      0.000      0.000
REMARK  Name = 
REMARK  7 active torsions:
REMARK  status: ('A' for Active; 'I' for Inactive)
REMARK    1  A    between atoms: O_2  and  C_3
REMARK    2  A    between atoms: C_6  and  C_9
REMARK    3  A    between atoms: C_11  and  C_12
REMARK    4  A    between atoms: C_12  and  C_13
REMARK    5  A    between atoms: C_18  and  C_19
REMARK    6  A    between atoms: C_19  and  N_20
REMARK    7  A    between atoms: C_21  and  C_23
REMARK                            x       y       z     vdW  Elec       q    Type
REMARK                         _______ _______ _______ _____ _____    ______ ____
ROOT
ATOM     13  C   UNL     1      -0.906   2.493  24.771  0.00  0.00    +0.121 C 
ATOM     14  C   UNL     1      -0.367   3.010  25.120  0.00  0.00    +0.033 C 
ATOM     15  C   UNL     1      -0.610   3.764  25.354  0.00  0.00    +0.038 C 
ATOM     16  C   UNL     1      -1.393   3.999  25.238  0.00  0.00    +0.181 C 
ATOM     17  O   UNL     1      -1.636   4.752  25.472  0.00  0.00    -0.220 OA
ATOM     18  C   UNL     1      -1.932   3.481  24.889  0.00  0.00    +0.167 C 
ATOM     29  O   UNL     1      -1.689   2.729  24.655  0.00  0.00    -0.354 OA
ENDROOT
BRANCH  13  12
ATOM     12  C   UNL     1      -0.663   1.740  24.537  0.00  0.00    +0.079 C 
BRANCH  12  11
ATOM      9  C   UNL     1      -1.607  -0.049  25.221  0.00  0.00    +0.177 A 
ATOM     10  C   UNL     1      -1.479   0.521  24.638  0.00  0.00    +0.058 A 
ATOM     11  C   UNL     1      -0.946   1.075  24.936  0.00  0.00    +0.103 A 
ATOM     30  N   UNL     1      -0.745   0.848  25.703  0.00  0.00    -0.081 NA
ATOM     31  O   UNL     1      -1.153   0.154  25.879  0.00  0.00    -0.354 OA
BRANCH   9   6
ATOM      3  C   UNL     1      -3.091  -2.020  25.029  0.00  0.00    +0.139 A 
ATOM      4  C   UNL     1      -3.372  -1.324  25.373  0.00  0.00    +0.037 A 
ATOM      5  C   UNL     1      -2.877  -0.667  25.437  0.00  0.00    +0.006 A 
ATOM      6  C   UNL     1      -2.102  -0.706  25.157  0.00  0.00    +0.037 A 
ATOM      7  C   UNL     1      -1.822  -1.402  24.814  0.00  0.00    +0.006 A 
ATOM      8  C   UNL     1      -2.317  -2.059  24.750  0.00  0.00    +0.037 A 
BRANCH   3   2
ATOM      1  C   UNL     1      -3.921  -2.872  24.237  0.00  0.00    +0.252 C 
ATOM      2  O   UNL     1      -3.586  -2.677  24.965  0.00  0.00    -0.471 OA
ENDBRANCH   3   2
ENDBRANCH   9   6
ENDBRANCH  12  11
ENDBRANCH  13  12
BRANCH  18  19
ATOM     19  C   UNL     1      -2.714   3.717  24.773  0.00  0.00    +0.147 C 
BRANCH  19  20
ATOM     20  N   UNL     1      -3.332   3.230  25.021  0.00  0.00    -0.199 NA
ATOM     21  C   UNL     1      -4.100   3.370  24.753  0.00  0.00    +0.265 C 
ATOM     22  O   UNL     1      -4.249   3.995  24.237  0.00  0.00    -0.268 OA
BRANCH  21  23
ATOM     23  C   UNL     1      -4.718   2.883  25.002  0.00  0.00    +0.055 A 
ATOM     24  C   UNL     1      -4.948   2.240  24.539  0.00  0.00    +0.005 A 
ATOM     25  C   UNL     1      -5.566   1.753  24.787  0.00  0.00    +0.000 A 
ATOM     26  C   UNL     1      -5.954   1.909  25.499  0.00  0.00    +0.000 A 
ATOM     27  C   UNL     1      -5.724   2.552  25.961  0.00  0.00    +0.000 A 
ATOM     28  C   UNL     1      -5.106   3.039  25.713  0.00  0.00    +0.005 A 
ENDBRANCH  21  23
ENDBRANCH  19  20
ENDBRANCH  18  19
TORSDOF 7
ENDMDL
MODEL 2
REMARK VINA RESULT:     -12.2      1.244      4.185
REMARK  Name = 
REMARK  7 active torsions:
REMARK  status: ('A' for Active; 'I' for Inactive)
REMARK    1  A    between atoms: O_2  and  C_3
REMARK    2  A    between atoms: C_6  and  C_9
REMARK    3  A    between atoms: C_11  and  C_12
REMARK    4  A    between atoms: C_12  and  C_13
REMARK    5  A    between atoms: C_18  and  C_19
REMARK    6  A    between atoms: C_19  and  N_20
REMARK    7  A    between atoms: C_21  and  C_23
REMARK                            x       y       z     vdW  Elec       q    Type
REMARK                         _______ _______ _______ _____ _____    ______ ____
ROOT
ATOM     13  C   UNL     1      -2.338  -0.970  25.255  0.00  0.00    +0.121 C 
ATOM     14  C   UNL     1      -2.399  -1.721  24.921  0.00  0.00    +0.033 C 
ATOM     15  C   UNL     1      -3.099  -1.952  24.550  0.00  0.00    +0.038 C 
ATOM     16  C   UNL     1      -3.738  -1.431  24.515  0.00  0.00    +0.181 C 
ATOM     17  O   UNL     1      -4.438  -1.662  24.145  0.00  0.00    -0.220 OA
ATOM     18  C   UNL     1      -3.677  -0.679  24.850  0.00  0.00    +0.167 C 
ATOM     29  O   UNL     1      -2.977  -0.449  25.220  0.00  0.00    -0.354 OA
ENDROOT
BRANCH  13  12
ATOM     12  C   UNL     1      -1.637  -0.738  25.626  0.00  0.00    +0.079 C 
BRANCH  12  11
ATOM      9  C   UNL     1      -0.780   1.139  25.080  0.00  0.00    +0.177 A 
ATOM     10  C   UNL     1      -1.339   0.695  25.495  0.00  0.00    +0.058 A 
ATOM     11  C   UNL     1      -1.206  -0.101  25.328  0.00  0.00    +0.103 A 
ATOM     30  N   UNL     1      -0.566  -0.149  24.810  0.00  0.00    -0.081 NA
ATOM     31  O   UNL     1      -0.303   0.617  24.657  0.00  0.00    -0.354 OA
BRANCH   9   6
ATOM      3  C   UNL     1      -0.575   3.606  25.103  0.00  0.00    +0.139 A 
ATOM      4  C   UNL     1      -0.685   3.195  25.810  0.00  0.00    +0.037 A 
ATOM      5  C   UNL     1      -0.753   2.373  25.802  0.00  0.00    +0.006 A 
ATOM      6  C   UNL     1      -0.712   1.961  25.088  0.00  0.00    +0.037 A 
ATOM      7  C   UNL     1      -0.602   2.373  24.381  0.00  0.00    +0.006 A 
ATOM      8  C   UNL     1      -0.534   3.195  24.389  0.00  0.00    +0.037 A 
BRANCH   3   2
ATOM      1  C   UNL     1      -1.182   4.899  25.076  0.00  0.00    +0.252 C 
ATOM      2  O   UNL     1      -0.506   4.428  25.110  0.00  0.00    -0.471 OA
ENDBRANCH   3   2
ENDBRANCH   9   6
ENDBRANCH  12  11
ENDBRANCH  13  12
BRANCH  18  19
ATOM     19  C   UNL     1      -4.316  -0.159  24.815  0.00  0.00    +0.147 C 
BRANCH  19  20
ATOM     20  N   UNL     1      -4.185   0.655  24.788  0.00  0.00    -0.199 NA
ATOM     21  C   UNL     1      -4.818   1.178  24.866  0.00  0.00    +0.265 C 
ATOM     22  O   UNL     1      -5.582   0.887  24.970  0.00  0.00    -0.268 OA
BRANCH  21  23
ATOM     23  C   UNL     1      -4.685   1.992  24.839  0.00  0.00    +0.055 A 
ATOM     24  C   UNL     1      -4.849   2.458  25.500  0.00  0.00    +0.005 A 
ATOM     25  C   UNL     1      -4.718   3.272  25.474  0.00  0.00    +0.000 A 
ATOM     26  C   UNL     1      -4.421   3.619  24.787  0.00  0.00    +0.000 A 
ATOM     27  C   UNL     1      -4.257   3.154  24.126  0.00  0.00    +0.000 A 
ATOM     28  C   UNL     1      -4.390   2.339  24.153  0.00  0.00    +0.005 A 
ENDBRANCH  21  23
ENDBRANCH  19  20
ENDBRANCH  18  19
TORSDOF 7
ENDMDL
MODEL 3
REMARK VINA RESULT:     -12.2      1.361      3.453
REMARK  Name = 
REMARK  7 active torsions:
REMARK  status: ('A' for Active; 'I' for Inactive)
REMARK    1  A    between atoms: O_2  and  C_3
REMARK    2  A    between atoms: C_6  and  C_9
REMARK    3  A    between atoms: C_11  and  C_12
REMARK    4  A    between atoms: C_12  and  C_13
REMARK    5  A    between atoms: C_18  and  C_19
REMARK    6  A    between atoms: C_19  and  N_20
REMARK    7  A    between atoms: C_21  and  C_23
REMARK                            x       y       z     vdW  Elec       q    Type
REMARK                         _______ _______ _______ _____ _____    ______ ____
ROOT
ATOM     13  C   UNL     1      -3.546   2.991  24.720  0.00  0.00    +0.121 C 
ATOM     14  C   UNL     1      -3.676   3.685  25.145  0.00  0.00    +0.033 C 
ATOM     15  C   UNL     1      -3.037   4.102  25.460  0.00  0.00    +0.038 C 
ATOM     16  C   UNL     1      -2.268   3.823  25.350  0.00  0.00    +0.181 C 
ATOM     17  O   UNL     1      -1.629   4.238  25.664  0.00  0.00    -0.220 OA
ATOM     18  C   UNL     1      -2.139   3.127  24.924  0.00  0.00    +0.167 C 
ATOM     29  O   UNL     1      -2.777   2.711  24.609  0.00  0.00    -0.354 OA
ENDROOT
BRANCH  13  12
ATOM     12  C   UNL     1      -4.185   2.574  24.405  0.00  0.00    +0.079 C 
BRANCH  12  11
ATOM      9  C   UNL     1      -4.360   0.489  24.829  0.00  0.00    +0.177 A 
ATOM     10  C   UNL     1      -4.033   1.112  24.396  0.00  0.00    +0.058 A 
ATOM     11  C   UNL     1      -4.357   1.815  24.679  0.00  0.00    +0.103 A 
ATOM     30  N   UNL     1      -4.883   1.628  25.287  0.00  0.00    -0.081 NA
ATOM     31  O   UNL     1      -4.885   0.808  25.379  0.00  0.00    -0.354 OA
BRANCH   9   6
ATOM      3  C   UNL     1      -3.851  -1.914  24.528  0.00  0.00    +0.139 A 
ATOM      4  C   UNL     1      -3.724  -1.555  25.259  0.00  0.00    +0.037 A 
ATOM      5  C   UNL     1      -3.894  -0.754  25.360  0.00  0.00    +0.006 A 
ATOM      6  C   UNL     1      -4.190  -0.312  24.728  0.00  0.00    +0.037 A 
ATOM      7  C   UNL     1      -4.317  -0.673  23.997  0.00  0.00    +0.006 A 
ATOM      8  C   UNL     1      -4.148  -1.474  23.897  0.00  0.00    +0.037 A 
BRANCH   3   2
ATOM      1  C   UNL     1      -2.930  -3.004  24.606  0.00  0.00    +0.252 C 
ATOM      2  O   UNL     1      -3.682  -2.716  24.427  0.00  0.00    -0.471 OA
ENDBRANCH   3   2
ENDBRANCH   9   6
ENDBRANCH  12  11
ENDBRANCH  13  12
BRANCH  18  19
ATOM     19  C   UNL     1      -1.370   2.849  24.814  0.00  0.00    +0.147 C 
BRANCH  19  20
ATOM     20  N   UNL     1      -1.240   2.052  24.645  0.00  0.00    -0.199 NA
ATOM     21  C   UNL     1      -0.471   1.771  24.544  0.00  0.00    +0.265 C 
ATOM     22  O   UNL     1       0.168   2.287  24.612  0.00  0.00    -0.268 OA
BRANCH  21  23
ATOM     23  C   UNL     1      -0.342   0.974  24.375  0.00  0.00    +0.055 A 
ATOM     24  C   UNL     1      -0.482   0.402  24.953  0.00  0.00    +0.005 A 
ATOM     25  C   UNL     1      -0.353  -0.395  24.785  0.00  0.00    +0.000 A 
ATOM     26  C   UNL     1      -0.084  -0.621  24.038  0.00  0.00    +0.000 A 
ATOM     27  C   UNL     1       0.055  -0.049  23.460  0.00  0.00    +0.000 A 
ATOM     28  C   UNL     1      -0.074   0.748  23.629  0.00  0.00    +0.005 A 
ENDBRANCH  21  23
ENDBRANCH  19  20
ENDBRANCH  18  19
TORSDOF 7
ENDMDL
MODEL 4
REMARK VINA RESULT:     -12.1      1.396      4.419
REMARK  Name = 
REMARK  7 active torsions:
REMARK  status: ('A' for Active; 'I' for Inactive)
REMARK    1  A    between atoms: O_2  and  C_3
REMARK    2  A    between atoms: C_6  and  C_9
REMARK    3  A    between atoms: C_11  and  C_12
REMARK    4  A    between atoms: C_12  and  C_13
REMARK    5  A    between atoms: C_18  and  C_19
REMARK    6  A    between atoms: C_19  and  N_20
REMARK    7  A    between atoms: C_21  and  C_23
REMARK                            x       y       z     vdW  Elec       q    Type
REMARK                         _______ _______ _______ _____ _____    ______ ____
ROOT
ATOM     13  C   UNL     1      -2.111  -1.058  25.077  0.00  0.00    +0.121 C 
ATOM     14  C   UNL     1      -1.791  -1.707  24.683  0.00  0.00    +0.033 C 
ATOM     15  C   UNL     1      -1.035  -1.659  24.355  0.00  0.00    +0.038 C 
ATOM     16  C   UNL     1      -0.600  -0.961  24.423  0.00  0.00    +0.181 C 
ATOM     17  O   UNL     1       0.156  -0.912  24.096  0.00  0.00    -0.220 OA
ATOM     18  C   UNL     1      -0.921  -0.311  24.818  0.00  0.00    +0.167 C 
ATOM     29  O   UNL     1      -1.677  -0.360  25.145  0.00  0.00    -0.354 OA
ENDROOT
BRANCH  13  12
ATOM     12  C   UNL     1      -2.868  -1.106  25.404  0.00  0.00    +0.079 C 
BRANCH  12  11
ATOM      9  C   UNL     1      -4.322   0.379  24.918  0.00  0.00    +0.177 A 
ATOM     10  C   UNL     1      -3.687   0.114  25.374  0.00  0.00    +0.058 A 
ATOM     11  C   UNL     1      -3.476  -0.636  25.105  0.00  0.00    +0.103 A 
ATOM     30  N   UNL     1      -3.980  -0.835  24.483  0.00  0.00    -0.081 NA
ATOM     31  O   UNL     1      -4.502  -0.208  24.368  0.00  0.00    -0.354 OA
BRANCH   9   6
ATOM      3  C   UNL     1      -5.479   2.553  25.161  0.00  0.00    +0.139 A 
ATOM      4  C   UNL     1      -4.871   2.469  24.609  0.00  0.00    +0.037 A 
ATOM      5  C   UNL     1      -4.485   1.745  24.528  0.00  0.00    +0.006 A 
ATOM      6  C   UNL     1      -4.707   1.104  24.999  0.00  0.00    +0.037 A 
ATOM      7  C   UNL     1      -5.315   1.189  25.550  0.00  0.00    +0.006 A 
ATOM      8  C   UNL     1      -5.701   1.914  25.631  0.00  0.00    +0.037 A 
BRANCH   3   2
ATOM      1  C   UNL     1      -5.463   3.927  25.555  0.00  0.00    +0.252 C 
ATOM      2  O   UNL     1      -5.864   3.278  25.241  0.00  0.00    -0.471 OA
ENDBRANCH   3   2
ENDBRANCH   9   6
ENDBRANCH  12  11
ENDBRANCH  13  12
BRANCH  18  19
ATOM     19  C   UNL     1      -0.487   0.386  24.885  0.00  0.00    +0.147 C 
BRANCH  19  20
ATOM     20  N   UNL     1      -0.875   1.106  24.993  0.00  0.00    -0.199 NA
ATOM     21  C   UNL     1      -0.440   1.800  25.088  0.00  0.00    +0.265 C 
ATOM     22  O   UNL     1       0.384   1.775  25.075  0.00  0.00    -0.268 OA
BRANCH  21  23
ATOM     23  C   UNL     1      -0.829   2.520  25.196  0.00  0.00    +0.055 A 
ATOM     24  C   UNL     1      -0.920   3.039  24.561  0.00  0.00    +0.005 A 
ATOM     25  C   UNL     1      -1.309   3.758  24.669  0.00  0.00    +0.000 A 
ATOM     26  C   UNL     1      -1.608   3.958  25.412  0.00  0.00    +0.000 A 
ATOM     27  C   UNL     1      -1.517   3.439  26.047  0.00  0.00    +0.000 A 
ATOM     28  C   UNL     1      -1.128   2.720  25.938  0.00  0.00    +0.005 A 
ENDBRANCH  21  23
ENDBRANCH  19  20
ENDBRANCH  18  19
TORSDOF 7
ENDMDL
MODEL 5
REMARK VINA RESULT:     -11.9      1.256      3.421
REMARK  Name = 
REMARK  7 active torsions:
REMARK  status: ('A' for Active; 'I' for Inactive)
REMARK    1  A    between atoms: O_2  and  C_3
REMARK    2  A    between atoms: C_6  and  C_9
REMARK    3  A    between atoms: C_11  and  C_12
REMARK    4  A    between atoms: C_12  and  C_13
REMARK    5  A    between atoms: C_18  and  C_19
REMARK    6  A    between atoms: C_19  and  N_20
REMARK    7  A    between atoms: C_21  and  C_23
REMARK                            x       y       z     vdW  Elec       q    Type
REMARK                         _______ _______ _______ _____ _____    ______ ____
ROOT
ATOM     13  C   UNL     1      -4.866   2.042  24.822  0.00  0.00    +0.121 C 
ATOM     14  C   UNL     1      -5.554   2.376  25.128  0.00  0.00    +0.033 C 
ATOM     15  C   UNL     1      -5.528   3.118  25.489  0.00  0.00    +0.038 C 
ATOM     16  C   UNL     1      -4.811   3.525  25.543  0.00  0.00    +0.181 C 
ATOM     17  O   UNL     1      -4.784   4.266  25.903  0.00  0.00    -0.220 OA
ATOM     18  C   UNL     1      -4.122   3.189  25.236  0.00  0.00    +0.167 C 
ATOM     29  O   UNL     1      -4.149   2.448  24.876  0.00  0.00    -0.354 OA
ENDROOT
BRANCH  13  12
ATOM     12  C   UNL     1      -4.892   1.300  24.461  0.00  0.00    +0.079 C 
BRANCH  12  11
ATOM      9  C   UNL     1      -3.634  -0.302  25.099  0.00  0.00    +0.177 A 
ATOM     10  C   UNL     1      -3.795   0.331  24.595  0.00  0.00    +0.058 A 
ATOM     11  C   UNL     1      -4.519   0.656  24.817  0.00  0.00    +0.103 A 
ATOM     30  N   UNL     1      -4.806   0.224  25.458  0.00  0.00    -0.081 NA
ATOM     31  O   UNL     1      -4.259  -0.367  25.633  0.00  0.00    -0.354 OA
BRANCH   9   6
ATOM      3  C   UNL     1      -1.627  -1.748  25.024  0.00  0.00    +0.139 A 
ATOM      4  C   UNL     1      -1.598  -1.024  25.419  0.00  0.00    +0.037 A 
ATOM      5  C   UNL     1      -2.267  -0.542  25.444  0.00  0.00    +0.006 A 
ATOM      6  C   UNL     1      -2.965  -0.784  25.074  0.00  0.00    +0.037 A 
ATOM      7  C   UNL     1      -2.992  -1.508  24.680  0.00  0.00    +0.006 A 
ATOM      8  C   UNL     1      -2.323  -1.990  24.654  0.00  0.00    +0.037 A 
BRANCH   3   2
ATOM      1  C   UNL     1      -0.210  -1.906  25.128  0.00  0.00    +0.252 C 
ATOM      2  O   UNL     1      -0.958  -2.230  24.999  0.00  0.00    -0.471 OA
ENDBRANCH   3   2
ENDBRANCH   9   6
ENDBRANCH  12  11
ENDBRANCH  13  12
BRANCH  18  19
ATOM     19  C   UNL     1      -3.407   3.596  25.290  0.00  0.00    +0.147 C 
BRANCH  19  20
ATOM     20  N   UNL     1      -2.697   3.178  25.336  0.00  0.00    -0.199 NA
ATOM     21  C   UNL     1      -1.978   3.583  25.328  0.00  0.00    +0.265 C 
ATOM     22  O   UNL     1      -1.969   4.405  25.274  0.00  0.00    -0.268 OA
BRANCH  21  23
ATOM     23  C   UNL     1      -1.269   3.164  25.373  0.00  0.00    +0.055 A 
ATOM     24  C   UNL     1      -0.957   2.960  26.109  0.00  0.00    +0.005 A 
ATOM     25  C   UNL     1      -0.248   2.541  26.155  0.00  0.00    +0.000 A 
ATOM     26  C   UNL     1       0.150   2.326  25.465  0.00  0.00    +0.000 A 
ATOM     27  C   UNL     1      -0.162   2.530  24.729  0.00  0.00    +0.000 A 
ATOM     28  C   UNL     1      -0.871   2.949  24.683  0.00  0.00    +0.005 A 
ENDBRANCH  21  23
ENDBRANCH  19  20
ENDBRANCH  18  19
TORSDOF 7
ENDMDL
MODEL 6
REMARK VINA RESULT:     -11.8      1.262      4.292
REMARK  Name = 
REMARK  7 active torsions:
REMARK  status: ('A' for Active; 'I' for Inactive)
REMARK    1  A    between atoms: O_2  and  C_3
REMARK    2  A    between atoms: C_6  and  C_9
REMARK    3  A    between atoms: C_11  and  C_12
REMARK    4  A    between atoms: C_12  and  C_13
REMARK    5  A    between atoms: C_18  and  C_19
REMARK    6  A    between atoms: C_19  and  N_20
REMARK    7  A    between atoms: C_21  and  C_23
REMARK                            x       y       z     vdW  Elec       q    Type
REMARK                         _______ _______ _______ _____ _____    ______ ____
ROOT
ATOM     13  C   UNL     1      -0.277   1.678  24.761  0.00  0.00    +0.121 C 
ATOM     14  C   UNL     1       0.259   1.862  24.162  0.00  0.00    +0.033 C 
ATOM     15  C   UNL     1       0.569   1.263  23.687  0.00  0.00    +0.038 C 
ATOM     16  C   UNL     1       0.342   0.479  23.811  0.00  0.00    +0.181 C 
ATOM     17  O   UNL     1       0.652  -0.120  23.337  0.00  0.00    -0.220 OA
ATOM     18  C   UNL     1      -0.195   0.295  24.411  0.00  0.00    +0.167 C 
ATOM     29  O   UNL     1      -0.504   0.894  24.885  0.00  0.00    -0.354 OA
ENDROOT
BRANCH  13  12
ATOM     12  C   UNL     1      -0.588   2.277  25.236  0.00  0.00    +0.079 C 
BRANCH  12  11
ATOM      9  C   UNL     1      -2.608   2.886  24.916  0.00  0.00    +0.177 A 
ATOM     10  C   UNL     1      -2.055   2.361  25.232  0.00  0.00    +0.058 A 
ATOM     11  C   UNL     1      -1.303   2.634  25.033  0.00  0.00    +0.103 A 
ATOM     30  N   UNL     1      -1.391   3.327  24.595  0.00  0.00    -0.081 NA
ATOM     31  O   UNL     1      -2.197   3.483  24.522  0.00  0.00    -0.354 OA
BRANCH   9   6
ATOM      3  C   UNL     1      -5.068   2.702  25.116  0.00  0.00    +0.139 A 
ATOM      4  C   UNL     1      -4.650   2.155  24.661  0.00  0.00    +0.037 A 
ATOM      5  C   UNL     1      -3.830   2.217  24.595  0.00  0.00    +0.006 A 
ATOM      6  C   UNL     1      -3.428   2.825  24.983  0.00  0.00    +0.037 A 
ATOM      7  C   UNL     1      -3.848   3.370  25.438  0.00  0.00    +0.006 A 
ATOM      8  C   UNL     1      -4.668   3.309  25.504  0.00  0.00    +0.037 A 
BRANCH   3   2
ATOM      1  C   UNL     1      -6.245   1.897  25.219  0.00  0.00    +0.252 C 
ATOM      2  O   UNL     1      -5.888   2.640  25.183  0.00  0.00    -0.471 OA
ENDBRANCH   3   2
ENDBRANCH   9   6
ENDBRANCH  12  11
ENDBRANCH  13  12
BRANCH  18  19
ATOM     19  C   UNL     1      -0.421  -0.488  24.535  0.00  0.00    +0.147 C 
BRANCH  19  20
ATOM     20  N   UNL     1      -1.221  -0.687  24.567  0.00  0.00    -0.199 NA
ATOM     21  C   UNL     1      -1.453  -1.419  24.868  0.00  0.00    +0.265 C 
ATOM     22  O   UNL     1      -0.885  -1.953  25.138  0.00  0.00    -0.268 OA
BRANCH  21  23
ATOM     23  C   UNL     1      -2.254  -1.616  24.899  0.00  0.00    +0.055 A 
ATOM     24  C   UNL     1      -2.554  -2.201  24.400  0.00  0.00    +0.005 A 
ATOM     25  C   UNL     1      -3.354  -2.399  24.431  0.00  0.00    +0.000 A 
ATOM     26  C   UNL     1      -3.854  -2.012  24.962  0.00  0.00    +0.000 A 
ATOM     27  C   UNL     1      -3.554  -1.428  25.461  0.00  0.00    +0.000 A 
ATOM     28  C   UNL     1      -2.753  -1.230  25.429  0.00  0.00    +0.005 A 
ENDBRANCH  21  23
ENDBRANCH  19  20
ENDBRANCH  18  19
TORSDOF 7
ENDMDL
MODEL 7
REMARK VINA RESULT:     -11.6      1.402      4.381
REMARK  Name = 
REMARK  7 active torsions:
REMARK  status: ('A' for Active; 'I' for Inactive)
REMARK    1  A    between atoms: O_2  and  C_3
REMARK    2  A    between atoms: C_6  and  C_9
REMARK    3  A    between atoms: C_11  and  C_12
REMARK    4  A    between atoms: C_12  and  C_13
REMARK    5  A    between atoms: C_18  and  C_19
REMARK    6  A    between atoms: C_19  and  N_20
REMARK    7  A    between atoms: C_21  and  C_23
REMARK                            x       y       z     vdW  Elec       q    Type
REMARK                         _______ _______ _______ _____ _____    ______ ____
ROOT
ATOM     13  C   UNL     1      -4.641   3.265  25.160  0.00  0.00    +0.121 C 
ATOM     14  C   UNL     1      -5.294   3.518  25.593  0.00  0.00    +0.033 C 
ATOM     15  C   UNL     1      -5.879   2.978  25.814  0.00  0.00    +0.038 C 
ATOM     16  C   UNL     1      -5.808   2.184  25.599  0.00  0.00    +0.181 C 
ATOM     17  O   UNL     1      -6.391   1.645  25.819  0.00  0.00    -0.220 OA
ATOM     18  C   UNL     1      -5.154   1.931  25.165  0.00  0.00    +0.167 C 
ATOM     29  O   UNL     1      -4.570   2.471  24.945  0.00  0.00    -0.354 OA
ENDROOT
BRANCH  13  12
ATOM     12  C   UNL     1      -4.057   3.804  24.939  0.00  0.00    +0.079 C 
BRANCH  12  11
ATOM      9  C   UNL     1      -2.011   3.325  25.315  0.00  0.00    +0.177 A 
ATOM     10  C   UNL     1      -2.692   3.266  24.851  0.00  0.00    +0.058 A 
ATOM     11  C   UNL     1      -3.285   3.710  25.214  0.00  0.00    +0.103 A 
ATOM     30  N   UNL     1      -2.971   4.042  25.901  0.00  0.00    -0.081 NA
ATOM     31  O   UNL     1      -2.184   3.804  25.963  0.00  0.00    -0.354 OA
BRANCH   9   6
ATOM      3  C   UNL     1       0.168   2.250  24.840  0.00  0.00    +0.139 A 
ATOM      4  C   UNL     1      -0.191   2.148  25.577  0.00  0.00    +0.037 A 
ATOM      5  C   UNL     1      -0.917   2.506  25.735  0.00  0.00    +0.006 A 
ATOM      6  C   UNL     1      -1.285   2.967  25.156  0.00  0.00    +0.037 A 
ATOM      7  C   UNL     1      -0.926   3.068  24.421  0.00  0.00    +0.006 A 
ATOM      8  C   UNL     1      -0.200   2.710  24.263  0.00  0.00    +0.037 A 
BRANCH   3   2
ATOM      1  C   UNL     1       0.960   1.348  24.066  0.00  0.00    +0.252 C 
ATOM      2  O   UNL     1       0.894   1.892  24.682  0.00  0.00    -0.471 OA
ENDBRANCH   3   2
ENDBRANCH   9   6
ENDBRANCH  12  11
ENDBRANCH  13  12
BRANCH  18  19
ATOM     19  C   UNL     1      -5.083   1.137  24.951  0.00  0.00    +0.147 C 
BRANCH  19  20
ATOM     20  N   UNL     1      -4.391   0.723  25.124  0.00  0.00    -0.199 NA
ATOM     21  C   UNL     1      -4.255  -0.014  24.779  0.00  0.00    +0.265 C 
ATOM     22  O   UNL     1      -4.810  -0.337  24.262  0.00  0.00    -0.268 OA
BRANCH  21  23
ATOM     23  C   UNL     1      -3.562  -0.428  24.953  0.00  0.00    +0.055 A 
ATOM     24  C   UNL     1      -3.512  -0.877  25.642  0.00  0.00    +0.005 A 
ATOM     25  C   UNL     1      -2.820  -1.291  25.816  0.00  0.00    +0.000 A 
ATOM     26  C   UNL     1      -2.177  -1.255  25.299  0.00  0.00    +0.000 A 
ATOM     27  C   UNL     1      -2.227  -0.806  24.609  0.00  0.00    +0.000 A 
ATOM     28  C   UNL     1      -2.920  -0.392  24.436  0.00  0.00    +0.005 A 
ENDBRANCH  21  23
ENDBRANCH  19  20
ENDBRANCH  18  19
TORSDOF 7
ENDMDL
