MODEL 1
REMARK VINA RESULT:      -9.4      0.000      0.000
REMARK  Name = 
REMARK  7 active torsions:
REMARK  status: ('A' for Active; 'I' for Inactive)
REMARK    1  A    between atoms: C_2  and  C_4
REMARK    2  A    between atoms: C_4  and  S_5
REMARK    3  A    between atoms: S_5  and  C_6
REMARK    4  A    between atoms: C_6  and  C_7
REMARK    5  A    between atoms: N_9  and  C_10
REMARK    6  A    between atoms: C_14  and  N_18
REMARK    7  A    between atoms: C_21  and  C_25
REMARK                            x       y       z     vdW  Elec       q    Type
REMARK                         _______ _______ _______ _____ _____    ______ ____
ROOT
ATOM     10  C   UNL     1       0.909   0.856  23.557  0.00  0.00    +0.154 C 
ATOM     11  C   UNL     1       0.472   0.172  23.412  0.00  0.00    +0.166 C 
ATOM     12  O   UNL     1      -0.272   0.268  23.757  0.00  0.00    -0.350 OA
ATOM     13  C   UNL     1      -0.293   1.011  24.116  0.00  0.00    +0.166 C 
ATOM     14  C   UNL     1      -0.766   1.529  24.551  0.00  0.00    +0.154 C 
ATOM     15  C   UNL     1      -0.326   2.213  24.696  0.00  0.00    +0.166 C 
ATOM     16  O   UNL     1       0.417   2.117  24.350  0.00  0.00    -0.350 OA
ATOM     17  C   UNL     1       0.437   1.374  23.992  0.00  0.00    +0.166 C 
ENDROOT
BRANCH  14  18
ATOM     18  N   UNL     1      -1.540   1.388  24.798  0.00  0.00    -0.200 NA
ATOM     19  C   UNL     1      -2.133   1.933  24.624  0.00  0.00    +0.237 A 
ATOM     20  N   UNL     1      -2.908   1.793  24.871  0.00  0.00    -0.212 NA
ATOM     21  C   UNL     1      -3.502   2.338  24.697  0.00  0.00    +0.086 A 
ATOM     22  C   UNL     1      -3.321   3.024  24.276  0.00  0.00    +0.040 A 
ATOM     23  C   UNL     1      -2.547   3.166  24.029  0.00  0.00    +0.103 A 
ATOM     24  N   UNL     1      -1.953   2.620  24.203  0.00  0.00    -0.211 NA
BRANCH  21  25
ATOM     25  C   UNL     1      -4.277   2.198  24.943  0.00  0.00    +0.018 A 
ATOM     26  C   UNL     1      -4.664   1.507  24.712  0.00  0.00    +0.001 A 
ATOM     27  C   UNL     1      -5.439   1.366  24.958  0.00  0.00    +0.000 A 
ATOM     28  C   UNL     1      -5.826   1.916  25.436  0.00  0.00    +0.000 A 
ATOM     29  C   UNL     1      -5.439   2.607  25.667  0.00  0.00    +0.000 A 
ATOM     30  C   UNL     1      -4.664   2.747  25.421  0.00  0.00    +0.001 A 
ENDBRANCH  21  25
ENDBRANCH  14  18
BRANCH  10   9
ATOM      7  C   UNL     1       2.084   0.430  22.864  0.00  0.00    +0.252 C 
ATOM      8  O   UNL     1       1.710  -0.278  22.664  0.00  0.00    -0.272 OA
ATOM      9  N   UNL     1       1.684   0.997  23.311  0.00  0.00    -0.201 NA
BRANCH   7   6
ATOM      6  C   UNL     1       2.859   0.571  22.618  0.00  0.00    +0.145 C 
BRANCH   6   5
ATOM      5  S   UNL     1       3.491   0.255  23.044  0.00  0.00    -0.119 S 
BRANCH   5   4
ATOM      4  C   UNL     1       4.265   0.462  22.847  0.00  0.00    +0.172 C 
BRANCH   4   2
ATOM      1  O   UNL     1       5.244   0.860  23.809  0.00  0.00    -0.245 OA
ATOM      2  C   UNL     1       4.885   0.270  23.357  0.00  0.00    +0.376 C 
ATOM      3  O   UNL     1       5.146  -0.510  23.415  0.00  0.00    -0.245 OA
ENDBRANCH   4   2
ENDBRANCH   5   4
ENDBRANCH   6   5
ENDBRANCH   7   6
ENDBRANCH  10   9
TORSDOF 7
ENDMDL
MODEL 2
REMARK VINA RESULT:      -8.5      1.635      2.113
REMARK  Name = 
REMARK  7 active torsions:
REMARK  status: ('A' for Active; 'I' for Inactive)
REMARK    1  A    between atoms: C_2  and  C_4
REMARK    2  A    between atoms: C_4  and  S_5
REMARK    3  A    between atoms: S_5  and  C_6
REMARK    4  A    between atoms: C_6  and  C_7
REMARK    5  A    between atoms: N_9  and  C_10
REMARK    6  A    between atoms: C_14  and  N_18
REMARK    7  A    between atoms: C_21  and  C_25
REMARK                            x       y       z     vdW  Elec       q    Type
REMARK                         _______ _______ _______ _____ _____    ______ ____
ROOT
ATOM     10  C   UNL     1       1.856   0.692  23.191  0.00  0.00    +0.154 C 
ATOM     11  C   UNL     1       1.556   0.137  22.662  0.00  0.00    +0.166 C 
ATOM     12  O   UNL     1       0.736   0.116  22.751  0.00  0.00    -0.350 OA
ATOM     13  C   UNL     1       0.530   0.659  23.338  0.00  0.00    +0.166 C 
ATOM     14  C   UNL     1      -0.105   0.982  23.755  0.00  0.00    +0.154 C 
ATOM     15  C   UNL     1       0.197   1.538  24.286  0.00  0.00    +0.166 C 
ATOM     16  O   UNL     1       1.017   1.559  24.195  0.00  0.00    -0.350 OA
ATOM     17  C   UNL     1       1.222   1.016  23.610  0.00  0.00    +0.166 C 
ENDROOT
BRANCH  14  18
ATOM     18  N   UNL     1      -0.899   0.784  23.660  0.00  0.00    -0.200 NA
ATOM     19  C   UNL     1      -1.305   0.404  24.268  0.00  0.00    +0.237 A 
ATOM     20  N   UNL     1      -2.101   0.206  24.174  0.00  0.00    -0.212 NA
ATOM     21  C   UNL     1      -2.507  -0.174  24.782  0.00  0.00    +0.086 A 
ATOM     22  C   UNL     1      -2.118  -0.356  25.486  0.00  0.00    +0.040 A 
ATOM     23  C   UNL     1      -1.323  -0.159  25.583  0.00  0.00    +0.103 A 
ATOM     24  N   UNL     1      -0.917   0.222  24.973  0.00  0.00    -0.211 NA
BRANCH  21  25
ATOM     25  C   UNL     1      -3.302  -0.372  24.687  0.00  0.00    +0.018 A 
ATOM     26  C   UNL     1      -3.890   0.152  24.932  0.00  0.00    +0.001 A 
ATOM     27  C   UNL     1      -4.685  -0.045  24.838  0.00  0.00    +0.000 A 
ATOM     28  C   UNL     1      -4.893  -0.768  24.498  0.00  0.00    +0.000 A 
ATOM     29  C   UNL     1      -4.306  -1.292  24.252  0.00  0.00    +0.000 A 
ATOM     30  C   UNL     1      -3.510  -1.094  24.347  0.00  0.00    +0.001 A 
ENDBRANCH  21  25
ENDBRANCH  14  18
BRANCH  10   9
ATOM      7  C   UNL     1       3.207   0.646  22.728  0.00  0.00    +0.252 C 
ATOM      8  O   UNL     1       2.968   0.204  22.074  0.00  0.00    -0.272 OA
ATOM      9  N   UNL     1       2.651   0.891  23.287  0.00  0.00    -0.201 NA
BRANCH   7   6
ATOM      6  C   UNL     1       4.002   0.845  22.824  0.00  0.00    +0.145 C 
BRANCH   6   5
ATOM      5  S   UNL     1       4.548   0.266  23.047  0.00  0.00    -0.119 S 
BRANCH   5   4
ATOM      4  C   UNL     1       5.224   0.479  23.468  0.00  0.00    +0.172 C 
BRANCH   4   2
ATOM      1  O   UNL     1       6.409  -0.294  23.263  0.00  0.00    -0.245 OA
ATOM      2  C   UNL     1       5.751  -0.104  23.723  0.00  0.00    +0.376 C 
ATOM      3  O   UNL     1       5.619  -0.495  24.437  0.00  0.00    -0.245 OA
ENDBRANCH   4   2
ENDBRANCH   5   4
ENDBRANCH   6   5
ENDBRANCH   7   6
ENDBRANCH  10   9
TORSDOF 7
ENDMDL
MODEL 3
REMARK VINA RESULT:      -7.9      2.456      7.044
REMARK  Name = 
REMARK  7 active torsions:
REMARK  status: ('A' for Active; 'I' for Inactive)
REMARK    1  A    between atoms: C_2  and  C_4
REMARK    2  A    between atoms: C_4  and  S_5
REMARK    3  A    between atoms: S_5  and  C_6
REMARK    4  A    between atoms: C_6  and  C_7
REMARK    5  A    between atoms: N_9  and  C_10
REMARK    6  A    between atoms: C_14  and  N_18
REMARK    7  A    between atoms: C_21  and  C_25
REMARK                            x       y       z     vdW  Elec       q    Type
REMARK                         _______ _______ _______ _____ _____    ______ ____
ROOT
ATOM     10  C   UNL     1      -1.820   2.113  23.940  0.00  0.00    +0.154 C 
ATOM     11  C   UNL     1      -1.358   2.794  23.994  0.00  0.00    +0.166 C 
ATOM     12  O   UNL     1      -0.566   2.564  24.022  0.00  0.00    -0.350 OA
ATOM     13  C   UNL     1      -0.539   1.740  23.986  0.00  0.00    +0.166 C 
ATOM     14  C   UNL     1      -0.032   1.088  23.981  0.00  0.00    +0.154 C 
ATOM     15  C   UNL     1      -0.495   0.407  23.927  0.00  0.00    +0.166 C 
ATOM     16  O   UNL     1      -1.287   0.638  23.899  0.00  0.00    -0.350 OA
ATOM     17  C   UNL     1      -1.314   1.461  23.935  0.00  0.00    +0.166 C 
ENDROOT
BRANCH  14  18
ATOM     18  N   UNL     1       0.791   1.113  24.022  0.00  0.00    -0.200 NA
ATOM     19  C   UNL     1       1.244   0.696  23.475  0.00  0.00    +0.237 A 
ATOM     20  N   UNL     1       2.068   0.720  23.515  0.00  0.00    -0.212 NA
ATOM     21  C   UNL     1       2.521   0.303  22.968  0.00  0.00    +0.086 A 
ATOM     22  C   UNL     1       2.151  -0.141  22.379  0.00  0.00    +0.040 A 
ATOM     23  C   UNL     1       1.328  -0.166  22.337  0.00  0.00    +0.103 A 
ATOM     24  N   UNL     1       0.874   0.252  22.885  0.00  0.00    -0.211 NA
BRANCH  21  25
ATOM     25  C   UNL     1       3.345   0.327  23.009  0.00  0.00    +0.018 A 
ATOM     26  C   UNL     1       3.759  -0.297  23.353  0.00  0.00    +0.001 A 
ATOM     27  C   UNL     1       4.583  -0.274  23.395  0.00  0.00    +0.000 A 
ATOM     28  C   UNL     1       4.992   0.376  23.091  0.00  0.00    +0.000 A 
ATOM     29  C   UNL     1       4.578   1.001  22.747  0.00  0.00    +0.000 A 
ATOM     30  C   UNL     1       3.754   0.976  22.706  0.00  0.00    +0.001 A 
ENDBRANCH  21  25
ENDBRANCH  14  18
BRANCH  10   9
ATOM      7  C   UNL     1      -3.095   2.597  24.366  0.00  0.00    +0.252 C 
ATOM      8  O   UNL     1      -2.724   3.131  24.873  0.00  0.00    -0.272 OA
ATOM      9  N   UNL     1      -2.643   2.087  23.899  0.00  0.00    -0.201 NA
BRANCH   7   6
ATOM      6  C   UNL     1      -3.919   2.571  24.324  0.00  0.00    +0.145 C 
BRANCH   6   5
ATOM      5  S   UNL     1      -4.369   2.658  25.011  0.00  0.00    -0.119 S 
BRANCH   5   4
ATOM      4  C   UNL     1      -5.191   2.603  24.974  0.00  0.00    +0.172 C 
BRANCH   4   2
ATOM      1  O   UNL     1      -5.921   1.850  25.945  0.00  0.00    -0.245 OA
ATOM      2  C   UNL     1      -5.633   2.573  25.671  0.00  0.00    +0.376 C 
ATOM      3  O   UNL     1      -5.788   3.265  26.092  0.00  0.00    -0.245 OA
ENDBRANCH   4   2
ENDBRANCH   5   4
ENDBRANCH   6   5
ENDBRANCH   7   6
ENDBRANCH  10   9
TORSDOF 7
ENDMDL
