MODEL 1
REMARK VINA RESULT:     -10.4      0.000      0.000
REMARK  Name = 
REMARK  5 active torsions:
REMARK  status: ('A' for Active; 'I' for Inactive)
REMARK    1  A    between atoms: C_2  and  N_4
REMARK    2  A    between atoms: C_5  and  C_6
REMARK    3  A    between atoms: C_8  and  C_13
REMARK    4  A    between atoms: C_16  and  N_17
REMARK    5  A    between atoms: C_18  and  C_20
REMARK                            x       y       z     vdW  Elec       q    Type
REMARK                         _______ _______ _______ _____ _____    ______ ____
ROOT
ATOM     13  C   UNL     1      -3.488   0.302  24.347  0.00  0.00    +0.006 A 
ATOM     14  C   UNL     1      -2.925   0.663  23.864  0.00  0.00    -0.001 A 
ATOM     15  C   UNL     1      -2.742   1.460  23.969  0.00  0.00    +0.016 A 
ATOM     16  C   UNL     1      -3.123   1.897  24.557  0.00  0.00    +0.074 A 
ATOM     26  C   UNL     1      -3.686   1.536  25.039  0.00  0.00    +0.016 A 
ATOM     27  C   UNL     1      -3.869   0.738  24.934  0.00  0.00    -0.001 A 
ENDROOT
BRANCH  13   8
ATOM      4  N   UNL     1      -3.373  -1.875  24.474  0.00  0.00    -0.275 N 
ATOM      5  C   UNL     1      -3.191  -1.077  24.579  0.00  0.00    +0.139 C 
ATOM      8  C   UNL     1      -3.671  -0.496  24.242  0.00  0.00    +0.159 C 
ATOM      9  O   UNL     1      -4.332  -0.713  23.801  0.00  0.00    -0.341 OA
ATOM     10  C   UNL     1      -4.515  -1.511  23.696  0.00  0.00    +0.227 C 
ATOM     11  C   UNL     1      -4.036  -2.091  24.032  0.00  0.00    +0.256 C 
ATOM     12  O   UNL     1      -4.218  -2.889  23.927  0.00  0.00    -0.272 OA
BRANCH   4   2
ATOM      1  C   UNL     1      -2.175  -2.652  24.458  0.00  0.00    +0.022 C 
ATOM      2  C   UNL     1      -2.894  -2.455  24.811  0.00  0.00    +0.076 C 
ATOM      3  C   UNL     1      -3.133  -2.838  25.502  0.00  0.00    +0.022 C 
ENDBRANCH   4   2
BRANCH   5   6
ATOM      6  C   UNL     1      -2.529  -0.859  25.021  0.00  0.00    +0.205 C 
ATOM      7  O   UNL     1      -2.524  -0.969  25.839  0.00  0.00    -0.218 OA
ENDBRANCH   5   6
ENDBRANCH  13   8
BRANCH  16  17
ATOM     17  N   UNL     1      -2.941   2.695  24.662  0.00  0.00    -0.174 NA
ATOM     18  C   UNL     1      -2.289   2.912  25.117  0.00  0.00    +0.290 C 
ATOM     19  O   UNL     1      -1.819   2.332  25.467  0.00  0.00    -0.266 OA
BRANCH  18  20
ATOM     20  C   UNL     1      -2.106   3.710  25.222  0.00  0.00    +0.178 A 
ATOM     21  N   UNL     1      -2.532   4.249  25.678  0.00  0.00    -0.073 NA
ATOM     22  O   UNL     1      -2.155   4.981  25.627  0.00  0.00    -0.358 OA
ATOM     23  C   UNL     1      -1.495   4.894  25.139  0.00  0.00    +0.155 A 
ATOM     24  C   UNL     1      -0.960   5.488  24.937  0.00  0.00    +0.075 C 
ATOM     25  C   UNL     1      -1.465   4.108  24.889  0.00  0.00    +0.063 A 
ENDBRANCH  18  20
ENDBRANCH  16  17
TORSDOF 5
ENDMDL
MODEL 2
REMARK VINA RESULT:      -9.3      2.633      4.463
REMARK  Name = 
REMARK  5 active torsions:
REMARK  status: ('A' for Active; 'I' for Inactive)
REMARK    1  A    between atoms: C_2  and  N_4
REMARK    2  A    between atoms: C_5  and  C_6
REMARK    3  A    between atoms: C_8  and  C_13
REMARK    4  A    between atoms: C_16  and  N_17
REMARK    5  A    between atoms: C_18  and  C_20
REMARK                            x       y       z     vdW  Elec       q    Type
REMARK                         _______ _______ _______ _____ _____    ______ ____
ROOT
ATOM     13  C   UNL     1      -3.053   2.343  24.658  0.00  0.00    +0.006 A 
ATOM     14  C   UNL     1      -2.451   2.169  25.195  0.00  0.00    -0.001 A 
ATOM     15  C   UNL     1      -1.751   1.821  24.930  0.00  0.00    +0.016 A 
ATOM     16  C   UNL     1      -1.654   1.647  24.129  0.00  0.00    +0.074 A 
ATOM     26  C   UNL     1      -2.257   1.821  23.594  0.00  0.00    +0.016 A 
ATOM     27  C   UNL     1      -2.957   2.169  23.858  0.00  0.00    -0.001 A 
ENDROOT
BRANCH  13   8
ATOM      4  N   UNL     1      -5.131   2.580  25.285  0.00  0.00    -0.275 N 
ATOM      5  C   UNL     1      -4.432   2.231  25.021  0.00  0.00    +0.139 C 
ATOM      8  C   UNL     1      -3.753   2.691  24.923  0.00  0.00    +0.159 C 
ATOM      9  O   UNL     1      -3.775   3.499  25.090  0.00  0.00    -0.341 OA
ATOM     10  C   UNL     1      -4.475   3.847  25.355  0.00  0.00    +0.227 C 
ATOM     11  C   UNL     1      -5.152   3.387  25.452  0.00  0.00    +0.256 C 
ATOM     12  O   UNL     1      -5.852   3.736  25.717  0.00  0.00    -0.272 OA
BRANCH   4   2
ATOM      1  C   UNL     1      -6.030   1.866  26.136  0.00  0.00    +0.022 C 
ATOM      2  C   UNL     1      -5.809   2.120  25.383  0.00  0.00    +0.076 C 
ATOM      3  C   UNL     1      -6.267   1.915  24.728  0.00  0.00    +0.022 C 
ENDBRANCH   4   2
BRANCH   5   6
ATOM      6  C   UNL     1      -4.410   1.424  24.854  0.00  0.00    +0.205 C 
ATOM      7  O   UNL     1      -4.471   0.874  25.465  0.00  0.00    -0.218 OA
ENDBRANCH   5   6
ENDBRANCH  13   8
BRANCH  16  17
ATOM     17  N   UNL     1      -0.955   1.299  23.864  0.00  0.00    -0.174 NA
ATOM     18  C   UNL     1      -0.838   0.488  23.955  0.00  0.00    +0.290 C 
ATOM     19  O   UNL     1      -1.420   0.024  24.311  0.00  0.00    -0.266 OA
BRANCH  18  20
ATOM     20  C   UNL     1      -0.138   0.140  23.691  0.00  0.00    +0.178 A 
ATOM     21  N   UNL     1       0.113  -0.629  23.854  0.00  0.00    -0.073 NA
ATOM     22  O   UNL     1       0.840  -0.745  23.480  0.00  0.00    -0.358 OA
ATOM     23  C   UNL     1       1.038  -0.047  23.086  0.00  0.00    +0.155 A 
ATOM     24  C   UNL     1       1.719   0.081  22.640  0.00  0.00    +0.075 C 
ATOM     25  C   UNL     1       0.433   0.499  23.216  0.00  0.00    +0.063 A 
ENDBRANCH  18  20
ENDBRANCH  16  17
TORSDOF 5
ENDMDL
MODEL 3
REMARK VINA RESULT:      -9.3      1.026      5.584
REMARK  Name = 
REMARK  5 active torsions:
REMARK  status: ('A' for Active; 'I' for Inactive)
REMARK    1  A    between atoms: C_2  and  N_4
REMARK    2  A    between atoms: C_5  and  C_6
REMARK    3  A    between atoms: C_8  and  C_13
REMARK    4  A    between atoms: C_16  and  N_17
REMARK    5  A    between atoms: C_18  and  C_20
REMARK                            x       y       z     vdW  Elec       q    Type
REMARK                         _______ _______ _______ _____ _____    ______ ____
ROOT
ATOM     13  C   UNL     1      -2.725   2.109  24.827  0.00  0.00    +0.006 A 
ATOM     14  C   UNL     1      -2.377   1.485  25.240  0.00  0.00    -0.001 A 
ATOM     15  C   UNL     1      -2.523   0.706  25.010  0.00  0.00    +0.016 A 
ATOM     16  C   UNL     1      -3.017   0.552  24.366  0.00  0.00    +0.074 A 
ATOM     26  C   UNL     1      -3.363   1.177  23.953  0.00  0.00    +0.016 A 
ATOM     27  C   UNL     1      -3.217   1.955  24.184  0.00  0.00    -0.001 A 
ENDROOT
BRANCH  13   8
ATOM      4  N   UNL     1      -1.699   4.012  25.133  0.00  0.00    -0.275 N 
ATOM      5  C   UNL     1      -1.845   3.234  24.902  0.00  0.00    +0.139 C 
ATOM      8  C   UNL     1      -2.579   2.888  25.057  0.00  0.00    +0.159 C 
ATOM      9  O   UNL     1      -3.165   3.321  25.443  0.00  0.00    -0.341 OA
ATOM     10  C   UNL     1      -3.019   4.100  25.673  0.00  0.00    +0.227 C 
ATOM     11  C   UNL     1      -2.287   4.445  25.518  0.00  0.00    +0.256 C 
ATOM     12  O   UNL     1      -2.141   5.223  25.749  0.00  0.00    -0.272 OA
BRANCH   4   2
ATOM      1  C   UNL     1      -0.907   4.967  24.425  0.00  0.00    +0.022 C 
ATOM      2  C   UNL     1      -0.967   4.357  24.978  0.00  0.00    +0.076 C 
ATOM      3  C   UNL     1      -0.293   4.094  25.375  0.00  0.00    +0.022 C 
ENDBRANCH   4   2
BRANCH   5   6
ATOM      6  C   UNL     1      -1.259   2.800  24.517  0.00  0.00    +0.205 C 
ATOM      7  O   UNL     1      -1.040   2.996  23.746  0.00  0.00    -0.218 OA
ENDBRANCH   5   6
ENDBRANCH  13   8
BRANCH  16  17
ATOM     17  N   UNL     1      -3.163  -0.227  24.135  0.00  0.00    -0.174 NA
ATOM     18  C   UNL     1      -3.701  -0.687  24.557  0.00  0.00    +0.290 C 
ATOM     19  O   UNL     1      -4.093  -0.370  25.209  0.00  0.00    -0.266 OA
BRANCH  18  20
ATOM     20  C   UNL     1      -3.847  -1.466  24.326  0.00  0.00    +0.178 A 
ATOM     21  N   UNL     1      -4.375  -1.707  23.741  0.00  0.00    -0.073 NA
ATOM     22  O   UNL     1      -4.345  -2.531  23.694  0.00  0.00    -0.358 OA
ATOM     23  C   UNL     1      -3.797  -2.798  24.250  0.00  0.00    +0.155 A 
ATOM     24  C   UNL     1      -3.593  -3.585  24.391  0.00  0.00    +0.075 C 
ATOM     25  C   UNL     1      -3.489  -2.140  24.641  0.00  0.00    +0.063 A 
ENDBRANCH  18  20
ENDBRANCH  16  17
TORSDOF 5
ENDMDL
MODEL 4
REMARK VINA RESULT:      -8.9      2.133      2.589
REMARK  Name = 
REMARK  5 active torsions:
REMARK  status: ('A' for Active; 'I' for Inactive)
REMARK    1  A    between atoms: C_2  and  N_4
REMARK    2  A    between atoms: C_5  and  C_6
REMARK    3  A    between atoms: C_8  and  C_13
REMARK    4  A    between atoms: C_16  and  N_17
REMARK    5  A    between atoms: C_18  and  C_20
REMARK                            x       y       z     vdW  Elec       q    Type
REMARK                         _______ _______ _______ _____ _____    ______ ____
ROOT
ATOM     13  C   UNL     1      -3.452  -0.425  24.712  0.00  0.00    +0.006 A 
ATOM     14  C   UNL     1      -3.890  -0.371  25.409  0.00  0.00    -0.001 A 
ATOM     15  C   UNL     1      -4.404   0.263  25.525  0.00  0.00    +0.016 A 
ATOM     16  C   UNL     1      -4.480   0.845  24.943  0.00  0.00    +0.074 A 
ATOM     26  C   UNL     1      -4.041   0.791  24.247  0.00  0.00    +0.016 A 
ATOM     27  C   UNL     1      -3.527   0.156  24.132  0.00  0.00    -0.001 A 
ENDROOT
BRANCH  13   8
ATOM      4  N   UNL     1      -1.613  -1.597  24.606  0.00  0.00    -0.275 N 
ATOM      5  C   UNL     1      -2.127  -0.963  24.721  0.00  0.00    +0.139 C 
ATOM      8  C   UNL     1      -2.938  -1.059  24.596  0.00  0.00    +0.159 C 
ATOM      9  O   UNL     1      -3.232  -1.791  24.356  0.00  0.00    -0.341 OA
ATOM     10  C   UNL     1      -2.718  -2.426  24.241  0.00  0.00    +0.227 C 
ATOM     11  C   UNL     1      -1.909  -2.329  24.365  0.00  0.00    +0.256 C 
ATOM     12  O   UNL     1      -1.395  -2.964  24.250  0.00  0.00    -0.272 OA
BRANCH   4   2
ATOM      1  C   UNL     1      -0.338  -1.142  24.152  0.00  0.00    +0.022 C 
ATOM      2  C   UNL     1      -0.804  -1.500  24.730  0.00  0.00    +0.076 C 
ATOM      3  C   UNL     1      -0.460  -1.761  25.433  0.00  0.00    +0.022 C 
ENDBRANCH   4   2
BRANCH   5   6
ATOM      6  C   UNL     1      -1.832  -0.231  24.962  0.00  0.00    +0.205 C 
ATOM      7  O   UNL     1      -1.533  -0.136  25.725  0.00  0.00    -0.218 OA
ENDBRANCH   5   6
ENDBRANCH  13   8
BRANCH  16  17
ATOM     17  N   UNL     1      -4.994   1.480  25.059  0.00  0.00    -0.174 NA
ATOM     18  C   UNL     1      -4.707   2.193  25.356  0.00  0.00    +0.290 C 
ATOM     19  O   UNL     1      -3.907   2.273  25.538  0.00  0.00    -0.266 OA
BRANCH  18  20
ATOM     20  C   UNL     1      -5.221   2.828  25.472  0.00  0.00    +0.178 A 
ATOM     21  N   UNL     1      -5.987   2.783  25.775  0.00  0.00    -0.073 NA
ATOM     22  O   UNL     1      -6.299   3.547  25.795  0.00  0.00    -0.358 OA
ATOM     23  C   UNL     1      -5.726   4.064  25.504  0.00  0.00    +0.155 A 
ATOM     24  C   UNL     1      -5.805   4.881  25.426  0.00  0.00    +0.075 C 
ATOM     25  C   UNL     1      -5.060   3.620  25.304  0.00  0.00    +0.063 A 
ENDBRANCH  18  20
ENDBRANCH  16  17
TORSDOF 5
ENDMDL
