MODEL 1
REMARK VINA RESULT:      -7.9      0.000      0.000
REMARK  Name = 
REMARK  10 active torsions:
REMARK  status: ('A' for Active; 'I' for Inactive)
REMARK    1  A    between atoms: O_2  and  C_3
REMARK    2  A    between atoms: C_3  and  C_5
REMARK    3  A    between atoms: C_5  and  N_6
REMARK    4  A    between atoms: C_5  and  C_31
REMARK    5  A    between atoms: C_7  and  C_9
REMARK    6  A    between atoms: C_11  and  N_19
REMARK    7  A    between atoms: C_14  and  C_16
REMARK    8  A    between atoms: C_16  and  S_17
REMARK    9  A    between atoms: N_22  and  C_23
REMARK   10  A    between atoms: C_25  and  S_26
REMARK                            x       y       z     vdW  Elec       q    Type
REMARK                         _______ _______ _______ _____ _____    ______ ____
ROOT
ATOM      9  C   UNL     1      -0.448   0.748  24.124  0.00  0.00    +0.155 C 
ATOM     10  C   UNL     1       0.185   0.869  23.609  0.00  0.00    +0.053 C 
ATOM     11  C   UNL     1       0.432   0.133  23.333  0.00  0.00    +0.119 C 
ATOM     12  C   UNL     1      -0.049  -0.444  23.676  0.00  0.00    +0.116 C 
ATOM     13  N   UNL     1      -0.593  -0.062  24.166  0.00  0.00    -0.270 N 
ATOM     14  C   UNL     1      -1.178  -0.428  24.617  0.00  0.00    +0.237 C 
ATOM     15  O   UNL     1      -1.685   0.027  25.083  0.00  0.00    -0.274 OA
ENDROOT
BRANCH  11  19
ATOM     19  N   UNL     1       1.051  -0.005  22.804  0.00  0.00    -0.187 NA
ATOM     20  C   UNL     1       1.824   0.188  23.016  0.00  0.00    +0.343 C 
ATOM     21  O   UNL     1       1.979   0.519  23.756  0.00  0.00    -0.249 OA
ATOM     22  N   UNL     1       2.443   0.051  22.488  0.00  0.00    -0.161 NA
BRANCH  22  23
ATOM     23  C   UNL     1       3.216   0.244  22.699  0.00  0.00    +0.075 A 
ATOM     24  C   UNL     1       3.695  -0.317  23.070  0.00  0.00    +0.023 A 
ATOM     25  C   UNL     1       4.469  -0.123  23.282  0.00  0.00    +0.027 A 
ATOM     28  C   UNL     1       4.764   0.630  23.122  0.00  0.00    +0.006 A 
ATOM     29  C   UNL     1       4.286   1.192  22.750  0.00  0.00    +0.002 A 
ATOM     30  C   UNL     1       3.512   0.997  22.540  0.00  0.00    +0.017 A 
BRANCH  25  26
ATOM     26  S   UNL     1       4.947  -0.684  23.653  0.00  0.00    -0.113 S 
ATOM     27  C   UNL     1       5.491  -0.449  24.226  0.00  0.00    +0.074 C 
ENDBRANCH  25  26
ENDBRANCH  22  23
ENDBRANCH  11  19
BRANCH   9   7
ATOM      6  N   UNL     1      -1.144   1.997  24.119  0.00  0.00    -0.194 NA
ATOM      7  C   UNL     1      -0.864   1.337  24.527  0.00  0.00    +0.260 C 
ATOM      8  O   UNL     1      -1.001   1.264  25.338  0.00  0.00    -0.272 OA
BRANCH   6   5
ATOM      5  C   UNL     1      -1.560   2.585  24.522  0.00  0.00    +0.193 C 
BRANCH   5  31
ATOM     31  C   UNL     1      -1.153   3.146  24.969  0.00  0.00    +0.031 C 
ATOM     32  C   UNL     1      -0.644   3.680  24.598  0.00  0.00    +0.002 C 
ATOM     33  C   UNL     1      -1.253   3.173  25.788  0.00  0.00    +0.002 C 
ENDBRANCH   5  31
BRANCH   5   3
ATOM      3  C   UNL     1      -2.383   2.612  24.477  0.00  0.00    +0.337 C 
ATOM      4  O   UNL     1      -2.835   2.612  25.167  0.00  0.00    -0.248 OA
BRANCH   3   2
ATOM      1  C   UNL     1      -3.576   2.701  23.695  0.00  0.00    +0.256 C 
ATOM      2  O   UNL     1      -2.755   2.638  23.740  0.00  0.00    -0.443 OA
ENDBRANCH   3   2
ENDBRANCH   5   3
ENDBRANCH   6   5
ENDBRANCH   9   7
BRANCH  14  16
ATOM     16  C   UNL     1      -1.257  -1.249  24.604  0.00  0.00    +0.143 C 
BRANCH  16  17
ATOM     17  S   UNL     1      -1.946  -1.602  24.891  0.00  0.00    -0.130 S 
ATOM     18  C   UNL     1      -2.115  -2.387  24.704  0.00  0.00    +0.070 C 
ENDBRANCH  16  17
ENDBRANCH  14  16
TORSDOF 10
ENDMDL
MODEL 2
REMARK VINA RESULT:      -7.7      3.601      5.377
REMARK  Name = 
REMARK  10 active torsions:
REMARK  status: ('A' for Active; 'I' for Inactive)
REMARK    1  A    between atoms: O_2  and  C_3
REMARK    2  A    between atoms: C_3  and  C_5
REMARK    3  A    between atoms: C_5  and  N_6
REMARK    4  A    between atoms: C_5  and  C_31
REMARK    5  A    between atoms: C_7  and  C_9
REMARK    6  A    between atoms: C_11  and  N_19
REMARK    7  A    between atoms: C_14  and  C_16
REMARK    8  A    between atoms: C_16  and  S_17
REMARK    9  A    between atoms: N_22  and  C_23
REMARK   10  A    between atoms: C_25  and  S_26
REMARK                            x       y       z     vdW  Elec       q    Type
REMARK                         _______ _______ _______ _____ _____    ______ ____
ROOT
ATOM      9  C   UNL     1      -3.000   2.449  24.763  0.00  0.00    +0.155 C 
ATOM     10  C   UNL     1      -2.850   1.773  24.316  0.00  0.00    +0.053 C 
ATOM     11  C   UNL     1      -3.576   1.458  24.082  0.00  0.00    +0.119 C 
ATOM     12  C   UNL     1      -4.174   1.939  24.384  0.00  0.00    +0.116 C 
ATOM     13  N   UNL     1      -3.817   2.552  24.805  0.00  0.00    -0.270 N 
ATOM     14  C   UNL     1      -4.209   3.162  25.200  0.00  0.00    +0.237 C 
ATOM     15  O   UNL     1      -3.777   3.740  25.600  0.00  0.00    -0.274 OA
ENDROOT
BRANCH  11  19
ATOM     19  N   UNL     1      -3.685   0.779  23.625  0.00  0.00    -0.187 NA
ATOM     20  C   UNL     1      -3.608   0.033  23.968  0.00  0.00    +0.343 C 
ATOM     21  O   UNL     1      -3.423  -0.035  24.770  0.00  0.00    -0.249 OA
ATOM     22  N   UNL     1      -3.718  -0.645  23.512  0.00  0.00    -0.161 NA
BRANCH  22  23
ATOM     23  C   UNL     1      -3.641  -1.391  23.855  0.00  0.00    +0.075 A 
ATOM     24  C   UNL     1      -2.909  -1.640  24.144  0.00  0.00    +0.023 A 
ATOM     25  C   UNL     1      -2.833  -2.387  24.487  0.00  0.00    +0.027 A 
ATOM     28  C   UNL     1      -3.489  -2.883  24.543  0.00  0.00    +0.006 A 
ATOM     29  C   UNL     1      -4.222  -2.635  24.255  0.00  0.00    +0.002 A 
ATOM     30  C   UNL     1      -4.297  -1.888  23.911  0.00  0.00    +0.017 A 
BRANCH  25  26
ATOM     26  S   UNL     1      -2.101  -2.635  24.775  0.00  0.00    -0.113 S 
ATOM     27  C   UNL     1      -1.478  -2.774  24.254  0.00  0.00    +0.074 C 
ENDBRANCH  25  26
ENDBRANCH  22  23
ENDBRANCH  11  19
BRANCH   9   7
ATOM      6  N   UNL     1      -1.696   3.034  24.746  0.00  0.00    -0.194 NA
ATOM      7  C   UNL     1      -2.431   2.938  25.108  0.00  0.00    +0.260 C 
ATOM      8  O   UNL     1      -2.597   3.330  25.815  0.00  0.00    -0.272 OA
BRANCH   6   5
ATOM      5  C   UNL     1      -1.127   3.523  25.091  0.00  0.00    +0.193 C 
BRANCH   5  31
ATOM     31  C   UNL     1      -1.001   4.283  24.795  0.00  0.00    +0.031 C 
ATOM     32  C   UNL     1      -1.151   4.941  25.270  0.00  0.00    +0.002 C 
ATOM     33  C   UNL     1      -0.726   4.385  24.024  0.00  0.00    +0.002 C 
ENDBRANCH   5  31
BRANCH   5   3
ATOM      3  C   UNL     1      -0.685   3.251  25.732  0.00  0.00    +0.337 C 
ATOM      4  O   UNL     1      -0.849   3.523  26.493  0.00  0.00    -0.248 OA
BRANCH   3   2
ATOM      1  C   UNL     1       0.345   2.409  26.255  0.00  0.00    +0.256 C 
ATOM      2  O   UNL     1      -0.077   2.705  25.611  0.00  0.00    -0.443 OA
ENDBRANCH   3   2
ENDBRANCH   5   3
ENDBRANCH   6   5
ENDBRANCH   9   7
BRANCH  14  16
ATOM     16  C   UNL     1      -5.034   3.193  25.194  0.00  0.00    +0.143 C 
BRANCH  16  17
ATOM     17  S   UNL     1      -5.426   3.799  25.595  0.00  0.00    -0.130 S 
ATOM     18  C   UNL     1      -6.250   3.802  25.632  0.00  0.00    +0.070 C 
ENDBRANCH  16  17
ENDBRANCH  14  16
TORSDOF 10
ENDMDL
MODEL 3
REMARK VINA RESULT:      -7.2      2.227      5.320
REMARK  Name = 
REMARK  10 active torsions:
REMARK  status: ('A' for Active; 'I' for Inactive)
REMARK    1  A    between atoms: O_2  and  C_3
REMARK    2  A    between atoms: C_3  and  C_5
REMARK    3  A    between atoms: C_5  and  N_6
REMARK    4  A    between atoms: C_5  and  C_31
REMARK    5  A    between atoms: C_7  and  C_9
REMARK    6  A    between atoms: C_11  and  N_19
REMARK    7  A    between atoms: C_14  and  C_16
REMARK    8  A    between atoms: C_16  and  S_17
REMARK    9  A    between atoms: N_22  and  C_23
REMARK   10  A    between atoms: C_25  and  S_26
REMARK                            x       y       z     vdW  Elec       q    Type
REMARK                         _______ _______ _______ _____ _____    ______ ____
ROOT
ATOM      9  C   UNL     1      -1.169  -0.175  25.064  0.00  0.00    +0.155 C 
ATOM     10  C   UNL     1      -1.289   0.454  25.583  0.00  0.00    +0.053 C 
ATOM     11  C   UNL     1      -0.701   1.015  25.442  0.00  0.00    +0.119 C 
ATOM     12  C   UNL     1      -0.218   0.733  24.835  0.00  0.00    +0.116 C 
ATOM     13  N   UNL     1      -0.508  -0.004  24.602  0.00  0.00    -0.270 N 
ATOM     14  C   UNL     1      -0.191  -0.484  24.011  0.00  0.00    +0.237 C 
ATOM     15  O   UNL     1      -0.542  -1.210  23.837  0.00  0.00    -0.274 OA
ENDROOT
BRANCH  11  19
ATOM     19  N   UNL     1      -0.611   1.734  25.837  0.00  0.00    -0.187 NA
ATOM     20  C   UNL     1      -1.028   2.399  25.585  0.00  0.00    +0.343 C 
ATOM     21  O   UNL     1      -1.536   2.346  24.935  0.00  0.00    -0.249 OA
ATOM     22  N   UNL     1      -0.939   3.118  25.980  0.00  0.00    -0.161 NA
BRANCH  22  23
ATOM     23  C   UNL     1      -1.356   3.783  25.727  0.00  0.00    +0.075 A 
ATOM     24  C   UNL     1      -2.147   3.881  25.942  0.00  0.00    +0.023 A 
ATOM     25  C   UNL     1      -2.563   4.547  25.689  0.00  0.00    +0.027 A 
ATOM     28  C   UNL     1      -2.189   5.114  25.221  0.00  0.00    +0.006 A 
ATOM     29  C   UNL     1      -1.398   5.016  25.006  0.00  0.00    +0.002 A 
ATOM     30  C   UNL     1      -0.982   4.351  25.259  0.00  0.00    +0.017 A 
BRANCH  25  26
ATOM     26  S   UNL     1      -3.353   4.644  25.904  0.00  0.00    -0.113 S 
ATOM     27  C   UNL     1      -3.947   4.253  25.486  0.00  0.00    +0.074 C 
ENDBRANCH  25  26
ENDBRANCH  22  23
ENDBRANCH  11  19
BRANCH   9   7
ATOM      6  N   UNL     1      -2.453  -0.803  25.056  0.00  0.00    -0.194 NA
ATOM      7  C   UNL     1      -1.631  -0.858  25.015  0.00  0.00    +0.260 C 
ATOM      8  O   UNL     1      -1.270  -1.595  24.925  0.00  0.00    -0.272 OA
BRANCH   6   5
ATOM      5  C   UNL     1      -2.914  -1.486  25.008  0.00  0.00    +0.193 C 
BRANCH   5  31
ATOM     31  C   UNL     1      -3.027  -1.956  25.676  0.00  0.00    +0.031 C 
ATOM     32  C   UNL     1      -3.310  -1.620  26.375  0.00  0.00    +0.002 C 
ATOM     33  C   UNL     1      -2.856  -2.763  25.647  0.00  0.00    +0.002 C 
ENDBRANCH   5  31
BRANCH   5   3
ATOM      3  C   UNL     1      -3.263  -1.697  24.290  0.00  0.00    +0.337 C 
ATOM      4  O   UNL     1      -3.123  -2.443  23.967  0.00  0.00    -0.248 OA
BRANCH   3   2
ATOM      1  C   UNL     1      -4.271  -1.429  23.313  0.00  0.00    +0.256 C 
ATOM      2  O   UNL     1      -3.753  -1.161  23.897  0.00  0.00    -0.443 OA
ENDBRANCH   3   2
ENDBRANCH   5   3
ENDBRANCH   6   5
ENDBRANCH   9   7
BRANCH  14  16
ATOM     16  C   UNL     1       0.476  -0.238  23.593  0.00  0.00    +0.143 C 
BRANCH  16  17
ATOM     17  S   UNL     1       0.648  -0.572  22.858  0.00  0.00    -0.130 S 
ATOM     18  C   UNL     1       1.306  -0.314  22.432  0.00  0.00    +0.070 C 
ENDBRANCH  16  17
ENDBRANCH  14  16
TORSDOF 10
ENDMDL
MODEL 4
REMARK VINA RESULT:      -7.0      1.297      2.639
REMARK  Name = 
REMARK  10 active torsions:
REMARK  status: ('A' for Active; 'I' for Inactive)
REMARK    1  A    between atoms: O_2  and  C_3
REMARK    2  A    between atoms: C_3  and  C_5
REMARK    3  A    between atoms: C_5  and  N_6
REMARK    4  A    between atoms: C_5  and  C_31
REMARK    5  A    between atoms: C_7  and  C_9
REMARK    6  A    between atoms: C_11  and  N_19
REMARK    7  A    between atoms: C_14  and  C_16
REMARK    8  A    between atoms: C_16  and  S_17
REMARK    9  A    between atoms: N_22  and  C_23
REMARK   10  A    between atoms: C_25  and  S_26
REMARK                            x       y       z     vdW  Elec       q    Type
REMARK                         _______ _______ _______ _____ _____    ______ ____
ROOT
ATOM      9  C   UNL     1      -0.685   0.253  24.252  0.00  0.00    +0.155 C 
ATOM     10  C   UNL     1      -0.188  -0.195  23.770  0.00  0.00    +0.053 C 
ATOM     11  C   UNL     1       0.360   0.316  23.424  0.00  0.00    +0.119 C 
ATOM     12  C   UNL     1       0.202   1.080  23.693  0.00  0.00    +0.116 C 
ATOM     13  N   UNL     1      -0.444   1.041  24.205  0.00  0.00    -0.270 N 
ATOM     14  C   UNL     1      -0.789   1.678  24.600  0.00  0.00    +0.237 C 
ATOM     15  O   UNL     1      -1.436   1.554  25.096  0.00  0.00    -0.274 OA
ENDROOT
BRANCH  11  19
ATOM     19  N   UNL     1       0.961   0.101  22.901  0.00  0.00    -0.187 NA
ATOM     20  C   UNL     1       1.746   0.281  23.078  0.00  0.00    +0.343 C 
ATOM     21  O   UNL     1       1.930   0.677  23.779  0.00  0.00    -0.249 OA
ATOM     22  N   UNL     1       2.347   0.066  22.556  0.00  0.00    -0.161 NA
BRANCH  22  23
ATOM     23  C   UNL     1       3.132   0.246  22.733  0.00  0.00    +0.075 A 
ATOM     24  C   UNL     1       3.607  -0.309  23.117  0.00  0.00    +0.023 A 
ATOM     25  C   UNL     1       4.392  -0.128  23.294  0.00  0.00    +0.027 A 
ATOM     28  C   UNL     1       4.703   0.607  23.087  0.00  0.00    +0.006 A 
ATOM     29  C   UNL     1       4.228   1.163  22.702  0.00  0.00    +0.002 A 
ATOM     30  C   UNL     1       3.443   0.982  22.526  0.00  0.00    +0.017 A 
BRANCH  25  26
ATOM     26  S   UNL     1       4.866  -0.683  23.678  0.00  0.00    -0.113 S 
ATOM     27  C   UNL     1       5.506  -0.435  24.135  0.00  0.00    +0.074 C 
ENDBRANCH  25  26
ENDBRANCH  22  23
ENDBRANCH  11  19
BRANCH   9   7
ATOM      6  N   UNL     1      -1.918  -0.464  24.340  0.00  0.00    -0.194 NA
ATOM      7  C   UNL     1      -1.313  -0.036  24.703  0.00  0.00    +0.260 C 
ATOM      8  O   UNL     1      -1.336   0.103  25.515  0.00  0.00    -0.272 OA
BRANCH   6   5
ATOM      5  C   UNL     1      -2.546  -0.753  24.791  0.00  0.00    +0.193 C 
BRANCH   5  31
ATOM     31  C   UNL     1      -2.456  -1.447  25.227  0.00  0.00    +0.031 C 
ATOM     32  C   UNL     1      -2.297  -2.160  24.841  0.00  0.00    +0.002 C 
ATOM     33  C   UNL     1      -2.524  -1.431  26.049  0.00  0.00    +0.002 C 
ENDBRANCH   5  31
BRANCH   5   3
ATOM      3  C   UNL     1      -3.264  -0.347  24.804  0.00  0.00    +0.337 C 
ATOM      4  O   UNL     1      -3.592  -0.113  25.524  0.00  0.00    -0.248 OA
BRANCH   3   2
ATOM      1  C   UNL     1      -4.389   0.199  24.113  0.00  0.00    +0.256 C 
ATOM      2  O   UNL     1      -3.654  -0.175  24.097  0.00  0.00    -0.443 OA
ENDBRANCH   3   2
ENDBRANCH   5   3
ENDBRANCH   6   5
ENDBRANCH   9   7
BRANCH  14  16
ATOM     16  C   UNL     1      -0.487   2.439  24.498  0.00  0.00    +0.143 C 
BRANCH  16  17
ATOM     17  S   UNL     1      -0.877   3.085  24.832  0.00  0.00    -0.130 S 
ATOM     18  C   UNL     1      -0.614   3.851  24.676  0.00  0.00    +0.070 C 
ENDBRANCH  16  17
ENDBRANCH  14  16
TORSDOF 10
ENDMDL
MODEL 5
REMARK VINA RESULT:      -7.0      1.460      2.274
REMARK  Name = 
REMARK  10 active torsions:
REMARK  status: ('A' for Active; 'I' for Inactive)
REMARK    1  A    between atoms: O_2  and  C_3
REMARK    2  A    between atoms: C_3  and  C_5
REMARK    3  A    between atoms: C_5  and  N_6
REMARK    4  A    between atoms: C_5  and  C_31
REMARK    5  A    between atoms: C_7  and  C_9
REMARK    6  A    between atoms: C_11  and  N_19
REMARK    7  A    between atoms: C_14  and  C_16
REMARK    8  A    between atoms: C_16  and  S_17
REMARK    9  A    between atoms: N_22  and  C_23
REMARK   10  A    between atoms: C_25  and  S_26
REMARK                            x       y       z     vdW  Elec       q    Type
REMARK                         _______ _______ _______ _____ _____    ______ ____
ROOT
ATOM      9  C   UNL     1      -2.242   0.748  24.638  0.00  0.00    +0.155 C 
ATOM     10  C   UNL     1      -1.419   0.772  24.680  0.00  0.00    +0.053 C 
ATOM     11  C   UNL     1      -1.135   0.006  24.561  0.00  0.00    +0.119 C 
ATOM     12  C   UNL     1      -1.784  -0.491  24.444  0.00  0.00    +0.116 C 
ATOM     13  N   UNL     1      -2.468  -0.032  24.492  0.00  0.00    -0.270 N 
ATOM     14  C   UNL     1      -3.241  -0.305  24.409  0.00  0.00    +0.237 C 
ATOM     15  O   UNL     1      -3.874   0.221  24.471  0.00  0.00    -0.274 OA
ENDROOT
BRANCH  11  19
ATOM     19  N   UNL     1      -0.342  -0.223  24.558  0.00  0.00    -0.187 NA
ATOM     20  C   UNL     1       0.124  -0.087  23.891  0.00  0.00    +0.343 C 
ATOM     21  O   UNL     1      -0.202   0.278  23.227  0.00  0.00    -0.249 OA
ATOM     22  N   UNL     1       0.916  -0.316  23.888  0.00  0.00    -0.161 NA
BRANCH  22  23
ATOM     23  C   UNL     1       1.383  -0.180  23.222  0.00  0.00    +0.075 A 
ATOM     24  C   UNL     1       2.083   0.252  23.289  0.00  0.00    +0.023 A 
ATOM     25  C   UNL     1       2.550   0.388  22.622  0.00  0.00    +0.027 A 
ATOM     28  C   UNL     1       2.316   0.091  21.889  0.00  0.00    +0.006 A 
ATOM     29  C   UNL     1       1.616  -0.341  21.821  0.00  0.00    +0.002 A 
ATOM     30  C   UNL     1       1.150  -0.476  22.488  0.00  0.00    +0.017 A 
BRANCH  25  26
ATOM     26  S   UNL     1       3.249   0.820  22.690  0.00  0.00    -0.113 S 
ATOM     27  C   UNL     1       3.976   0.431  22.694  0.00  0.00    +0.074 C 
ENDBRANCH  25  26
ENDBRANCH  22  23
ENDBRANCH  11  19
BRANCH   9   7
ATOM      6  N   UNL     1      -2.599   2.095  24.322  0.00  0.00    -0.194 NA
ATOM      7  C   UNL     1      -2.751   1.392  24.726  0.00  0.00    +0.260 C 
ATOM      8  O   UNL     1      -3.410   1.332  25.217  0.00  0.00    -0.272 OA
BRANCH   6   5
ATOM      5  C   UNL     1      -3.107   2.739  24.410  0.00  0.00    +0.193 C 
BRANCH   5  31
ATOM     31  C   UNL     1      -3.704   2.872  23.856  0.00  0.00    +0.031 C 
ATOM     32  C   UNL     1      -3.513   2.967  23.058  0.00  0.00    +0.002 C 
ATOM     33  C   UNL     1      -4.492   2.911  24.098  0.00  0.00    +0.002 C 
ENDBRANCH   5  31
BRANCH   5   3
ATOM      3  C   UNL     1      -3.019   3.249  25.052  0.00  0.00    +0.337 C 
ATOM      4  O   UNL     1      -3.603   3.288  25.633  0.00  0.00    -0.248 OA
BRANCH   3   2
ATOM      1  C   UNL     1      -2.285   4.280  25.717  0.00  0.00    +0.256 C 
ATOM      2  O   UNL     1      -2.344   3.721  25.113  0.00  0.00    -0.443 OA
ENDBRANCH   3   2
ENDBRANCH   5   3
ENDBRANCH   6   5
ENDBRANCH   9   7
BRANCH  14  16
ATOM     16  C   UNL     1      -3.384  -1.105  24.264  0.00  0.00    +0.143 C 
BRANCH  16  17
ATOM     17  S   UNL     1      -4.152  -1.367  24.117  0.00  0.00    -0.130 S 
ATOM     18  C   UNL     1      -4.285  -2.149  23.891  0.00  0.00    +0.070 C 
ENDBRANCH  16  17
ENDBRANCH  14  16
TORSDOF 10
ENDMDL
MODEL 6
REMARK VINA RESULT:      -6.2      3.264      4.907
REMARK  Name = 
REMARK  10 active torsions:
REMARK  status: ('A' for Active; 'I' for Inactive)
REMARK    1  A    between atoms: O_2  and  C_3
REMARK    2  A    between atoms: C_3  and  C_5
REMARK    3  A    between atoms: C_5  and  N_6
REMARK    4  A    between atoms: C_5  and  C_31
REMARK    5  A    between atoms: C_7  and  C_9
REMARK    6  A    between atoms: C_11  and  N_19
REMARK    7  A    between atoms: C_14  and  C_16
REMARK    8  A    between atoms: C_16  and  S_17
REMARK    9  A    between atoms: N_22  and  C_23
REMARK   10  A    between atoms: C_25  and  S_26
REMARK                            x       y       z     vdW  Elec       q    Type
REMARK                         _______ _______ _______ _____ _____    ______ ____
ROOT
ATOM      9  C   UNL     1      -2.821   2.659  24.998  0.00  0.00    +0.155 C 
ATOM     10  C   UNL     1      -2.693   1.912  24.672  0.00  0.00    +0.053 C 
ATOM     11  C   UNL     1      -1.909   1.876  24.420  0.00  0.00    +0.119 C 
ATOM     12  C   UNL     1      -1.552   2.600  24.590  0.00  0.00    +0.116 C 
ATOM     13  N   UNL     1      -2.117   3.084  24.947  0.00  0.00    -0.270 N 
ATOM     14  C   UNL     1      -1.997   3.858  25.207  0.00  0.00    +0.237 C 
ATOM     15  O   UNL     1      -2.617   4.276  25.556  0.00  0.00    -0.274 OA
ENDROOT
BRANCH  11  19
ATOM     19  N   UNL     1      -1.544   1.229  24.061  0.00  0.00    -0.187 NA
ATOM     20  C   UNL     1      -1.553   0.492  24.431  0.00  0.00    +0.343 C 
ATOM     21  O   UNL     1      -1.927   0.402  25.161  0.00  0.00    -0.249 OA
ATOM     22  N   UNL     1      -1.189  -0.155  24.072  0.00  0.00    -0.161 NA
BRANCH  22  23
ATOM     23  C   UNL     1      -1.197  -0.892  24.442  0.00  0.00    +0.075 A 
ATOM     24  C   UNL     1      -1.784  -1.442  24.254  0.00  0.00    +0.023 A 
ATOM     25  C   UNL     1      -1.792  -2.179  24.625  0.00  0.00    +0.027 A 
ATOM     28  C   UNL     1      -1.215  -2.366  25.183  0.00  0.00    +0.006 A 
ATOM     29  C   UNL     1      -0.628  -1.817  25.372  0.00  0.00    +0.002 A 
ATOM     30  C   UNL     1      -0.621  -1.080  25.001  0.00  0.00    +0.017 A 
BRANCH  25  26
ATOM     26  S   UNL     1      -2.378  -2.728  24.436  0.00  0.00    -0.113 S 
ATOM     27  C   UNL     1      -3.098  -2.718  24.837  0.00  0.00    +0.074 C 
ENDBRANCH  25  26
ENDBRANCH  22  23
ENDBRANCH  11  19
BRANCH   9   7
ATOM      6  N   UNL     1      -4.237   2.827  24.906  0.00  0.00    -0.194 NA
ATOM      7  C   UNL     1      -3.531   2.933  25.318  0.00  0.00    +0.260 C 
ATOM      8  O   UNL     1      -3.534   3.312  26.051  0.00  0.00    -0.272 OA
BRANCH   6   5
ATOM      5  C   UNL     1      -4.947   3.101  25.226  0.00  0.00    +0.193 C 
BRANCH   5  31
ATOM     31  C   UNL     1      -5.212   3.862  25.053  0.00  0.00    +0.031 C 
ATOM     32  C   UNL     1      -5.513   4.342  25.654  0.00  0.00    +0.002 C 
ATOM     33  C   UNL     1      -5.176   4.146  24.279  0.00  0.00    +0.002 C 
ENDBRANCH   5  31
BRANCH   5   3
ATOM      3  C   UNL     1      -5.392   2.612  25.720  0.00  0.00    +0.337 C 
ATOM      4  O   UNL     1      -5.517   2.824  26.508  0.00  0.00    -0.248 OA
BRANCH   3   2
ATOM      1  C   UNL     1      -6.210   1.454  25.900  0.00  0.00    +0.256 C 
ATOM      2  O   UNL     1      -5.711   1.909  25.426  0.00  0.00    -0.443 OA
ENDBRANCH   3   2
ENDBRANCH   5   3
ENDBRANCH   6   5
ENDBRANCH   9   7
BRANCH  14  16
ATOM     16  C   UNL     1      -1.258   4.213  25.119  0.00  0.00    +0.143 C 
BRANCH  16  17
ATOM     17  S   UNL     1      -1.195   5.036  25.106  0.00  0.00    -0.130 S 
ATOM     18  C   UNL     1      -0.540   5.394  24.756  0.00  0.00    +0.070 C 
ENDBRANCH  16  17
ENDBRANCH  14  16
TORSDOF 10
ENDMDL
