MODEL 1
REMARK VINA RESULT:     -12.7      0.000      0.000
REMARK  Name = 
REMARK  5 active torsions:
REMARK  status: ('A' for Active; 'I' for Inactive)
REMARK    1  A    between atoms: O_2  and  C_3
REMARK    2  A    between atoms: C_6  and  C_9
REMARK    3  A    between atoms: C_12  and  C_14
REMARK    4  A    between atoms: N_17  and  C_18
REMARK    5  A    between atoms: C_18  and  C_19
REMARK                            x       y       z     vdW  Elec       q    Type
REMARK                         _______ _______ _______ _____ _____    ______ ____
ROOT
ATOM     14  C   UNL     1      -4.239   2.278  25.036  0.00  0.00    +0.096 C 
ATOM     15  C   UNL     1      -4.580   2.914  24.637  0.00  0.00    +0.028 C 
ATOM     16  C   UNL     1      -4.174   3.598  24.852  0.00  0.00    +0.073 C 
ATOM     17  N   UNL     1      -3.582   3.386  25.385  0.00  0.00    -0.268 NA
ATOM     29  C   UNL     1      -3.622   2.570  25.499  0.00  0.00    +0.082 C 
ENDROOT
BRANCH  14  12
ATOM      9  C   UNL     1      -4.440   0.159  24.858  0.00  0.00    +0.250 A 
ATOM     10  N   UNL     1      -5.228   0.389  24.939  0.00  0.00    -0.107 NA
ATOM     11  N   UNL     1      -5.249   1.210  25.015  0.00  0.00    -0.111 NA
ATOM     12  C   UNL     1      -4.474   1.489  24.982  0.00  0.00    +0.227 A 
ATOM     13  O   UNL     1      -3.973   0.840  24.885  0.00  0.00    -0.419 OA
BRANCH   9   6
ATOM      3  C   UNL     1      -3.618  -2.158  24.585  0.00  0.00    +0.139 A 
ATOM      4  C   UNL     1      -4.017  -1.787  23.966  0.00  0.00    +0.037 A 
ATOM      5  C   UNL     1      -4.291  -1.014  24.057  0.00  0.00    +0.008 A 
ATOM      6  C   UNL     1      -4.166  -0.613  24.767  0.00  0.00    +0.055 A 
ATOM      7  C   UNL     1      -3.766  -0.985  25.386  0.00  0.00    +0.008 A 
ATOM      8  C   UNL     1      -3.492  -1.757  25.295  0.00  0.00    +0.037 A 
BRANCH   3   2
ATOM      1  C   UNL     1      -2.541  -3.071  24.359  0.00  0.00    +0.252 C 
ATOM      2  O   UNL     1      -3.344  -2.931  24.493  0.00  0.00    -0.471 OA
ENDBRANCH   3   2
ENDBRANCH   9   6
ENDBRANCH  14  12
BRANCH  17  18
ATOM     18  C   UNL     1      -3.043   3.900  25.743  0.00  0.00    +0.101 C 
BRANCH  18  19
ATOM     19  C   UNL     1      -2.238   3.833  25.579  0.00  0.00    +0.012 A 
ATOM     20  C   UNL     1      -1.780   3.152  25.669  0.00  0.00    +0.073 A 
ATOM     21  N   UNL     1      -1.008   3.333  25.442  0.00  0.00    -0.324 N 
ATOM     22  C   UNL     1      -0.367   2.813  25.445  0.00  0.00    +0.130 C 
ATOM     23  C   UNL     1      -0.989   4.125  25.212  0.00  0.00    +0.060 A 
ATOM     24  C   UNL     1      -1.749   4.433  25.297  0.00  0.00    +0.015 A 
ATOM     25  C   UNL     1      -1.897   5.222  25.106  0.00  0.00    +0.001 A 
ATOM     26  C   UNL     1      -1.286   5.702  24.830  0.00  0.00    +0.000 A 
ATOM     27  C   UNL     1      -0.525   5.394  24.746  0.00  0.00    +0.001 A 
ATOM     28  C   UNL     1      -0.376   4.605  24.936  0.00  0.00    +0.017 A 
ENDBRANCH  18  19
ENDBRANCH  17  18
TORSDOF 5
ENDMDL
MODEL 2
REMARK VINA RESULT:     -12.2      1.430      5.667
REMARK  Name = 
REMARK  5 active torsions:
REMARK  status: ('A' for Active; 'I' for Inactive)
REMARK    1  A    between atoms: O_2  and  C_3
REMARK    2  A    between atoms: C_6  and  C_9
REMARK    3  A    between atoms: C_12  and  C_14
REMARK    4  A    between atoms: N_17  and  C_18
REMARK    5  A    between atoms: C_18  and  C_19
REMARK                            x       y       z     vdW  Elec       q    Type
REMARK                         _______ _______ _______ _____ _____    ______ ____
ROOT
ATOM     14  C   UNL     1      -4.527   1.897  25.158  0.00  0.00    +0.096 C 
ATOM     15  C   UNL     1      -5.293   1.676  25.371  0.00  0.00    +0.028 C 
ATOM     16  C   UNL     1      -5.420   0.906  25.105  0.00  0.00    +0.073 C 
ATOM     17  N   UNL     1      -4.734   0.649  24.728  0.00  0.00    -0.268 NA
ATOM     29  C   UNL     1      -4.181   1.262  24.761  0.00  0.00    +0.082 C 
ENDROOT
BRANCH  14  12
ATOM      9  C   UNL     1      -3.274   3.611  25.374  0.00  0.00    +0.250 A 
ATOM     10  N   UNL     1      -3.966   3.872  25.739  0.00  0.00    -0.107 NA
ATOM     11  N   UNL     1      -4.520   3.262  25.702  0.00  0.00    -0.111 NA
ATOM     12  C   UNL     1      -4.170   2.624  25.315  0.00  0.00    +0.227 A 
ATOM     13  O   UNL     1      -3.400   2.839  25.113  0.00  0.00    -0.419 OA
BRANCH   9   6
ATOM      3  C   UNL     1      -1.186   4.914  25.112  0.00  0.00    +0.139 A 
ATOM      4  C   UNL     1      -1.917   5.291  25.052  0.00  0.00    +0.037 A 
ATOM      5  C   UNL     1      -2.614   4.856  25.139  0.00  0.00    +0.008 A 
ATOM      6  C   UNL     1      -2.578   4.045  25.287  0.00  0.00    +0.055 A 
ATOM      7  C   UNL     1      -1.846   3.669  25.348  0.00  0.00    +0.008 A 
ATOM      8  C   UNL     1      -1.151   4.103  25.260  0.00  0.00    +0.037 A 
BRANCH   3   2
ATOM      1  C   UNL     1      -0.045   5.278  24.334  0.00  0.00    +0.252 C 
ATOM      2  O   UNL     1      -0.491   5.349  25.025  0.00  0.00    -0.471 OA
ENDBRANCH   3   2
ENDBRANCH   9   6
ENDBRANCH  14  12
BRANCH  17  18
ATOM     18  C   UNL     1      -4.618  -0.089  24.379  0.00  0.00    +0.101 C 
BRANCH  18  19
ATOM     19  C   UNL     1      -4.187  -0.670  24.774  0.00  0.00    +0.012 A 
ATOM     20  C   UNL     1      -3.815  -0.584  25.506  0.00  0.00    +0.073 A 
ATOM     21  N   UNL     1      -3.449  -1.300  25.692  0.00  0.00    -0.324 N 
ATOM     22  C   UNL     1      -3.014  -1.459  26.375  0.00  0.00    +0.130 C 
ATOM     23  C   UNL     1      -3.594  -1.827  25.075  0.00  0.00    +0.060 A 
ATOM     24  C   UNL     1      -4.050  -1.438  24.508  0.00  0.00    +0.015 A 
ATOM     25  C   UNL     1      -4.282  -1.835  23.823  0.00  0.00    +0.001 A 
ATOM     26  C   UNL     1      -4.058  -2.620  23.704  0.00  0.00    +0.000 A 
ATOM     27  C   UNL     1      -3.602  -3.009  24.271  0.00  0.00    +0.001 A 
ATOM     28  C   UNL     1      -3.370  -2.613  24.957  0.00  0.00    +0.017 A 
ENDBRANCH  18  19
ENDBRANCH  17  18
TORSDOF 5
ENDMDL
MODEL 3
REMARK VINA RESULT:     -11.7      1.665      2.683
REMARK  Name = 
REMARK  5 active torsions:
REMARK  status: ('A' for Active; 'I' for Inactive)
REMARK    1  A    between atoms: O_2  and  C_3
REMARK    2  A    between atoms: C_6  and  C_9
REMARK    3  A    between atoms: C_12  and  C_14
REMARK    4  A    between atoms: N_17  and  C_18
REMARK    5  A    between atoms: C_18  and  C_19
REMARK                            x       y       z     vdW  Elec       q    Type
REMARK                         _______ _______ _______ _____ _____    ______ ____
ROOT
ATOM     14  C   UNL     1      -0.601   0.824  24.969  0.00  0.00    +0.096 C 
ATOM     15  C   UNL     1      -0.159   1.117  24.337  0.00  0.00    +0.028 C 
ATOM     16  C   UNL     1      -0.002   1.913  24.482  0.00  0.00    +0.073 C 
ATOM     17  N   UNL     1      -0.345   2.113  25.204  0.00  0.00    -0.268 NA
ATOM     29  C   UNL     1      -0.715   1.440  25.505  0.00  0.00    +0.082 C 
ENDROOT
BRANCH  14  12
ATOM      9  C   UNL     1      -1.644  -1.039  24.962  0.00  0.00    +0.250 A 
ATOM     10  N   UNL     1      -0.967  -1.236  25.390  0.00  0.00    -0.107 NA
ATOM     11  N   UNL     1      -0.494  -0.563  25.445  0.00  0.00    -0.111 NA
ATOM     12  C   UNL     1      -0.878   0.051  25.051  0.00  0.00    +0.227 A 
ATOM     13  O   UNL     1      -1.589  -0.242  24.752  0.00  0.00    -0.419 OA
BRANCH   9   6
ATOM      3  C   UNL     1      -3.512  -2.563  24.404  0.00  0.00    +0.139 A 
ATOM      4  C   UNL     1      -2.732  -2.823  24.331  0.00  0.00    +0.037 A 
ATOM      5  C   UNL     1      -2.109  -2.314  24.517  0.00  0.00    +0.008 A 
ATOM      6  C   UNL     1      -2.267  -1.547  24.776  0.00  0.00    +0.055 A 
ATOM      7  C   UNL     1      -3.047  -1.288  24.848  0.00  0.00    +0.008 A 
ATOM      8  C   UNL     1      -3.669  -1.796  24.662  0.00  0.00    +0.037 A 
BRANCH   3   2
ATOM      1  C   UNL     1      -4.647  -2.886  23.598  0.00  0.00    +0.252 C 
ATOM      2  O   UNL     1      -4.134  -3.072  24.218  0.00  0.00    -0.471 OA
ENDBRANCH   3   2
ENDBRANCH   9   6
ENDBRANCH  14  12
BRANCH  17  18
ATOM     18  C   UNL     1      -0.323   2.856  25.563  0.00  0.00    +0.101 C 
BRANCH  18  19
ATOM     19  C   UNL     1      -0.999   3.328  25.579  0.00  0.00    +0.012 A 
ATOM     20  C   UNL     1      -1.741   3.103  25.864  0.00  0.00    +0.073 A 
ATOM     21  N   UNL     1      -2.253   3.743  25.773  0.00  0.00    -0.324 N 
ATOM     22  C   UNL     1      -3.050   3.760  25.986  0.00  0.00    +0.130 C 
ATOM     23  C   UNL     1      -1.829   4.363  25.432  0.00  0.00    +0.060 A 
ATOM     24  C   UNL     1      -1.054   4.106  25.312  0.00  0.00    +0.015 A 
ATOM     25  C   UNL     1      -0.499   4.615  24.975  0.00  0.00    +0.001 A 
ATOM     26  C   UNL     1      -0.717   5.380  24.759  0.00  0.00    +0.000 A 
ATOM     27  C   UNL     1      -1.492   5.636  24.879  0.00  0.00    +0.001 A 
ATOM     28  C   UNL     1      -2.048   5.129  25.216  0.00  0.00    +0.017 A 
ENDBRANCH  18  19
ENDBRANCH  17  18
TORSDOF 5
ENDMDL
MODEL 4
REMARK VINA RESULT:     -11.6      1.908      6.203
REMARK  Name = 
REMARK  5 active torsions:
REMARK  status: ('A' for Active; 'I' for Inactive)
REMARK    1  A    between atoms: O_2  and  C_3
REMARK    2  A    between atoms: C_6  and  C_9
REMARK    3  A    between atoms: C_12  and  C_14
REMARK    4  A    between atoms: N_17  and  C_18
REMARK    5  A    between atoms: C_18  and  C_19
REMARK                            x       y       z     vdW  Elec       q    Type
REMARK                         _______ _______ _______ _____ _____    ______ ____
ROOT
ATOM     14  C   UNL     1      -0.950   0.598  25.376  0.00  0.00    +0.096 C 
ATOM     15  C   UNL     1      -0.510   0.083  24.904  0.00  0.00    +0.028 C 
ATOM     16  C   UNL     1      -0.908  -0.639  24.875  0.00  0.00    +0.073 C 
ATOM     17  N   UNL     1      -1.594  -0.571  25.327  0.00  0.00    -0.268 NA
ATOM     29  C   UNL     1      -1.620   0.194  25.637  0.00  0.00    +0.082 C 
ENDROOT
BRANCH  14  12
ATOM      9  C   UNL     1      -0.739   2.715  25.561  0.00  0.00    +0.250 A 
ATOM     10  N   UNL     1      -0.166   2.450  26.092  0.00  0.00    -0.107 NA
ATOM     11  N   UNL     1      -0.175   1.625  26.088  0.00  0.00    -0.111 NA
ATOM     12  C   UNL     1      -0.754   1.379  25.554  0.00  0.00    +0.227 A 
ATOM     13  O   UNL     1      -1.102   2.052  25.228  0.00  0.00    -0.419 OA
BRANCH   9   6
ATOM      3  C   UNL     1      -1.275   5.077  25.055  0.00  0.00    +0.139 A 
ATOM      4  C   UNL     1      -1.800   4.621  25.499  0.00  0.00    +0.037 A 
ATOM      5  C   UNL     1      -1.621   3.833  25.667  0.00  0.00    +0.008 A 
ATOM      6  C   UNL     1      -0.918   3.502  25.392  0.00  0.00    +0.055 A 
ATOM      7  C   UNL     1      -0.393   3.958  24.948  0.00  0.00    +0.008 A 
ATOM      8  C   UNL     1      -0.571   4.745  24.780  0.00  0.00    +0.037 A 
BRANCH   3   2
ATOM      1  C   UNL     1      -2.204   6.163  25.062  0.00  0.00    +0.252 C 
ATOM      2  O   UNL     1      -1.454   5.864  24.887  0.00  0.00    -0.471 OA
ENDBRANCH   3   2
ENDBRANCH   9   6
ENDBRANCH  14  12
BRANCH  17  18
ATOM     18  C   UNL     1      -2.156  -1.162  25.450  0.00  0.00    +0.101 C 
BRANCH  18  19
ATOM     19  C   UNL     1      -2.871  -1.144  25.040  0.00  0.00    +0.012 A 
ATOM     20  C   UNL     1      -3.342  -0.477  24.915  0.00  0.00    +0.073 A 
ATOM     21  N   UNL     1      -4.003  -0.709  24.481  0.00  0.00    -0.324 N 
ATOM     22  C   UNL     1      -4.618  -0.217  24.234  0.00  0.00    +0.130 C 
ATOM     23  C   UNL     1      -3.942  -1.518  24.337  0.00  0.00    +0.060 A 
ATOM     24  C   UNL     1      -3.243  -1.787  24.682  0.00  0.00    +0.015 A 
ATOM     25  C   UNL     1      -3.035  -2.584  24.626  0.00  0.00    +0.001 A 
ATOM     26  C   UNL     1      -3.525  -3.111  24.225  0.00  0.00    +0.000 A 
ATOM     27  C   UNL     1      -4.225  -2.842  23.880  0.00  0.00    +0.001 A 
ATOM     28  C   UNL     1      -4.434  -2.046  23.935  0.00  0.00    +0.017 A 
ENDBRANCH  18  19
ENDBRANCH  17  18
TORSDOF 5
ENDMDL
MODEL 5
REMARK VINA RESULT:     -10.4      4.082      6.626
REMARK  Name = 
REMARK  5 active torsions:
REMARK  status: ('A' for Active; 'I' for Inactive)
REMARK    1  A    between atoms: O_2  and  C_3
REMARK    2  A    between atoms: C_6  and  C_9
REMARK    3  A    between atoms: C_12  and  C_14
REMARK    4  A    between atoms: N_17  and  C_18
REMARK    5  A    between atoms: C_18  and  C_19
REMARK                            x       y       z     vdW  Elec       q    Type
REMARK                         _______ _______ _______ _____ _____    ______ ____
ROOT
ATOM     14  C   UNL     1      -0.010   0.117  23.881  0.00  0.00    +0.096 C 
ATOM     15  C   UNL     1      -0.340   0.806  24.190  0.00  0.00    +0.028 C 
ATOM     16  C   UNL     1      -0.992   0.594  24.648  0.00  0.00    +0.073 C 
ATOM     17  N   UNL     1      -1.066  -0.227  24.622  0.00  0.00    -0.268 NA
ATOM     29  C   UNL     1      -0.458  -0.522  24.148  0.00  0.00    +0.082 C 
ENDROOT
BRANCH  14  12
ATOM      9  C   UNL     1       1.916   0.098  22.959  0.00  0.00    +0.250 A 
ATOM     10  N   UNL     1       1.430  -0.080  22.317  0.00  0.00    -0.107 NA
ATOM     11  N   UNL     1       0.649  -0.095  22.584  0.00  0.00    -0.111 NA
ATOM     12  C   UNL     1       0.653   0.074  23.391  0.00  0.00    +0.227 A 
ATOM     13  O   UNL     1       1.435   0.193  23.623  0.00  0.00    -0.419 OA
BRANCH   9   6
ATOM      3  C   UNL     1       4.381   0.309  22.904  0.00  0.00    +0.139 A 
ATOM      4  C   UNL     1       4.034  -0.405  23.128  0.00  0.00    +0.037 A 
ATOM      5  C   UNL     1       3.211  -0.475  23.146  0.00  0.00    +0.008 A 
ATOM      6  C   UNL     1       2.737   0.168  22.941  0.00  0.00    +0.055 A 
ATOM      7  C   UNL     1       3.086   0.882  22.717  0.00  0.00    +0.008 A 
ATOM      8  C   UNL     1       3.907   0.952  22.699  0.00  0.00    +0.037 A 
BRANCH   3   2
ATOM      1  C   UNL     1       5.655   0.082  23.510  0.00  0.00    +0.252 C 
ATOM      2  O   UNL     1       5.203   0.378  22.886  0.00  0.00    -0.471 OA
ENDBRANCH   3   2
ENDBRANCH   9   6
ENDBRANCH  14  12
BRANCH  17  18
ATOM     18  C   UNL     1      -1.644  -0.675  25.003  0.00  0.00    +0.101 C 
BRANCH  18  19
ATOM     19  C   UNL     1      -2.424  -0.657  24.736  0.00  0.00    +0.012 A 
ATOM     20  C   UNL     1      -2.868   0.022  24.584  0.00  0.00    +0.073 A 
ATOM     21  N   UNL     1      -3.616  -0.215  24.327  0.00  0.00    -0.324 N 
ATOM     22  C   UNL     1      -4.237   0.286  24.115  0.00  0.00    +0.130 C 
ATOM     23  C   UNL     1      -3.633  -1.039  24.320  0.00  0.00    +0.060 A 
ATOM     24  C   UNL     1      -2.897  -1.312  24.573  0.00  0.00    +0.015 A 
ATOM     25  C   UNL     1      -2.752  -2.123  24.621  0.00  0.00    +0.001 A 
ATOM     26  C   UNL     1      -3.344  -2.660  24.418  0.00  0.00    +0.000 A 
ATOM     27  C   UNL     1      -4.080  -2.387  24.166  0.00  0.00    +0.001 A 
ATOM     28  C   UNL     1      -4.225  -1.577  24.117  0.00  0.00    +0.017 A 
ENDBRANCH  18  19
ENDBRANCH  17  18
TORSDOF 5
ENDMDL
MODEL 6
REMARK VINA RESULT:     -10.2      3.060      4.719
REMARK  Name = 
REMARK  5 active torsions:
REMARK  status: ('A' for Active; 'I' for Inactive)
REMARK    1  A    between atoms: O_2  and  C_3
REMARK    2  A    between atoms: C_6  and  C_9
REMARK    3  A    between atoms: C_12  and  C_14
REMARK    4  A    between atoms: N_17  and  C_18
REMARK    5  A    between atoms: C_18  and  C_19
REMARK                            x       y       z     vdW  Elec       q    Type
REMARK                         _______ _______ _______ _____ _____    ______ ____
ROOT
ATOM     14  C   UNL     1      -2.090  -0.098  24.601  0.00  0.00    +0.096 C 
ATOM     15  C   UNL     1      -2.550  -0.391  25.221  0.00  0.00    +0.028 C 
ATOM     16  C   UNL     1      -3.284  -0.017  25.192  0.00  0.00    +0.073 C 
ATOM     17  N   UNL     1      -3.279   0.507  24.555  0.00  0.00    -0.268 NA
ATOM     29  C   UNL     1      -2.540   0.456  24.190  0.00  0.00    +0.082 C 
ENDROOT
BRANCH  14  12
ATOM      9  C   UNL     1      -0.074  -0.319  23.932  0.00  0.00    +0.250 A 
ATOM     10  N   UNL     1      -0.173  -1.009  24.374  0.00  0.00    -0.107 NA
ATOM     11  N   UNL     1      -0.939  -1.010  24.678  0.00  0.00    -0.111 NA
ATOM     12  C   UNL     1      -1.315  -0.322  24.425  0.00  0.00    +0.227 A 
ATOM     13  O   UNL     1      -0.781   0.106  23.964  0.00  0.00    -0.419 OA
BRANCH   9   6
ATOM      3  C   UNL     1       1.977   0.358  22.726  0.00  0.00    +0.139 A 
ATOM      4  C   UNL     1       1.700   0.814  23.355  0.00  0.00    +0.037 A 
ATOM      5  C   UNL     1       1.015   0.588  23.757  0.00  0.00    +0.008 A 
ATOM      6  C   UNL     1       0.609  -0.093  23.530  0.00  0.00    +0.055 A 
ATOM      7  C   UNL     1       0.888  -0.549  22.901  0.00  0.00    +0.008 A 
ATOM      8  C   UNL     1       1.572  -0.324  22.499  0.00  0.00    +0.037 A 
BRANCH   3   2
ATOM      1  C   UNL     1       3.396   0.530  22.698  0.00  0.00    +0.252 C 
ATOM      2  O   UNL     1       2.661   0.584  22.324  0.00  0.00    -0.471 OA
ENDBRANCH   3   2
ENDBRANCH   9   6
ENDBRANCH  14  12
BRANCH  17  18
ATOM     18  C   UNL     1      -3.903   0.995  24.323  0.00  0.00    +0.101 C 
BRANCH  18  19
ATOM     19  C   UNL     1      -3.987   1.744  24.658  0.00  0.00    +0.012 A 
ATOM     20  C   UNL     1      -3.389   2.305  24.748  0.00  0.00    +0.073 A 
ATOM     21  N   UNL     1      -3.716   2.971  25.107  0.00  0.00    -0.324 N 
ATOM     22  C   UNL     1      -3.314   3.665  25.300  0.00  0.00    +0.130 C 
ATOM     23  C   UNL     1      -4.516   2.822  25.239  0.00  0.00    +0.060 A 
ATOM     24  C   UNL     1      -4.684   2.064  24.961  0.00  0.00    +0.015 A 
ATOM     25  C   UNL     1      -5.450   1.762  25.021  0.00  0.00    +0.001 A 
ATOM     26  C   UNL     1      -6.048   2.219  25.358  0.00  0.00    +0.000 A 
ATOM     27  C   UNL     1      -5.880   2.978  25.636  0.00  0.00    +0.001 A 
ATOM     28  C   UNL     1      -5.115   3.280  25.577  0.00  0.00    +0.017 A 
ENDBRANCH  18  19
ENDBRANCH  17  18
TORSDOF 5
ENDMDL
