MODEL 1
REMARK VINA RESULT:     -10.7      0.000      0.000
REMARK  Name = 
REMARK  3 active torsions:
REMARK  status: ('A' for Active; 'I' for Inactive)
REMARK    1  A    between atoms: C_2  and  C_5
REMARK    2  A    between atoms: C_8  and  C_10
REMARK    3  A    between atoms: C_15  and  C_17
REMARK                            x       y       z     vdW  Elec       q    Type
REMARK                         _______ _______ _______ _____ _____    ______ ____
ROOT
ATOM     10  C   UNL     1      -4.602   1.255  24.834  0.00  0.00    +0.100 C 
ATOM     11  C   UNL     1      -5.415   1.368  24.918  0.00  0.00    +0.033 C 
ATOM     12  C   UNL     1      -5.542   2.152  25.142  0.00  0.00    +0.094 C 
ATOM     13  N   UNL     1      -4.808   2.524  25.197  0.00  0.00    -0.279 N 
ATOM     14  C   UNL     1      -4.227   1.970  25.007  0.00  0.00    +0.103 C 
ATOM     15  C   UNL     1      -4.677   3.311  25.405  0.00  0.00    +0.225 C 
ATOM     16  O   UNL     1      -5.317   3.802  25.582  0.00  0.00    -0.275 OA
ENDROOT
BRANCH  10   8
ATOM      5  C   UNL     1      -3.808  -0.714  24.615  0.00  0.00    +0.225 A 
ATOM      6  N   UNL     1      -3.501  -0.342  23.945  0.00  0.00    -0.112 NA
ATOM      7  N   UNL     1      -3.762   0.441  23.946  0.00  0.00    -0.112 NA
ATOM      8  C   UNL     1      -4.229   0.553  24.616  0.00  0.00    +0.227 A 
ATOM      9  O   UNL     1      -4.258  -0.161  25.029  0.00  0.00    -0.423 OA
BRANCH   5   2
ATOM      1  C   UNL     1      -3.564  -2.287  25.048  0.00  0.00    +0.009 C 
ATOM      2  C   UNL     1      -3.686  -1.501  24.832  0.00  0.00    +0.070 C 
ATOM      3  C   UNL     1      -3.322  -1.252  25.529  0.00  0.00    +0.009 C 
ATOM      4  C   UNL     1      -4.049  -1.749  24.134  0.00  0.00    +0.009 C 
ENDBRANCH   5   2
ENDBRANCH  10   8
BRANCH  15  17
ATOM     17  C   UNL     1      -3.908   3.608  25.437  0.00  0.00    +0.077 C 
ATOM     18  C   UNL     1      -3.241   3.816  25.875  0.00  0.00    +0.010 C 
ATOM     19  C   UNL     1      -3.244   3.913  25.055  0.00  0.00    +0.010 C 
ENDBRANCH  15  17
TORSDOF 3
ENDMDL
MODEL 2
REMARK VINA RESULT:     -10.4      1.164      1.571
REMARK  Name = 
REMARK  3 active torsions:
REMARK  status: ('A' for Active; 'I' for Inactive)
REMARK    1  A    between atoms: C_2  and  C_5
REMARK    2  A    between atoms: C_8  and  C_10
REMARK    3  A    between atoms: C_15  and  C_17
REMARK                            x       y       z     vdW  Elec       q    Type
REMARK                         _______ _______ _______ _____ _____    ______ ____
ROOT
ATOM     10  C   UNL     1      -3.662   0.747  24.409  0.00  0.00    +0.100 C 
ATOM     11  C   UNL     1      -3.193   1.053  23.804  0.00  0.00    +0.033 C 
ATOM     12  C   UNL     1      -3.354   1.860  23.739  0.00  0.00    +0.094 C 
ATOM     13  N   UNL     1      -3.923   2.053  24.304  0.00  0.00    -0.279 N 
ATOM     14  C   UNL     1      -4.114   1.365  24.719  0.00  0.00    +0.103 C 
ATOM     15  C   UNL     1      -4.245   2.801  24.432  0.00  0.00    +0.225 C 
ATOM     16  O   UNL     1      -3.998   3.440  23.972  0.00  0.00    -0.275 OA
ENDROOT
BRANCH  10   8
ATOM      5  C   UNL     1      -3.711  -1.373  24.660  0.00  0.00    +0.225 A 
ATOM      6  N   UNL     1      -3.697  -1.119  25.445  0.00  0.00    -0.112 NA
ATOM      7  N   UNL     1      -3.677  -0.294  25.446  0.00  0.00    -0.112 NA
ATOM      8  C   UNL     1      -3.679  -0.038  24.662  0.00  0.00    +0.227 A 
ATOM      9  O   UNL     1      -3.699  -0.704  24.176  0.00  0.00    -0.423 OA
BRANCH   5   2
ATOM      1  C   UNL     1      -3.754  -2.940  24.147  0.00  0.00    +0.009 C 
ATOM      2  C   UNL     1      -3.732  -2.156  24.403  0.00  0.00    +0.070 C 
ATOM      3  C   UNL     1      -3.148  -2.352  24.952  0.00  0.00    +0.009 C 
ATOM      4  C   UNL     1      -4.317  -1.961  23.855  0.00  0.00    +0.009 C 
ENDBRANCH   5   2
ENDBRANCH  10   8
BRANCH  15  17
ATOM     17  C   UNL     1      -4.812   2.911  25.021  0.00  0.00    +0.077 C 
ATOM     18  C   UNL     1      -5.591   2.839  25.284  0.00  0.00    +0.010 C 
ATOM     19  C   UNL     1      -5.018   3.172  25.775  0.00  0.00    +0.010 C 
ENDBRANCH  15  17
TORSDOF 3
ENDMDL
MODEL 3
REMARK VINA RESULT:     -10.3      1.700      4.307
REMARK  Name = 
REMARK  3 active torsions:
REMARK  status: ('A' for Active; 'I' for Inactive)
REMARK    1  A    between atoms: C_2  and  C_5
REMARK    2  A    between atoms: C_8  and  C_10
REMARK    3  A    between atoms: C_15  and  C_17
REMARK                            x       y       z     vdW  Elec       q    Type
REMARK                         _______ _______ _______ _____ _____    ______ ____
ROOT
ATOM     10  C   UNL     1      -3.996   3.362  25.428  0.00  0.00    +0.100 C 
ATOM     11  C   UNL     1      -4.745   3.707  25.413  0.00  0.00    +0.033 C 
ATOM     12  C   UNL     1      -5.293   3.120  25.227  0.00  0.00    +0.094 C 
ATOM     13  N   UNL     1      -4.884   2.412  25.125  0.00  0.00    -0.279 N 
ATOM     14  C   UNL     1      -4.081   2.561  25.249  0.00  0.00    +0.103 C 
ATOM     15  C   UNL     1      -5.217   1.682  24.934  0.00  0.00    +0.225 C 
ATOM     16  O   UNL     1      -6.033   1.616  24.826  0.00  0.00    -0.275 OA
ENDROOT
BRANCH  10   8
ATOM      5  C   UNL     1      -2.076   4.295  25.450  0.00  0.00    +0.225 A 
ATOM      6  N   UNL     1      -2.310   4.391  26.236  0.00  0.00    -0.112 NA
ATOM      7  N   UNL     1      -3.057   4.053  26.322  0.00  0.00    -0.112 NA
ATOM      8  C   UNL     1      -3.286   3.748  25.591  0.00  0.00    +0.227 A 
ATOM      9  O   UNL     1      -2.679   3.898  25.052  0.00  0.00    -0.423 OA
BRANCH   5   2
ATOM      1  C   UNL     1      -0.652   4.808  24.792  0.00  0.00    +0.009 C 
ATOM      2  C   UNL     1      -1.364   4.552  25.121  0.00  0.00    +0.070 C 
ATOM      3  C   UNL     1      -1.072   3.781  25.152  0.00  0.00    +0.009 C 
ATOM      4  C   UNL     1      -1.656   5.323  25.090  0.00  0.00    +0.009 C 
ENDBRANCH   5   2
ENDBRANCH  10   8
BRANCH  15  17
ATOM     17  C   UNL     1      -4.735   1.017  24.850  0.00  0.00    +0.077 C 
ATOM     18  C   UNL     1      -4.389   0.341  25.171  0.00  0.00    +0.010 C 
ATOM     19  C   UNL     1      -4.247   0.543  24.384  0.00  0.00    +0.010 C 
ENDBRANCH  15  17
TORSDOF 3
ENDMDL
MODEL 4
REMARK VINA RESULT:     -10.0      1.343      4.291
REMARK  Name = 
REMARK  3 active torsions:
REMARK  status: ('A' for Active; 'I' for Inactive)
REMARK    1  A    between atoms: C_2  and  C_5
REMARK    2  A    between atoms: C_8  and  C_10
REMARK    3  A    between atoms: C_15  and  C_17
REMARK                            x       y       z     vdW  Elec       q    Type
REMARK                         _______ _______ _______ _____ _____    ______ ____
ROOT
ATOM     10  C   UNL     1      -2.928   0.533  24.547  0.00  0.00    +0.100 C 
ATOM     11  C   UNL     1      -2.108   0.608  24.590  0.00  0.00    +0.033 C 
ATOM     12  C   UNL     1      -1.785  -0.150  24.645  0.00  0.00    +0.094 C 
ATOM     13  N   UNL     1      -2.405  -0.693  24.636  0.00  0.00    -0.279 N 
ATOM     14  C   UNL     1      -3.113  -0.272  24.576  0.00  0.00    +0.103 C 
ATOM     15  C   UNL     1      -2.333  -1.513  24.680  0.00  0.00    +0.225 C 
ATOM     16  O   UNL     1      -1.585  -1.858  24.739  0.00  0.00    -0.275 OA
ENDROOT
BRANCH  10   8
ATOM      5  C   UNL     1      -4.438   2.025  24.773  0.00  0.00    +0.225 A 
ATOM      6  N   UNL     1      -4.171   2.183  24.008  0.00  0.00    -0.112 NA
ATOM      7  N   UNL     1      -3.573   1.642  23.831  0.00  0.00    -0.112 NA
ATOM      8  C   UNL     1      -3.470   1.151  24.486  0.00  0.00    +0.227 A 
ATOM      9  O   UNL     1      -4.005   1.388  25.068  0.00  0.00    -0.423 OA
BRANCH   5   2
ATOM      1  C   UNL     1      -5.628   2.842  25.572  0.00  0.00    +0.009 C 
ATOM      2  C   UNL     1      -5.033   2.434  25.173  0.00  0.00    +0.070 C 
ATOM      3  C   UNL     1      -4.493   3.023  25.375  0.00  0.00    +0.009 C 
ATOM      4  C   UNL     1      -5.573   1.844  24.970  0.00  0.00    +0.009 C 
ENDBRANCH   5   2
ENDBRANCH  10   8
BRANCH  15  17
ATOM     17  C   UNL     1      -3.007  -1.989  24.665  0.00  0.00    +0.077 C 
ATOM     18  C   UNL     1      -3.582  -2.425  25.065  0.00  0.00    +0.010 C 
ATOM     19  C   UNL     1      -3.598  -2.377  24.241  0.00  0.00    +0.010 C 
ENDBRANCH  15  17
TORSDOF 3
ENDMDL
MODEL 5
REMARK VINA RESULT:      -9.9      1.438      1.724
REMARK  Name = 
REMARK  3 active torsions:
REMARK  status: ('A' for Active; 'I' for Inactive)
REMARK    1  A    between atoms: C_2  and  C_5
REMARK    2  A    between atoms: C_8  and  C_10
REMARK    3  A    between atoms: C_15  and  C_17
REMARK                            x       y       z     vdW  Elec       q    Type
REMARK                         _______ _______ _______ _____ _____    ______ ____
ROOT
ATOM     10  C   UNL     1      -3.720   1.939  24.725  0.00  0.00    +0.100 C 
ATOM     11  C   UNL     1      -4.129   2.532  24.322  0.00  0.00    +0.033 C 
ATOM     12  C   UNL     1      -3.668   3.216  24.340  0.00  0.00    +0.094 C 
ATOM     13  N   UNL     1      -2.975   3.046  24.753  0.00  0.00    -0.279 N 
ATOM     14  C   UNL     1      -3.006   2.256  24.991  0.00  0.00    +0.103 C 
ATOM     15  C   UNL     1      -2.357   3.572  24.902  0.00  0.00    +0.225 C 
ATOM     16  O   UNL     1      -2.403   4.350  24.628  0.00  0.00    -0.275 OA
ENDROOT
BRANCH  10   8
ATOM      5  C   UNL     1      -4.023  -0.170  24.864  0.00  0.00    +0.225 A 
ATOM      6  N   UNL     1      -4.731   0.114  25.178  0.00  0.00    -0.112 NA
ATOM      7  N   UNL     1      -4.703   0.939  25.164  0.00  0.00    -0.112 NA
ATOM      8  C   UNL     1      -3.978   1.164  24.841  0.00  0.00    +0.227 A 
ATOM      9  O   UNL     1      -3.558   0.479  24.656  0.00  0.00    -0.423 OA
BRANCH   5   2
ATOM      1  C   UNL     1      -3.610  -1.757  24.683  0.00  0.00    +0.009 C 
ATOM      2  C   UNL     1      -3.816  -0.964  24.773  0.00  0.00    +0.070 C 
ATOM      3  C   UNL     1      -3.510  -0.971  25.539  0.00  0.00    +0.009 C 
ATOM      4  C   UNL     1      -4.123  -0.956  24.007  0.00  0.00    +0.009 C 
ENDBRANCH   5   2
ENDBRANCH  10   8
BRANCH  15  17
ATOM     17  C   UNL     1      -1.695   3.323  25.326  0.00  0.00    +0.077 C 
ATOM     18  C   UNL     1      -0.931   3.012  25.338  0.00  0.00    +0.010 C 
ATOM     19  C   UNL     1      -1.311   3.201  26.045  0.00  0.00    +0.010 C 
ENDBRANCH  15  17
TORSDOF 3
ENDMDL
