MODEL 1
REMARK VINA RESULT:      -9.5      0.000      0.000
REMARK  Name = 
REMARK  6 active torsions:
REMARK  status: ('A' for Active; 'I' for Inactive)
REMARK    1  A    between atoms: N_3  and  C_4
REMARK    2  A    between atoms: C_4  and  C_5
REMARK    3  A    between atoms: N_11  and  C_12
REMARK    4  A    between atoms: C_16  and  N_20
REMARK    5  A    between atoms: C_24  and  O_25
REMARK    6  A    between atoms: O_25  and  C_26
REMARK                            x       y       z     vdW  Elec       q    Type
REMARK                         _______ _______ _______ _____ _____    ______ ____
ROOT
ATOM     12  C   UNL     1       0.013   1.129  23.901  0.00  0.00    +0.156 C 
ATOM     13  C   UNL     1      -0.474   1.242  23.245  0.00  0.00    +0.166 C 
ATOM     14  O   UNL     1      -1.254   1.117  23.482  0.00  0.00    -0.350 OA
ATOM     15  C   UNL     1      -1.250   0.928  24.284  0.00  0.00    +0.169 C 
ATOM     16  C   UNL     1      -1.728   0.734  24.928  0.00  0.00    +0.170 C 
ATOM     17  C   UNL     1      -1.241   0.621  25.584  0.00  0.00    +0.169 C 
ATOM     18  O   UNL     1      -0.461   0.745  25.346  0.00  0.00    -0.350 OA
ATOM     19  C   UNL     1      -0.466   0.935  24.543  0.00  0.00    +0.167 C 
ENDROOT
BRANCH  16  20
ATOM     20  N   UNL     1      -2.550   0.665  24.917  0.00  0.00    -0.180 N 
ATOM     21  N   UNL     1      -3.090   1.284  24.997  0.00  0.00    -0.040 NA
ATOM     22  N   UNL     1      -3.850   0.966  24.953  0.00  0.00    -0.020 NA
ATOM     23  N   UNL     1      -3.780   0.151  24.847  0.00  0.00    -0.071 NA
ATOM     24  C   UNL     1      -2.977  -0.035  24.824  0.00  0.00    +0.343 A 
BRANCH  24  25
ATOM     25  O   UNL     1      -2.656  -0.789  24.726  0.00  0.00    -0.421 OA
BRANCH  25  26
ATOM     26  C   UNL     1      -3.152  -1.431  24.571  0.00  0.00    +0.149 A 
ATOM     27  C   UNL     1      -3.599  -1.450  23.879  0.00  0.00    +0.038 A 
ATOM     28  C   UNL     1      -4.094  -2.091  23.724  0.00  0.00    +0.003 A 
ATOM     29  C   UNL     1      -4.142  -2.714  24.263  0.00  0.00    +0.000 A 
ATOM     30  C   UNL     1      -3.694  -2.696  24.957  0.00  0.00    +0.003 A 
ATOM     31  C   UNL     1      -3.199  -2.054  25.110  0.00  0.00    +0.038 A 
ENDBRANCH  25  26
ENDBRANCH  24  25
ENDBRANCH  16  20
BRANCH  12  11
ATOM      1  O   UNL     1       0.930   0.232  22.863  0.00  0.00    -0.249 OA
ATOM      2  C   UNL     1       1.294   0.749  23.393  0.00  0.00    +0.340 C 
ATOM      3  N   UNL     1       2.116   0.818  23.404  0.00  0.00    -0.182 NA
ATOM     11  N   UNL     1       0.835   1.198  23.912  0.00  0.00    -0.184 NA
BRANCH   3   4
ATOM      4  C   UNL     1       2.575   0.370  22.885  0.00  0.00    +0.143 C 
BRANCH   4   5
ATOM      5  C   UNL     1       3.392   0.330  22.986  0.00  0.00    -0.001 A 
ATOM      6  C   UNL     1       3.866   0.969  22.769  0.00  0.00    -0.003 A 
ATOM      7  C   UNL     1       4.684   0.929  22.870  0.00  0.00    -0.000 A 
ATOM      8  C   UNL     1       5.028   0.250  23.189  0.00  0.00    -0.000 A 
ATOM      9  C   UNL     1       4.553  -0.389  23.406  0.00  0.00    -0.000 A 
ATOM     10  C   UNL     1       3.736  -0.349  23.305  0.00  0.00    -0.003 A 
ENDBRANCH   4   5
ENDBRANCH   3   4
ENDBRANCH  12  11
TORSDOF 6
ENDMDL
MODEL 2
REMARK VINA RESULT:      -9.2      1.744      2.592
REMARK  Name = 
REMARK  6 active torsions:
REMARK  status: ('A' for Active; 'I' for Inactive)
REMARK    1  A    between atoms: N_3  and  C_4
REMARK    2  A    between atoms: C_4  and  C_5
REMARK    3  A    between atoms: N_11  and  C_12
REMARK    4  A    between atoms: C_16  and  N_20
REMARK    5  A    between atoms: C_24  and  O_25
REMARK    6  A    between atoms: O_25  and  C_26
REMARK                            x       y       z     vdW  Elec       q    Type
REMARK                         _______ _______ _______ _____ _____    ______ ____
ROOT
ATOM     12  C   UNL     1       0.300   0.950  23.813  0.00  0.00    +0.156 C 
ATOM     13  C   UNL     1      -0.155   0.663  23.189  0.00  0.00    +0.166 C 
ATOM     14  O   UNL     1      -0.935   0.604  23.449  0.00  0.00    -0.350 OA
ATOM     15  C   UNL     1      -0.962   0.854  24.234  0.00  0.00    +0.169 C 
ATOM     16  C   UNL     1      -1.460   0.973  24.881  0.00  0.00    +0.170 C 
ATOM     17  C   UNL     1      -1.005   1.260  25.505  0.00  0.00    +0.169 C 
ATOM     18  O   UNL     1      -0.225   1.320  25.245  0.00  0.00    -0.350 OA
ATOM     19  C   UNL     1      -0.198   1.069  24.459  0.00  0.00    +0.167 C 
ENDROOT
BRANCH  16  20
ATOM     20  N   UNL     1      -2.273   0.829  24.899  0.00  0.00    -0.180 N 
ATOM     21  N   UNL     1      -2.634   0.087  24.924  0.00  0.00    -0.040 NA
ATOM     22  N   UNL     1      -3.451   0.202  24.937  0.00  0.00    -0.020 NA
ATOM     23  N   UNL     1      -3.595   1.013  24.920  0.00  0.00    -0.071 NA
ATOM     24  C   UNL     1      -2.867   1.401  24.897  0.00  0.00    +0.343 A 
BRANCH  24  25
ATOM     25  O   UNL     1      -2.753   2.218  24.875  0.00  0.00    -0.421 OA
BRANCH  25  26
ATOM     26  C   UNL     1      -3.404   2.725  24.838  0.00  0.00    +0.149 A 
ATOM     27  C   UNL     1      -3.743   3.011  25.533  0.00  0.00    +0.038 A 
ATOM     28  C   UNL     1      -4.393   3.517  25.497  0.00  0.00    +0.003 A 
ATOM     29  C   UNL     1      -4.705   3.736  24.765  0.00  0.00    +0.000 A 
ATOM     30  C   UNL     1      -4.366   3.449  24.069  0.00  0.00    +0.003 A 
ATOM     31  C   UNL     1      -3.715   2.943  24.107  0.00  0.00    +0.038 A 
ENDBRANCH  25  26
ENDBRANCH  24  25
ENDBRANCH  16  20
BRANCH  12  11
ATOM      1  O   UNL     1       1.286  -0.003  22.896  0.00  0.00    -0.249 OA
ATOM      2  C   UNL     1       1.606   0.618  23.336  0.00  0.00    +0.340 C 
ATOM      3  N   UNL     1       2.418   0.761  23.317  0.00  0.00    -0.182 NA
ATOM     11  N   UNL     1       1.113   1.094  23.794  0.00  0.00    -0.184 NA
BRANCH   3   4
ATOM      4  C   UNL     1       2.911   0.285  22.859  0.00  0.00    +0.143 C 
BRANCH   4   5
ATOM      5  C   UNL     1       3.712   0.222  23.043  0.00  0.00    -0.001 A 
ATOM      6  C   UNL     1       4.006  -0.476  23.372  0.00  0.00    -0.003 A 
ATOM      7  C   UNL     1       4.808  -0.539  23.557  0.00  0.00    -0.000 A 
ATOM      8  C   UNL     1       5.316   0.095  23.413  0.00  0.00    -0.000 A 
ATOM      9  C   UNL     1       5.022   0.792  23.084  0.00  0.00    -0.000 A 
ATOM     10  C   UNL     1       4.221   0.855  22.899  0.00  0.00    -0.003 A 
ENDBRANCH   4   5
ENDBRANCH   3   4
ENDBRANCH  12  11
TORSDOF 6
ENDMDL
MODEL 3
REMARK VINA RESULT:      -8.8      2.550      4.050
REMARK  Name = 
REMARK  6 active torsions:
REMARK  status: ('A' for Active; 'I' for Inactive)
REMARK    1  A    between atoms: N_3  and  C_4
REMARK    2  A    between atoms: C_4  and  C_5
REMARK    3  A    between atoms: N_11  and  C_12
REMARK    4  A    between atoms: C_16  and  N_20
REMARK    5  A    between atoms: C_24  and  O_25
REMARK    6  A    between atoms: O_25  and  C_26
REMARK                            x       y       z     vdW  Elec       q    Type
REMARK                         _______ _______ _______ _____ _____    ______ ____
ROOT
ATOM     12  C   UNL     1      -0.368   1.014  24.757  0.00  0.00    +0.156 C 
ATOM     13  C   UNL     1      -0.164   0.678  24.032  0.00  0.00    +0.166 C 
ATOM     14  O   UNL     1      -0.370  -0.121  24.056  0.00  0.00    -0.350 OA
ATOM     15  C   UNL     1      -0.701  -0.277  24.794  0.00  0.00    +0.169 C 
ATOM     16  C   UNL     1      -1.033  -0.867  25.267  0.00  0.00    +0.170 C 
ATOM     17  C   UNL     1      -1.236  -0.530  25.991  0.00  0.00    +0.169 C 
ATOM     18  O   UNL     1      -1.030   0.268  25.967  0.00  0.00    -0.350 OA
ATOM     19  C   UNL     1      -0.699   0.425  25.228  0.00  0.00    +0.167 C 
ENDROOT
BRANCH  16  20
ATOM     20  N   UNL     1      -1.142  -1.656  25.051  0.00  0.00    -0.180 N 
ATOM     21  N   UNL     1      -0.544  -2.204  24.896  0.00  0.00    -0.040 NA
ATOM     22  N   UNL     1      -0.900  -2.922  24.702  0.00  0.00    -0.020 NA
ATOM     23  N   UNL     1      -1.717  -2.818  24.737  0.00  0.00    -0.071 NA
ATOM     24  C   UNL     1      -1.867  -2.036  24.953  0.00  0.00    +0.343 A 
BRANCH  24  25
ATOM     25  O   UNL     1      -2.611  -1.694  25.052  0.00  0.00    -0.421 OA
BRANCH  25  26
ATOM     26  C   UNL     1      -3.251  -1.960  24.604  0.00  0.00    +0.149 A 
ATOM     27  C   UNL     1      -3.507  -2.741  24.674  0.00  0.00    +0.038 A 
ATOM     28  C   UNL     1      -4.147  -3.008  24.227  0.00  0.00    +0.003 A 
ATOM     29  C   UNL     1      -4.530  -2.493  23.708  0.00  0.00    +0.000 A 
ATOM     30  C   UNL     1      -4.274  -1.711  23.638  0.00  0.00    +0.003 A 
ATOM     31  C   UNL     1      -3.634  -1.446  24.086  0.00  0.00    +0.038 A 
ENDBRANCH  25  26
ENDBRANCH  24  25
ENDBRANCH  16  20
BRANCH  12  11
ATOM      1  O   UNL     1      -0.997   2.219  23.821  0.00  0.00    -0.249 OA
ATOM      2  C   UNL     1      -0.574   2.407  24.505  0.00  0.00    +0.340 C 
ATOM      3  N   UNL     1      -0.465   3.195  24.720  0.00  0.00    -0.182 NA
ATOM     11  N   UNL     1      -0.259   1.804  24.972  0.00  0.00    -0.184 NA
BRANCH   3   4
ATOM      4  C   UNL     1      -0.779   3.798  24.252  0.00  0.00    +0.143 C 
BRANCH   4   5
ATOM      5  C   UNL     1      -1.102   4.469  24.606  0.00  0.00    -0.001 A 
ATOM      6  C   UNL     1      -0.698   5.187  24.574  0.00  0.00    -0.003 A 
ATOM      7  C   UNL     1      -1.021   5.859  24.928  0.00  0.00    -0.000 A 
ATOM      8  C   UNL     1      -1.748   5.813  25.315  0.00  0.00    -0.000 A 
ATOM      9  C   UNL     1      -2.153   5.094  25.347  0.00  0.00    -0.000 A 
ATOM     10  C   UNL     1      -1.830   4.423  24.993  0.00  0.00    -0.003 A 
ENDBRANCH   4   5
ENDBRANCH   3   4
ENDBRANCH  12  11
TORSDOF 6
ENDMDL
MODEL 4
REMARK VINA RESULT:      -8.6      2.320      2.914
REMARK  Name = 
REMARK  6 active torsions:
REMARK  status: ('A' for Active; 'I' for Inactive)
REMARK    1  A    between atoms: N_3  and  C_4
REMARK    2  A    between atoms: C_4  and  C_5
REMARK    3  A    between atoms: N_11  and  C_12
REMARK    4  A    between atoms: C_16  and  N_20
REMARK    5  A    between atoms: C_24  and  O_25
REMARK    6  A    between atoms: O_25  and  C_26
REMARK                            x       y       z     vdW  Elec       q    Type
REMARK                         _______ _______ _______ _____ _____    ______ ____
ROOT
ATOM     12  C   UNL     1      -0.153   2.521  24.866  0.00  0.00    +0.156 C 
ATOM     13  C   UNL     1      -0.314   2.182  25.600  0.00  0.00    +0.166 C 
ATOM     14  O   UNL     1      -1.041   2.472  25.860  0.00  0.00    -0.350 OA
ATOM     15  C   UNL     1      -1.329   2.991  25.288  0.00  0.00    +0.169 C 
ATOM     16  C   UNL     1      -1.955   3.491  25.093  0.00  0.00    +0.170 C 
ATOM     17  C   UNL     1      -1.794   3.831  24.360  0.00  0.00    +0.169 C 
ATOM     18  O   UNL     1      -1.067   3.540  24.099  0.00  0.00    -0.350 OA
ATOM     19  C   UNL     1      -0.779   3.021  24.673  0.00  0.00    +0.167 C 
ENDROOT
BRANCH  16  20
ATOM     20  N   UNL     1      -2.626   3.628  25.554  0.00  0.00    -0.180 N 
ATOM     21  N   UNL     1      -2.667   4.111  26.222  0.00  0.00    -0.040 NA
ATOM     22  N   UNL     1      -3.440   4.087  26.508  0.00  0.00    -0.020 NA
ATOM     23  N   UNL     1      -3.877   3.589  26.017  0.00  0.00    -0.071 NA
ATOM     24  C   UNL     1      -3.375   3.305  25.428  0.00  0.00    +0.343 A 
BRANCH  24  25
ATOM     25  O   UNL     1      -3.584   2.789  24.818  0.00  0.00    -0.421 OA
BRANCH  25  26
ATOM     26  C   UNL     1      -4.282   2.351  24.870  0.00  0.00    +0.149 A 
ATOM     27  C   UNL     1      -5.004   2.702  24.683  0.00  0.00    +0.038 A 
ATOM     28  C   UNL     1      -5.701   2.264  24.735  0.00  0.00    +0.003 A 
ATOM     29  C   UNL     1      -5.675   1.475  24.975  0.00  0.00    +0.000 A 
ATOM     30  C   UNL     1      -4.952   1.124  25.163  0.00  0.00    +0.003 A 
ATOM     31  C   UNL     1      -4.256   1.562  25.110  0.00  0.00    +0.038 A 
ENDBRANCH  25  26
ENDBRANCH  24  25
ENDBRANCH  16  20
BRANCH  12  11
ATOM      1  O   UNL     1       0.247   0.982  24.427  0.00  0.00    -0.249 OA
ATOM      2  C   UNL     1       0.719   1.615  24.185  0.00  0.00    +0.340 C 
ATOM      3  N   UNL     1       1.389   1.478  23.725  0.00  0.00    -0.182 NA
ATOM     11  N   UNL     1       0.519   2.385  24.405  0.00  0.00    -0.184 NA
BRANCH   3   4
ATOM      4  C   UNL     1       1.590   0.708  23.506  0.00  0.00    +0.143 C 
BRANCH   4   5
ATOM      5  C   UNL     1       2.245   0.574  23.024  0.00  0.00    -0.001 A 
ATOM      6  C   UNL     1       2.179   0.080  22.367  0.00  0.00    -0.003 A 
ATOM      7  C   UNL     1       2.835  -0.055  21.884  0.00  0.00    -0.000 A 
ATOM      8  C   UNL     1       3.557   0.304  22.060  0.00  0.00    -0.000 A 
ATOM      9  C   UNL     1       3.623   0.798  22.718  0.00  0.00    -0.000 A 
ATOM     10  C   UNL     1       2.967   0.933  23.200  0.00  0.00    -0.003 A 
ENDBRANCH   4   5
ENDBRANCH   3   4
ENDBRANCH  12  11
TORSDOF 6
ENDMDL
