MODEL 1
REMARK VINA RESULT:     -12.2      0.000      0.000
REMARK  Name = 
REMARK  4 active torsions:
REMARK  status: ('A' for Active; 'I' for Inactive)
REMARK    1  A    between atoms: C_2  and  C_18
REMARK    2  A    between atoms: C_8  and  O_10
REMARK    3  A    between atoms: O_10  and  C_11
REMARK    4  A    between atoms: C_11  and  C_12
REMARK                            x       y       z     vdW  Elec       q    Type
REMARK                         _______ _______ _______ _____ _____    ______ ____
ROOT
ATOM      1  O   UNL     1      -2.267   0.160  24.217  0.00  0.00    -0.270 OA
ATOM      2  C   UNL     1      -3.042   0.039  24.470  0.00  0.00    +0.249 C 
ATOM      3  N   UNL     1      -3.509   0.681  24.693  0.00  0.00    -0.271 N 
ATOM      4  C   UNL     1      -4.276   0.500  24.937  0.00  0.00    +0.126 C 
ATOM      5  C   UNL     1      -4.871   1.012  25.191  0.00  0.00    +0.164 C 
ATOM      6  O   UNL     1      -4.845   1.834  25.263  0.00  0.00    -0.349 OA
ATOM      7  C   UNL     1      -4.218   2.346  25.100  0.00  0.00    +0.173 C 
ATOM      8  C   UNL     1      -3.462   2.162  24.823  0.00  0.00    +0.165 C 
ATOM      9  C   UNL     1      -3.147   1.422  24.642  0.00  0.00    +0.126 C 
ENDROOT
BRANCH   2  18
ATOM     18  C   UNL     1      -3.352  -0.726  24.500  0.00  0.00    +0.054 A 
ATOM     19  C   UNL     1      -3.215  -1.199  25.161  0.00  0.00    +0.005 A 
ATOM     20  C   UNL     1      -3.524  -1.964  25.192  0.00  0.00    +0.000 A 
ATOM     21  C   UNL     1      -3.970  -2.253  24.562  0.00  0.00    +0.000 A 
ATOM     22  C   UNL     1      -4.107  -1.780  23.901  0.00  0.00    +0.000 A 
ATOM     23  C   UNL     1      -3.798  -1.015  23.870  0.00  0.00    +0.005 A 
ENDBRANCH   2  18
BRANCH   8  10
ATOM     10  O   UNL     1      -2.956   2.804  24.713  0.00  0.00    -0.347 OA
BRANCH  10  11
ATOM     11  C   UNL     1      -2.607   3.170  25.366  0.00  0.00    +0.169 C 
BRANCH  11  12
ATOM     12  C   UNL     1      -2.052   3.769  25.253  0.00  0.00    +0.007 A 
ATOM     13  C   UNL     1      -2.278   4.559  25.321  0.00  0.00    -0.002 A 
ATOM     14  C   UNL     1      -1.722   5.158  25.209  0.00  0.00    -0.000 A 
ATOM     15  C   UNL     1      -0.940   4.968  25.029  0.00  0.00    -0.000 A 
ATOM     16  C   UNL     1      -0.714   4.176  24.961  0.00  0.00    -0.000 A 
ATOM     17  C   UNL     1      -1.269   3.577  25.073  0.00  0.00    -0.002 A 
ENDBRANCH  11  12
ENDBRANCH  10  11
ENDBRANCH   8  10
TORSDOF 4
ENDMDL
MODEL 2
REMARK VINA RESULT:     -12.1      1.085      5.022
REMARK  Name = 
REMARK  4 active torsions:
REMARK  status: ('A' for Active; 'I' for Inactive)
REMARK    1  A    between atoms: C_2  and  C_18
REMARK    2  A    between atoms: C_8  and  O_10
REMARK    3  A    between atoms: O_10  and  C_11
REMARK    4  A    between atoms: C_11  and  C_12
REMARK                            x       y       z     vdW  Elec       q    Type
REMARK                         _______ _______ _______ _____ _____    ______ ____
ROOT
ATOM      1  O   UNL     1      -1.467   2.025  25.702  0.00  0.00    -0.270 OA
ATOM      2  C   UNL     1      -1.832   2.531  25.163  0.00  0.00    +0.249 C 
ATOM      3  N   UNL     1      -2.352   2.228  24.599  0.00  0.00    -0.271 N 
ATOM      4  C   UNL     1      -2.687   2.781  24.086  0.00  0.00    +0.126 C 
ATOM      5  C   UNL     1      -3.221   2.654  23.470  0.00  0.00    +0.164 C 
ATOM      6  O   UNL     1      -3.552   1.943  23.215  0.00  0.00    -0.349 OA
ATOM      7  C   UNL     1      -3.431   1.183  23.511  0.00  0.00    +0.173 C 
ATOM      8  C   UNL     1      -2.948   0.946  24.138  0.00  0.00    +0.165 C 
ATOM      9  C   UNL     1      -2.468   1.411  24.622  0.00  0.00    +0.126 C 
ENDROOT
BRANCH   2  18
ATOM     18  C   UNL     1      -1.677   3.341  25.188  0.00  0.00    +0.054 A 
ATOM     19  C   UNL     1      -1.017   3.646  24.799  0.00  0.00    +0.005 A 
ATOM     20  C   UNL     1      -0.862   4.457  24.824  0.00  0.00    +0.000 A 
ATOM     21  C   UNL     1      -1.367   4.960  25.236  0.00  0.00    +0.000 A 
ATOM     22  C   UNL     1      -2.028   4.656  25.624  0.00  0.00    +0.000 A 
ATOM     23  C   UNL     1      -2.183   3.845  25.600  0.00  0.00    +0.005 A 
ENDBRANCH   2  18
BRANCH   8  10
ATOM     10  O   UNL     1      -2.945   0.137  24.302  0.00  0.00    -0.347 OA
BRANCH  10  11
ATOM     11  C   UNL     1      -3.657  -0.259  24.433  0.00  0.00    +0.169 C 
BRANCH  11  12
ATOM     12  C   UNL     1      -3.662  -1.078  24.527  0.00  0.00    +0.007 A 
ATOM     13  C   UNL     1      -3.326  -1.418  25.199  0.00  0.00    -0.002 A 
ATOM     14  C   UNL     1      -3.330  -2.237  25.293  0.00  0.00    -0.000 A 
ATOM     15  C   UNL     1      -3.670  -2.718  24.715  0.00  0.00    -0.000 A 
ATOM     16  C   UNL     1      -4.006  -2.377  24.042  0.00  0.00    -0.000 A 
ATOM     17  C   UNL     1      -4.002  -1.558  23.948  0.00  0.00    -0.002 A 
ENDBRANCH  11  12
ENDBRANCH  10  11
ENDBRANCH   8  10
TORSDOF 4
ENDMDL
MODEL 3
REMARK VINA RESULT:     -12.0      1.104      1.984
REMARK  Name = 
REMARK  4 active torsions:
REMARK  status: ('A' for Active; 'I' for Inactive)
REMARK    1  A    between atoms: C_2  and  C_18
REMARK    2  A    between atoms: C_8  and  O_10
REMARK    3  A    between atoms: O_10  and  C_11
REMARK    4  A    between atoms: C_11  and  C_12
REMARK                            x       y       z     vdW  Elec       q    Type
REMARK                         _______ _______ _______ _____ _____    ______ ____
ROOT
ATOM      1  O   UNL     1      -3.777   0.408  24.871  0.00  0.00    -0.270 OA
ATOM      2  C   UNL     1      -3.164  -0.138  24.795  0.00  0.00    +0.249 C 
ATOM      3  N   UNL     1      -2.388   0.123  24.699  0.00  0.00    -0.271 N 
ATOM      4  C   UNL     1      -1.817  -0.469  24.628  0.00  0.00    +0.126 C 
ATOM      5  C   UNL     1      -1.002  -0.388  24.527  0.00  0.00    +0.164 C 
ATOM      6  O   UNL     1      -0.557   0.305  24.471  0.00  0.00    -0.349 OA
ATOM      7  C   UNL     1      -0.816   1.088  24.503  0.00  0.00    +0.173 C 
ATOM      8  C   UNL     1      -1.586   1.371  24.598  0.00  0.00    +0.165 C 
ATOM      9  C   UNL     1      -2.285   0.942  24.685  0.00  0.00    +0.126 C 
ENDROOT
BRANCH   2  18
ATOM     18  C   UNL     1      -3.327  -0.947  24.816  0.00  0.00    +0.054 A 
ATOM     19  C   UNL     1      -3.559  -1.338  24.128  0.00  0.00    +0.005 A 
ATOM     20  C   UNL     1      -3.723  -2.147  24.149  0.00  0.00    +0.000 A 
ATOM     21  C   UNL     1      -3.653  -2.564  24.857  0.00  0.00    +0.000 A 
ATOM     22  C   UNL     1      -3.421  -2.173  25.545  0.00  0.00    +0.000 A 
ATOM     23  C   UNL     1      -3.258  -1.364  25.524  0.00  0.00    +0.005 A 
ENDBRANCH   2  18
BRANCH   8  10
ATOM     10  O   UNL     1      -1.666   2.192  24.607  0.00  0.00    -0.347 OA
BRANCH  10  11
ATOM     11  C   UNL     1      -1.315   2.634  25.209  0.00  0.00    +0.169 C 
BRANCH  11  12
ATOM     12  C   UNL     1      -1.405   3.453  25.225  0.00  0.00    +0.007 A 
ATOM     13  C   UNL     1      -0.816   3.939  24.914  0.00  0.00    -0.002 A 
ATOM     14  C   UNL     1      -0.906   4.759  24.929  0.00  0.00    -0.000 A 
ATOM     15  C   UNL     1      -1.586   5.093  25.257  0.00  0.00    -0.000 A 
ATOM     16  C   UNL     1      -2.175   4.607  25.569  0.00  0.00    -0.000 A 
ATOM     17  C   UNL     1      -2.085   3.787  25.553  0.00  0.00    -0.002 A 
ENDBRANCH  11  12
ENDBRANCH  10  11
ENDBRANCH   8  10
TORSDOF 4
ENDMDL
