MODEL 1
REMARK VINA RESULT:     -11.2      0.000      0.000
REMARK  Name = 
REMARK  5 active torsions:
REMARK  status: ('A' for Active; 'I' for Inactive)
REMARK    1  A    between atoms: C_4  and  C_8
REMARK    2  A    between atoms: N_13  and  C_14
REMARK    3  A    between atoms: C_18  and  N_22
REMARK    4  A    between atoms: N_25  and  C_26
REMARK    5  A    between atoms: C_26  and  C_27
REMARK                            x       y       z     vdW  Elec       q    Type
REMARK                         _______ _______ _______ _____ _____    ______ ____
ROOT
ATOM     14  C   UNL     1      -1.015   1.703  24.878  0.00  0.00    +0.154 C 
ATOM     15  C   UNL     1      -0.540   2.239  25.286  0.00  0.00    +0.166 C 
ATOM     16  O   UNL     1       0.227   2.176  24.991  0.00  0.00    -0.350 OA
ATOM     17  C   UNL     1       0.227   1.601  24.401  0.00  0.00    +0.166 C 
ATOM     18  C   UNL     1       0.701   1.206  23.853  0.00  0.00    +0.156 C 
ATOM     19  C   UNL     1       0.226   0.669  23.444  0.00  0.00    +0.166 C 
ATOM     20  O   UNL     1      -0.542   0.732  23.740  0.00  0.00    -0.350 OA
ATOM     21  C   UNL     1      -0.541   1.308  24.331  0.00  0.00    +0.166 C 
ENDROOT
BRANCH  14  13
ATOM      8  C   UNL     1      -3.674   2.738  25.046  0.00  0.00    +0.086 A 
ATOM      9  C   UNL     1      -3.389   3.496  24.893  0.00  0.00    +0.040 A 
ATOM     10  C   UNL     1      -2.581   3.617  24.774  0.00  0.00    +0.103 A 
ATOM     11  N   UNL     1      -2.058   2.979  24.809  0.00  0.00    -0.211 NA
ATOM     12  C   UNL     1      -2.345   2.220  24.962  0.00  0.00    +0.237 A 
ATOM     13  N   UNL     1      -1.823   1.582  24.996  0.00  0.00    -0.200 NA
ATOM     33  N   UNL     1      -3.152   2.100  25.080  0.00  0.00    -0.212 NA
BRANCH   8   4
ATOM      1  F   UNL     1      -6.080   1.318  24.442  0.00  0.00    -0.204 F 
ATOM      2  C   UNL     1      -5.684   1.908  24.862  0.00  0.00    +0.140 A 
ATOM      3  C   UNL     1      -4.877   2.028  24.744  0.00  0.00    +0.031 A 
ATOM      4  C   UNL     1      -4.481   2.618  25.164  0.00  0.00    +0.020 A 
ATOM      5  C   UNL     1      -4.893   3.087  25.703  0.00  0.00    +0.002 A 
ATOM      6  C   UNL     1      -5.701   2.967  25.821  0.00  0.00    +0.002 A 
ATOM      7  C   UNL     1      -6.097   2.377  25.401  0.00  0.00    +0.030 A 
ENDBRANCH   8   4
ENDBRANCH  14  13
BRANCH  18  22
ATOM     22  N   UNL     1       1.508   1.326  23.734  0.00  0.00    -0.184 NA
ATOM     23  C   UNL     1       1.965   0.740  23.376  0.00  0.00    +0.340 C 
ATOM     24  O   UNL     1       1.614   0.033  23.136  0.00  0.00    -0.249 OA
ATOM     25  N   UNL     1       2.773   0.860  23.258  0.00  0.00    -0.182 NA
BRANCH  25  26
ATOM     26  C   UNL     1       3.229   0.274  22.899  0.00  0.00    +0.143 C 
BRANCH  26  27
ATOM     27  C   UNL     1       4.008   0.150  23.142  0.00  0.00    -0.001 A 
ATOM     28  C   UNL     1       4.564   0.755  23.072  0.00  0.00    -0.003 A 
ATOM     29  C   UNL     1       5.342   0.631  23.315  0.00  0.00    -0.000 A 
ATOM     30  C   UNL     1       5.564  -0.099  23.629  0.00  0.00    -0.000 A 
ATOM     31  C   UNL     1       5.008  -0.705  23.700  0.00  0.00    -0.000 A 
ATOM     32  C   UNL     1       4.230  -0.581  23.456  0.00  0.00    -0.003 A 
ENDBRANCH  26  27
ENDBRANCH  25  26
ENDBRANCH  18  22
TORSDOF 5
ENDMDL
MODEL 2
REMARK VINA RESULT:      -9.8      2.202      7.641
REMARK  Name = 
REMARK  5 active torsions:
REMARK  status: ('A' for Active; 'I' for Inactive)
REMARK    1  A    between atoms: C_4  and  C_8
REMARK    2  A    between atoms: N_13  and  C_14
REMARK    3  A    between atoms: C_18  and  N_22
REMARK    4  A    between atoms: N_25  and  C_26
REMARK    5  A    between atoms: C_26  and  C_27
REMARK                            x       y       z     vdW  Elec       q    Type
REMARK                         _______ _______ _______ _____ _____    ______ ____
ROOT
ATOM     14  C   UNL     1       0.150   1.036  23.967  0.00  0.00    +0.154 C 
ATOM     15  C   UNL     1      -0.314   0.361  23.870  0.00  0.00    +0.166 C 
ATOM     16  O   UNL     1      -1.104   0.598  23.843  0.00  0.00    -0.350 OA
ATOM     17  C   UNL     1      -1.128   1.418  23.923  0.00  0.00    +0.166 C 
ATOM     18  C   UNL     1      -1.630   2.071  23.957  0.00  0.00    +0.156 C 
ATOM     19  C   UNL     1      -1.166   2.746  24.054  0.00  0.00    +0.166 C 
ATOM     20  O   UNL     1      -0.377   2.510  24.081  0.00  0.00    -0.350 OA
ATOM     21  C   UNL     1      -0.353   1.689  24.000  0.00  0.00    +0.166 C 
ENDROOT
BRANCH  14  13
ATOM      8  C   UNL     1       2.715   0.275  22.962  0.00  0.00    +0.086 A 
ATOM      9  C   UNL     1       2.352  -0.142  22.351  0.00  0.00    +0.040 A 
ATOM     10  C   UNL     1       1.529  -0.160  22.296  0.00  0.00    +0.103 A 
ATOM     11  N   UNL     1       1.069   0.238  22.853  0.00  0.00    -0.211 NA
ATOM     12  C   UNL     1       1.433   0.656  23.465  0.00  0.00    +0.237 A 
ATOM     13  N   UNL     1       0.973   1.055  24.022  0.00  0.00    -0.200 NA
ATOM     33  N   UNL     1       2.256   0.674  23.519  0.00  0.00    -0.212 NA
BRANCH   8   4
ATOM      1  F   UNL     1       5.166  -0.916  23.824  0.00  0.00    -0.204 F 
ATOM      2  C   UNL     1       4.763  -0.302  23.448  0.00  0.00    +0.140 A 
ATOM      3  C   UNL     1       3.941  -0.320  23.393  0.00  0.00    +0.031 A 
ATOM      4  C   UNL     1       3.538   0.294  23.017  0.00  0.00    +0.020 A 
ATOM      5  C   UNL     1       3.958   0.926  22.695  0.00  0.00    +0.002 A 
ATOM      6  C   UNL     1       4.782   0.944  22.749  0.00  0.00    +0.002 A 
ATOM      7  C   UNL     1       5.185   0.331  23.126  0.00  0.00    +0.030 A 
ENDBRANCH   8   4
ENDBRANCH  14  13
BRANCH  18  22
ATOM     22  N   UNL     1      -2.454   2.053  23.902  0.00  0.00    -0.184 NA
ATOM     23  C   UNL     1      -2.912   2.486  24.433  0.00  0.00    +0.340 C 
ATOM     24  O   UNL     1      -2.549   2.938  25.020  0.00  0.00    -0.249 OA
ATOM     25  N   UNL     1      -3.736   2.468  24.379  0.00  0.00    -0.182 NA
BRANCH  25  26
ATOM     26  C   UNL     1      -4.194   2.901  24.910  0.00  0.00    +0.143 C 
BRANCH  26  27
ATOM     27  C   UNL     1      -4.937   2.622  25.138  0.00  0.00    -0.001 A 
ATOM     28  C   UNL     1      -5.363   2.124  24.639  0.00  0.00    -0.003 A 
ATOM     29  C   UNL     1      -6.104   1.846  24.867  0.00  0.00    -0.000 A 
ATOM     30  C   UNL     1      -6.421   2.066  25.597  0.00  0.00    -0.000 A 
ATOM     31  C   UNL     1      -5.995   2.565  26.098  0.00  0.00    -0.000 A 
ATOM     32  C   UNL     1      -5.252   2.844  25.869  0.00  0.00    -0.003 A 
ENDBRANCH  26  27
ENDBRANCH  25  26
ENDBRANCH  18  22
TORSDOF 5
ENDMDL
