MODEL 1
REMARK VINA RESULT:     -10.9      0.000      0.000
REMARK  Name = 
REMARK  3 active torsions:
REMARK  status: ('A' for Active; 'I' for Inactive)
REMARK    1  A    between atoms: O_2  and  C_3
REMARK    2  A    between atoms: C_5  and  N_6
REMARK    3  A    between atoms: N_15  and  C_16
REMARK                            x       y       z     vdW  Elec       q    Type
REMARK                         _______ _______ _______ _____ _____    ______ ____
ROOT
ATOM      6  N   UNL     1      -3.935  -0.250  24.705  0.00  0.00    -0.162 NA
ATOM      7  C   UNL     1      -3.263   0.190  24.517  0.00  0.00    +0.328 C 
ATOM      8  O   UNL     1      -2.632  -0.167  24.122  0.00  0.00    -0.250 OA
ATOM      9  N   UNL     1      -3.222   0.988  24.724  0.00  0.00    -0.259 N 
ATOM     10  C   UNL     1      -3.852   1.345  25.118  0.00  0.00    +0.117 C 
ATOM     11  C   UNL     1      -3.811   2.142  25.325  0.00  0.00    +0.117 C 
ATOM     12  N   UNL     1      -3.139   2.583  25.138  0.00  0.00    -0.261 N 
ATOM     13  C   UNL     1      -2.509   2.226  24.743  0.00  0.00    +0.117 C 
ATOM     14  C   UNL     1      -1.923   2.795  24.632  0.00  0.00    +0.116 C 
ATOM     15  N   UNL     1      -2.190   3.504  24.957  0.00  0.00    -0.264 N 
ATOM     22  C   UNL     1      -2.942   3.372  25.270  0.00  0.00    +0.307 C 
ATOM     23  O   UNL     1      -3.415   3.933  25.648  0.00  0.00    -0.252 OA
ATOM     24  C   UNL     1      -2.550   1.428  24.536  0.00  0.00    +0.117 C 
ENDROOT
BRANCH   6   5
ATOM      3  C   UNL     1      -3.685  -2.418  24.784  0.00  0.00    +0.140 A 
ATOM      4  C   UNL     1      -3.643  -1.620  24.991  0.00  0.00    +0.054 A 
ATOM      5  C   UNL     1      -3.976  -1.049  24.498  0.00  0.00    +0.078 A 
ATOM     25  C   UNL     1      -4.349  -1.275  23.798  0.00  0.00    +0.017 A 
ATOM     26  C   UNL     1      -4.390  -2.072  23.591  0.00  0.00    +0.004 A 
ATOM     27  C   UNL     1      -4.058  -2.644  24.084  0.00  0.00    +0.037 A 
BRANCH   3   2
ATOM      1  C   UNL     1      -2.623  -3.326  25.086  0.00  0.00    +0.252 C 
ATOM      2  O   UNL     1      -3.352  -2.989  25.278  0.00  0.00    -0.471 OA
ENDBRANCH   3   2
ENDBRANCH   6   5
BRANCH  15  16
ATOM     16  C   UNL     1      -1.779   4.219  24.968  0.00  0.00    +0.077 C 
ATOM     17  C   UNL     1      -0.955   4.222  24.917  0.00  0.00    +0.020 C 
ATOM     18  C   UNL     1      -0.543   4.937  24.928  0.00  0.00    +0.002 C 
ATOM     19  C   UNL     1      -0.955   5.649  24.990  0.00  0.00    +0.000 C 
ATOM     20  C   UNL     1      -1.778   5.646  25.041  0.00  0.00    +0.002 C 
ATOM     21  C   UNL     1      -2.190   4.931  25.030  0.00  0.00    +0.020 C 
ENDBRANCH  15  16
TORSDOF 3
ENDMDL
MODEL 2
REMARK VINA RESULT:     -10.5      1.171      5.985
REMARK  Name = 
REMARK  3 active torsions:
REMARK  status: ('A' for Active; 'I' for Inactive)
REMARK    1  A    between atoms: O_2  and  C_3
REMARK    2  A    between atoms: C_5  and  N_6
REMARK    3  A    between atoms: N_15  and  C_16
REMARK                            x       y       z     vdW  Elec       q    Type
REMARK                         _______ _______ _______ _____ _____    ______ ____
ROOT
ATOM      6  N   UNL     1      -1.628   2.834  25.351  0.00  0.00    -0.162 NA
ATOM      7  C   UNL     1      -2.257   2.400  25.042  0.00  0.00    +0.328 C 
ATOM      8  O   UNL     1      -2.912   2.790  24.727  0.00  0.00    -0.250 OA
ATOM      9  N   UNL     1      -2.231   1.575  25.049  0.00  0.00    -0.259 N 
ATOM     10  C   UNL     1      -1.576   1.185  25.365  0.00  0.00    +0.117 C 
ATOM     11  C   UNL     1      -1.551   0.361  25.371  0.00  0.00    +0.117 C 
ATOM     12  N   UNL     1      -2.180  -0.074  25.063  0.00  0.00    -0.261 N 
ATOM     13  C   UNL     1      -2.835   0.315  24.747  0.00  0.00    +0.117 C 
ATOM     14  C   UNL     1      -3.369  -0.255  24.484  0.00  0.00    +0.116 C 
ATOM     15  N   UNL     1      -3.044  -0.998  24.636  0.00  0.00    -0.264 N 
ATOM     22  C   UNL     1      -2.310  -0.885  24.994  0.00  0.00    +0.307 C 
ATOM     23  O   UNL     1      -1.794  -1.481  25.240  0.00  0.00    -0.252 OA
ATOM     24  C   UNL     1      -2.861   1.141  24.740  0.00  0.00    +0.117 C 
ENDROOT
BRANCH   6   5
ATOM      3  C   UNL     1      -1.081   4.913  24.965  0.00  0.00    +0.140 A 
ATOM      4  C   UNL     1      -1.055   4.087  24.972  0.00  0.00    +0.054 A 
ATOM      5  C   UNL     1      -1.653   3.660  25.345  0.00  0.00    +0.078 A 
ATOM     25  C   UNL     1      -2.278   4.056  25.711  0.00  0.00    +0.017 A 
ATOM     26  C   UNL     1      -2.303   4.880  25.704  0.00  0.00    +0.004 A 
ATOM     27  C   UNL     1      -1.705   5.309  25.331  0.00  0.00    +0.037 A 
BRANCH   3   2
ATOM      1  C   UNL     1      -0.149   5.058  23.891  0.00  0.00    +0.252 C 
ATOM      2  O   UNL     1      -0.482   5.340  24.592  0.00  0.00    -0.471 OA
ENDBRANCH   3   2
ENDBRANCH   6   5
BRANCH  15  16
ATOM     16  C   UNL     1      -3.393  -1.725  24.462  0.00  0.00    +0.077 C 
ATOM     17  C   UNL     1      -3.931  -1.786  23.839  0.00  0.00    +0.020 C 
ATOM     18  C   UNL     1      -4.279  -2.513  23.664  0.00  0.00    +0.002 C 
ATOM     19  C   UNL     1      -4.090  -3.179  24.113  0.00  0.00    +0.000 C 
ATOM     20  C   UNL     1      -3.553  -3.118  24.735  0.00  0.00    +0.002 C 
ATOM     21  C   UNL     1      -3.204  -2.391  24.910  0.00  0.00    +0.020 C 
ENDBRANCH  15  16
TORSDOF 3
ENDMDL
MODEL 3
REMARK VINA RESULT:      -9.7      2.753      4.498
REMARK  Name = 
REMARK  3 active torsions:
REMARK  status: ('A' for Active; 'I' for Inactive)
REMARK    1  A    between atoms: O_2  and  C_3
REMARK    2  A    between atoms: C_5  and  N_6
REMARK    3  A    between atoms: N_15  and  C_16
REMARK                            x       y       z     vdW  Elec       q    Type
REMARK                         _______ _______ _______ _____ _____    ______ ____
ROOT
ATOM      6  N   UNL     1      -3.782   1.106  25.063  0.00  0.00    -0.162 NA
ATOM      7  C   UNL     1      -3.212   1.358  24.522  0.00  0.00    +0.328 C 
ATOM      8  O   UNL     1      -3.365   2.004  24.033  0.00  0.00    -0.250 OA
ATOM      9  N   UNL     1      -2.490   0.962  24.470  0.00  0.00    -0.259 N 
ATOM     10  C   UNL     1      -2.337   0.315  24.959  0.00  0.00    +0.117 C 
ATOM     11  C   UNL     1      -1.615  -0.080  24.907  0.00  0.00    +0.117 C 
ATOM     12  N   UNL     1      -1.045   0.171  24.366  0.00  0.00    -0.261 N 
ATOM     13  C   UNL     1      -1.198   0.817  23.876  0.00  0.00    +0.117 C 
ATOM     14  C   UNL     1      -0.536   0.938  23.400  0.00  0.00    +0.116 C 
ATOM     15  N   UNL     1       0.026   0.366  23.594  0.00  0.00    -0.264 N 
ATOM     22  C   UNL     1      -0.289  -0.107  24.191  0.00  0.00    +0.307 C 
ATOM     23  O   UNL     1       0.086  -0.748  24.550  0.00  0.00    -0.252 OA
ATOM     24  C   UNL     1      -1.920   1.213  23.928  0.00  0.00    +0.117 C 
ENDROOT
BRANCH   6   5
ATOM      3  C   UNL     1      -5.281   2.601  25.594  0.00  0.00    +0.140 A 
ATOM      4  C   UNL     1      -4.559   2.206  25.542  0.00  0.00    +0.054 A 
ATOM      5  C   UNL     1      -4.504   1.502  25.115  0.00  0.00    +0.078 A 
ATOM     25  C   UNL     1      -5.171   1.194  24.740  0.00  0.00    +0.017 A 
ATOM     26  C   UNL     1      -5.893   1.589  24.792  0.00  0.00    +0.004 A 
ATOM     27  C   UNL     1      -5.948   2.293  25.219  0.00  0.00    +0.037 A 
BRANCH   3   2
ATOM      1  C   UNL     1      -5.545   4.005  25.636  0.00  0.00    +0.252 C 
ATOM      2  O   UNL     1      -5.336   3.305  26.021  0.00  0.00    -0.471 OA
ENDBRANCH   3   2
ENDBRANCH   6   5
BRANCH  15  16
ATOM     16  C   UNL     1       0.772   0.283  23.251  0.00  0.00    +0.077 C 
ATOM     17  C   UNL     1       0.885  -0.254  22.635  0.00  0.00    +0.020 C 
ATOM     18  C   UNL     1       1.631  -0.337  22.292  0.00  0.00    +0.002 C 
ATOM     19  C   UNL     1       2.264   0.117  22.566  0.00  0.00    +0.000 C 
ATOM     20  C   UNL     1       2.151   0.653  23.182  0.00  0.00    +0.002 C 
ATOM     21  C   UNL     1       1.405   0.736  23.525  0.00  0.00    +0.020 C 
ENDBRANCH  15  16
TORSDOF 3
ENDMDL
MODEL 4
REMARK VINA RESULT:      -9.3      3.145      4.648
REMARK  Name = 
REMARK  3 active torsions:
REMARK  status: ('A' for Active; 'I' for Inactive)
REMARK    1  A    between atoms: O_2  and  C_3
REMARK    2  A    between atoms: C_5  and  N_6
REMARK    3  A    between atoms: N_15  and  C_16
REMARK                            x       y       z     vdW  Elec       q    Type
REMARK                         _______ _______ _______ _____ _____    ______ ____
ROOT
ATOM      6  N   UNL     1       0.206   0.043  23.559  0.00  0.00    -0.162 NA
ATOM      7  C   UNL     1      -0.348   0.645  23.448  0.00  0.00    +0.328 C 
ATOM      8  O   UNL     1      -0.195   1.253  22.913  0.00  0.00    -0.250 OA
ATOM      9  N   UNL     1      -1.055   0.637  23.874  0.00  0.00    -0.259 N 
ATOM     10  C   UNL     1      -1.208   0.029  24.410  0.00  0.00    +0.117 C 
ATOM     11  C   UNL     1      -1.915   0.022  24.835  0.00  0.00    +0.117 C 
ATOM     12  N   UNL     1      -2.469   0.623  24.725  0.00  0.00    -0.261 N 
ATOM     13  C   UNL     1      -2.316   1.231  24.189  0.00  0.00    +0.117 C 
ATOM     14  C   UNL     1      -2.961   1.746  24.197  0.00  0.00    +0.116 C 
ATOM     15  N   UNL     1      -3.512   1.455  24.737  0.00  0.00    -0.264 N 
ATOM     22  C   UNL     1      -3.208   0.762  25.063  0.00  0.00    +0.307 C 
ATOM     23  O   UNL     1      -3.578   0.289  25.629  0.00  0.00    -0.252 OA
ATOM     24  C   UNL     1      -1.609   1.239  23.763  0.00  0.00    +0.117 C 
ENDROOT
BRANCH   6   5
ATOM      3  C   UNL     1       2.265   0.489  22.988  0.00  0.00    +0.140 A 
ATOM      4  C   UNL     1       1.558   0.482  23.414  0.00  0.00    +0.054 A 
ATOM      5  C   UNL     1       0.913   0.050  23.133  0.00  0.00    +0.078 A 
ATOM     25  C   UNL     1       0.975  -0.374  22.428  0.00  0.00    +0.017 A 
ATOM     26  C   UNL     1       1.681  -0.366  22.004  0.00  0.00    +0.004 A 
ATOM     27  C   UNL     1       2.327   0.065  22.283  0.00  0.00    +0.037 A 
BRANCH   3   2
ATOM      1  C   UNL     1       3.618   0.925  22.844  0.00  0.00    +0.252 C 
ATOM      2  O   UNL     1       2.910   0.921  23.268  0.00  0.00    -0.471 OA
ENDBRANCH   3   2
ENDBRANCH   6   5
BRANCH  15  16
ATOM     16  C   UNL     1      -4.240   1.798  24.918  0.00  0.00    +0.077 C 
ATOM     17  C   UNL     1      -4.268   2.535  25.290  0.00  0.00    +0.020 C 
ATOM     18  C   UNL     1      -4.996   2.878  25.472  0.00  0.00    +0.002 C 
ATOM     19  C   UNL     1      -5.696   2.484  25.282  0.00  0.00    +0.000 C 
ATOM     20  C   UNL     1      -5.668   1.749  24.911  0.00  0.00    +0.002 C 
ATOM     21  C   UNL     1      -4.940   1.406  24.729  0.00  0.00    +0.020 C 
ENDBRANCH  15  16
TORSDOF 3
ENDMDL
