MODEL 1
REMARK VINA RESULT:     -14.6      0.000      0.000
REMARK  Name = 
REMARK  5 active torsions:
REMARK  status: ('A' for Active; 'I' for Inactive)
REMARK    1  A    between atoms: C_2  and  C_24
REMARK    2  A    between atoms: N_3  and  C_4
REMARK    3  A    between atoms: C_4  and  C_5
REMARK    4  A    between atoms: C_12  and  C_13
REMARK    5  A    between atoms: C_13  and  N_14
REMARK                            x       y       z     vdW  Elec       q    Type
REMARK                         _______ _______ _______ _____ _____    ______ ____
ROOT
ATOM      5  C   UNL     1      -4.427   2.933  25.528  0.00  0.00    +0.079 C 
ATOM      6  C   UNL     1      -5.100   2.699  25.215  0.00  0.00    +0.018 C 
ATOM      7  C   UNL     1      -5.268   1.945  24.972  0.00  0.00    +0.005 C 
ATOM      8  C   UNL     1      -6.099   1.881  24.638  0.00  0.00    +0.017 C 
ATOM      9  C   UNL     1      -5.587   2.186  24.907  0.00  0.00    +0.072 C 
ATOM     10  N   UNL     1      -4.608   2.168  25.277  0.00  0.00    -0.272 NA
ATOM     11  C   UNL     1      -4.123   1.394  25.279  0.00  0.00    +0.073 C 
ATOM     12  C   UNL     1      -4.797   1.205  24.976  0.00  0.00    +0.032 C 
ENDROOT
BRANCH   5   4
ATOM      4  C   UNL     1      -3.926   3.501  25.854  0.00  0.00    +0.131 C 
BRANCH   4   3
ATOM      1  O   UNL     1      -2.830   4.479  26.605  0.00  0.00    -0.268 OA
ATOM      2  C   UNL     1      -2.667   4.178  25.854  0.00  0.00    +0.265 C 
ATOM      3  N   UNL     1      -3.216   3.689  25.479  0.00  0.00    -0.200 NA
BRANCH   2  24
ATOM     24  C   UNL     1      -1.957   4.366  25.478  0.00  0.00    +0.055 A 
ATOM     25  C   UNL     1      -1.816   5.139  25.226  0.00  0.00    +0.005 A 
ATOM     26  C   UNL     1      -1.106   5.327  24.850  0.00  0.00    +0.000 A 
ATOM     27  C   UNL     1      -0.536   4.742  24.727  0.00  0.00    +0.000 A 
ATOM     28  C   UNL     1      -0.678   3.970  24.980  0.00  0.00    +0.000 A 
ATOM     29  C   UNL     1      -1.388   3.781  25.356  0.00  0.00    +0.005 A 
ENDBRANCH   2  24
ENDBRANCH   4   3
ENDBRANCH   5   4
BRANCH  12  13
ATOM     13  C   UNL     1      -5.033   0.461  24.710  0.00  0.00    +0.074 C 
BRANCH  13  14
ATOM     14  N   UNL     1      -4.552  -0.196  24.840  0.00  0.00    -0.269 NA
ATOM     15  C   UNL     1      -4.112  -0.254  25.536  0.00  0.00    +0.077 C 
ATOM     16  C   UNL     1      -3.630  -0.911  25.667  0.00  0.00    +0.043 C 
ATOM     17  C   UNL     1      -3.588  -1.511  25.101  0.00  0.00    -0.023 A 
ATOM     18  C   UNL     1      -4.028  -1.453  24.406  0.00  0.00    -0.010 A 
ATOM     19  C   UNL     1      -4.510  -0.796  24.275  0.00  0.00    +0.099 C 
ATOM     20  C   UNL     1      -3.987  -2.052  23.840  0.00  0.00    -0.003 A 
ATOM     21  C   UNL     1      -3.505  -2.710  23.971  0.00  0.00    -0.000 A 
ATOM     22  C   UNL     1      -3.065  -2.767  24.666  0.00  0.00    -0.000 A 
ATOM     23  C   UNL     1      -3.107  -2.168  25.232  0.00  0.00    -0.004 A 
ENDBRANCH  13  14
ENDBRANCH  12  13
TORSDOF 5
ENDMDL
MODEL 2
REMARK VINA RESULT:     -13.8      1.336      5.454
REMARK  Name = 
REMARK  5 active torsions:
REMARK  status: ('A' for Active; 'I' for Inactive)
REMARK    1  A    between atoms: C_2  and  C_24
REMARK    2  A    between atoms: N_3  and  C_4
REMARK    3  A    between atoms: C_4  and  C_5
REMARK    4  A    between atoms: C_12  and  C_13
REMARK    5  A    between atoms: C_13  and  N_14
REMARK                            x       y       z     vdW  Elec       q    Type
REMARK                         _______ _______ _______ _____ _____    ______ ____
ROOT
ATOM      5  C   UNL     1      -4.781   1.086  24.660  0.00  0.00    +0.079 C 
ATOM      6  C   UNL     1      -5.166   1.604  25.093  0.00  0.00    +0.018 C 
ATOM      7  C   UNL     1      -4.860   2.296  25.382  0.00  0.00    +0.005 C 
ATOM      8  C   UNL     1      -5.467   2.754  25.860  0.00  0.00    +0.017 C 
ATOM      9  C   UNL     1      -5.247   2.257  25.497  0.00  0.00    +0.072 C 
ATOM     10  N   UNL     1      -4.478   1.793  24.958  0.00  0.00    -0.272 NA
ATOM     11  C   UNL     1      -3.654   2.182  24.890  0.00  0.00    +0.073 C 
ATOM     12  C   UNL     1      -4.067   2.664  25.313  0.00  0.00    +0.032 C 
ENDROOT
BRANCH   5   4
ATOM      4  C   UNL     1      -4.721   0.381  24.234  0.00  0.00    +0.131 C 
BRANCH   4   3
ATOM      1  O   UNL     1      -4.308  -0.925  23.316  0.00  0.00    -0.268 OA
ATOM      2  C   UNL     1      -4.199  -0.945  24.134  0.00  0.00    +0.265 C 
ATOM      3  N   UNL     1      -4.406  -0.291  24.593  0.00  0.00    -0.200 NA
BRANCH   2  24
ATOM     24  C   UNL     1      -3.883  -1.618  24.492  0.00  0.00    +0.055 A 
ATOM     25  C   UNL     1      -3.903  -2.342  24.099  0.00  0.00    +0.005 A 
ATOM     26  C   UNL     1      -3.587  -3.015  24.457  0.00  0.00    +0.000 A 
ATOM     27  C   UNL     1      -3.252  -2.964  25.209  0.00  0.00    +0.000 A 
ATOM     28  C   UNL     1      -3.232  -2.239  25.602  0.00  0.00    +0.000 A 
ATOM     29  C   UNL     1      -3.548  -1.565  25.244  0.00  0.00    +0.005 A 
ENDBRANCH   2  24
ENDBRANCH   4   3
ENDBRANCH   5   4
BRANCH  12  13
ATOM     13  C   UNL     1      -3.819   3.381  25.636  0.00  0.00    +0.074 C 
BRANCH  13  14
ATOM     14  N   UNL     1      -3.033   3.618  25.559  0.00  0.00    -0.269 NA
ATOM     15  C   UNL     1      -2.426   3.140  25.849  0.00  0.00    +0.077 C 
ATOM     16  C   UNL     1      -1.640   3.378  25.772  0.00  0.00    +0.043 C 
ATOM     17  C   UNL     1      -1.460   4.095  25.404  0.00  0.00    -0.023 A 
ATOM     18  C   UNL     1      -2.066   4.573  25.114  0.00  0.00    -0.010 A 
ATOM     19  C   UNL     1      -2.853   4.336  25.191  0.00  0.00    +0.099 C 
ATOM     20  C   UNL     1      -1.887   5.289  24.746  0.00  0.00    -0.003 A 
ATOM     21  C   UNL     1      -1.100   5.527  24.669  0.00  0.00    -0.000 A 
ATOM     22  C   UNL     1      -0.494   5.049  24.959  0.00  0.00    -0.000 A 
ATOM     23  C   UNL     1      -0.674   4.332  25.327  0.00  0.00    -0.004 A 
ENDBRANCH  13  14
ENDBRANCH  12  13
TORSDOF 5
ENDMDL
MODEL 3
REMARK VINA RESULT:     -13.4      2.346      3.350
REMARK  Name = 
REMARK  5 active torsions:
REMARK  status: ('A' for Active; 'I' for Inactive)
REMARK    1  A    between atoms: C_2  and  C_24
REMARK    2  A    between atoms: N_3  and  C_4
REMARK    3  A    between atoms: C_4  and  C_5
REMARK    4  A    between atoms: C_12  and  C_13
REMARK    5  A    between atoms: C_13  and  N_14
REMARK                            x       y       z     vdW  Elec       q    Type
REMARK                         _______ _______ _______ _____ _____    ______ ____
ROOT
ATOM      5  C   UNL     1      -0.213   1.291  24.926  0.00  0.00    +0.079 C 
ATOM      6  C   UNL     1       0.058   0.949  24.283  0.00  0.00    +0.018 C 
ATOM      7  C   UNL     1      -0.123   0.199  24.036  0.00  0.00    +0.005 C 
ATOM      8  C   UNL     1       0.293  -0.009  23.269  0.00  0.00    +0.017 C 
ATOM      9  C   UNL     1       0.132   0.373  23.774  0.00  0.00    +0.072 C 
ATOM     10  N   UNL     1      -0.392   0.529  24.668  0.00  0.00    -0.272 NA
ATOM     11  C   UNL     1      -0.926  -0.125  25.017  0.00  0.00    +0.073 C 
ATOM     12  C   UNL     1      -0.638  -0.425  24.377  0.00  0.00    +0.032 C 
ENDROOT
BRANCH   5   4
ATOM      4  C   UNL     1      -0.274   1.923  25.454  0.00  0.00    +0.131 C 
BRANCH   4   3
ATOM      1  O   UNL     1      -0.707   3.055  26.573  0.00  0.00    -0.268 OA
ATOM      2  C   UNL     1      -0.837   3.197  25.771  0.00  0.00    +0.265 C 
ATOM      3  N   UNL     1      -0.620   2.631  25.211  0.00  0.00    -0.200 NA
BRANCH   2  24
ATOM     24  C   UNL     1      -1.183   3.906  25.528  0.00  0.00    +0.055 A 
ATOM     25  C   UNL     1      -1.978   4.052  25.689  0.00  0.00    +0.005 A 
ATOM     26  C   UNL     1      -2.325   4.761  25.446  0.00  0.00    +0.000 A 
ATOM     27  C   UNL     1      -1.876   5.323  25.042  0.00  0.00    +0.000 A 
ATOM     28  C   UNL     1      -1.080   5.176  24.881  0.00  0.00    +0.000 A 
ATOM     29  C   UNL     1      -0.733   4.467  25.124  0.00  0.00    +0.005 A 
ENDBRANCH   2  24
ENDBRANCH   4   3
ENDBRANCH   5   4
BRANCH  12  13
ATOM     13  C   UNL     1      -0.780  -1.177  24.070  0.00  0.00    +0.074 C 
BRANCH  13  14
ATOM     14  N   UNL     1      -1.478  -1.573  24.258  0.00  0.00    -0.269 NA
ATOM     15  C   UNL     1      -1.467  -2.200  24.794  0.00  0.00    +0.077 C 
ATOM     16  C   UNL     1      -2.165  -2.597  24.982  0.00  0.00    +0.043 C 
ATOM     17  C   UNL     1      -2.877  -2.366  24.632  0.00  0.00    -0.023 A 
ATOM     18  C   UNL     1      -2.889  -1.740  24.095  0.00  0.00    -0.010 A 
ATOM     19  C   UNL     1      -2.190  -1.343  23.908  0.00  0.00    +0.099 C 
ATOM     20  C   UNL     1      -3.600  -1.510  23.746  0.00  0.00    -0.003 A 
ATOM     21  C   UNL     1      -4.299  -1.906  23.933  0.00  0.00    -0.000 A 
ATOM     22  C   UNL     1      -4.286  -2.533  24.469  0.00  0.00    -0.000 A 
ATOM     23  C   UNL     1      -3.575  -2.763  24.819  0.00  0.00    -0.004 A 
ENDBRANCH  13  14
ENDBRANCH  12  13
TORSDOF 5
ENDMDL
MODEL 4
REMARK VINA RESULT:     -13.3      4.278      5.219
REMARK  Name = 
REMARK  5 active torsions:
REMARK  status: ('A' for Active; 'I' for Inactive)
REMARK    1  A    between atoms: C_2  and  C_24
REMARK    2  A    between atoms: N_3  and  C_4
REMARK    3  A    between atoms: C_4  and  C_5
REMARK    4  A    between atoms: C_12  and  C_13
REMARK    5  A    between atoms: C_13  and  N_14
REMARK                            x       y       z     vdW  Elec       q    Type
REMARK                         _______ _______ _______ _____ _____    ______ ____
ROOT
ATOM      5  C   UNL     1       0.595   0.411  23.482  0.00  0.00    +0.079 C 
ATOM      6  C   UNL     1       0.211   0.892  23.957  0.00  0.00    +0.018 C 
ATOM      7  C   UNL     1      -0.425   0.691  24.417  0.00  0.00    +0.005 C 
ATOM      8  C   UNL     1      -0.725   1.390  24.893  0.00  0.00    +0.017 C 
ATOM      9  C   UNL     1      -0.334   1.082  24.469  0.00  0.00    +0.072 C 
ATOM     10  N   UNL     1      -0.053   0.215  23.953  0.00  0.00    -0.272 NA
ATOM     11  C   UNL     1      -0.507  -0.568  24.073  0.00  0.00    +0.073 C 
ATOM     12  C   UNL     1      -0.857  -0.065  24.527  0.00  0.00    +0.032 C 
ENDROOT
BRANCH   5   4
ATOM      4  C   UNL     1       1.187   0.235  22.934  0.00  0.00    +0.131 C 
BRANCH   4   3
ATOM      1  O   UNL     1       2.370  -0.067  21.825  0.00  0.00    -0.268 OA
ATOM      2  C   UNL     1       2.573   0.150  22.595  0.00  0.00    +0.265 C 
ATOM      3  N   UNL     1       1.980   0.301  23.150  0.00  0.00    -0.200 NA
BRANCH   2  24
ATOM     24  C   UNL     1       3.367   0.216  22.811  0.00  0.00    +0.055 A 
ATOM     25  C   UNL     1       3.751  -0.420  23.167  0.00  0.00    +0.005 A 
ATOM     26  C   UNL     1       4.545  -0.354  23.383  0.00  0.00    +0.000 A 
ATOM     27  C   UNL     1       4.954   0.348  23.242  0.00  0.00    +0.000 A 
ATOM     28  C   UNL     1       4.569   0.984  22.885  0.00  0.00    +0.000 A 
ATOM     29  C   UNL     1       3.775   0.919  22.669  0.00  0.00    +0.005 A 
ENDBRANCH   2  24
ENDBRANCH   4   3
ENDBRANCH   5   4
BRANCH  12  13
ATOM     13  C   UNL     1      -1.505  -0.203  25.018  0.00  0.00    +0.074 C 
BRANCH  13  14
ATOM     14  N   UNL     1      -2.007  -0.839  24.869  0.00  0.00    -0.269 NA
ATOM     15  C   UNL     1      -1.781  -1.603  25.086  0.00  0.00    +0.077 C 
ATOM     16  C   UNL     1      -2.284  -2.241  24.937  0.00  0.00    +0.043 C 
ATOM     17  C   UNL     1      -3.013  -2.114  24.571  0.00  0.00    -0.023 A 
ATOM     18  C   UNL     1      -3.239  -1.350  24.355  0.00  0.00    -0.010 A 
ATOM     19  C   UNL     1      -2.736  -0.713  24.503  0.00  0.00    +0.099 C 
ATOM     20  C   UNL     1      -3.967  -1.224  23.989  0.00  0.00    -0.003 A 
ATOM     21  C   UNL     1      -4.471  -1.862  23.840  0.00  0.00    -0.000 A 
ATOM     22  C   UNL     1      -4.244  -2.625  24.057  0.00  0.00    -0.000 A 
ATOM     23  C   UNL     1      -3.515  -2.751  24.423  0.00  0.00    -0.004 A 
ENDBRANCH  13  14
ENDBRANCH  12  13
TORSDOF 5
ENDMDL
MODEL 5
REMARK VINA RESULT:     -13.0      2.252      5.741
REMARK  Name = 
REMARK  5 active torsions:
REMARK  status: ('A' for Active; 'I' for Inactive)
REMARK    1  A    between atoms: C_2  and  C_24
REMARK    2  A    between atoms: N_3  and  C_4
REMARK    3  A    between atoms: C_4  and  C_5
REMARK    4  A    between atoms: C_12  and  C_13
REMARK    5  A    between atoms: C_13  and  N_14
REMARK                            x       y       z     vdW  Elec       q    Type
REMARK                         _______ _______ _______ _____ _____    ______ ____
ROOT
ATOM      5  C   UNL     1      -0.494   0.328  24.753  0.00  0.00    +0.079 C 
ATOM      6  C   UNL     1      -0.113   0.915  24.413  0.00  0.00    +0.018 C 
ATOM      7  C   UNL     1      -0.323   1.697  24.451  0.00  0.00    +0.005 C 
ATOM      8  C   UNL     1       0.247   2.217  23.992  0.00  0.00    +0.017 C 
ATOM      9  C   UNL     1       0.012   1.654  24.228  0.00  0.00    +0.072 C 
ATOM     10  N   UNL     1      -0.700   1.126  24.786  0.00  0.00    -0.272 NA
ATOM     11  C   UNL     1      -1.388   1.563  25.197  0.00  0.00    +0.073 C 
ATOM     12  C   UNL     1      -0.986   2.111  24.849  0.00  0.00    +0.032 C 
ENDROOT
BRANCH   5   4
ATOM      4  C   UNL     1      -0.606  -0.469  24.936  0.00  0.00    +0.131 C 
BRANCH   4   3
ATOM      1  O   UNL     1      -0.851  -2.042  25.367  0.00  0.00    -0.268 OA
ATOM      2  C   UNL     1      -1.456  -1.614  25.005  0.00  0.00    +0.265 C 
ATOM      3  N   UNL     1      -1.334  -0.827  24.790  0.00  0.00    -0.200 NA
BRANCH   2  24
ATOM     24  C   UNL     1      -2.185  -1.974  24.859  0.00  0.00    +0.055 A 
ATOM     25  C   UNL     1      -2.244  -2.571  24.293  0.00  0.00    +0.005 A 
ATOM     26  C   UNL     1      -2.973  -2.930  24.147  0.00  0.00    +0.000 A 
ATOM     27  C   UNL     1      -3.642  -2.692  24.566  0.00  0.00    +0.000 A 
ATOM     28  C   UNL     1      -3.582  -2.094  25.132  0.00  0.00    +0.000 A 
ATOM     29  C   UNL     1      -2.854  -1.735  25.279  0.00  0.00    +0.005 A 
ENDBRANCH   2  24
ENDBRANCH   4   3
ENDBRANCH   5   4
BRANCH  12  13
ATOM     13  C   UNL     1      -1.143   2.920  24.847  0.00  0.00    +0.074 C 
BRANCH  13  14
ATOM     14  N   UNL     1      -1.872   3.199  25.112  0.00  0.00    -0.269 NA
ATOM     15  C   UNL     1      -1.937   3.540  25.861  0.00  0.00    +0.077 C 
ATOM     16  C   UNL     1      -2.666   3.820  26.126  0.00  0.00    +0.043 C 
ATOM     17  C   UNL     1      -3.333   3.759  25.642  0.00  0.00    -0.023 A 
ATOM     18  C   UNL     1      -3.268   3.418  24.893  0.00  0.00    -0.010 A 
ATOM     19  C   UNL     1      -2.538   3.138  24.628  0.00  0.00    +0.099 C 
ATOM     20  C   UNL     1      -3.933   3.358  24.409  0.00  0.00    -0.003 A 
ATOM     21  C   UNL     1      -4.664   3.638  24.674  0.00  0.00    -0.000 A 
ATOM     22  C   UNL     1      -4.727   3.978  25.423  0.00  0.00    -0.000 A 
ATOM     23  C   UNL     1      -4.061   4.039  25.906  0.00  0.00    -0.004 A 
ENDBRANCH  13  14
ENDBRANCH  12  13
TORSDOF 5
ENDMDL
