MODEL 1
REMARK VINA RESULT:     -14.4      0.000      0.000
REMARK  Name = 
REMARK  6 active torsions:
REMARK  status: ('A' for Active; 'I' for Inactive)
REMARK    1  A    between atoms: C_2  and  C_3
REMARK    2  A    between atoms: C_2  and  C_25
REMARK    3  A    between atoms: C_10  and  N_11
REMARK    4  A    between atoms: C_12  and  C_14
REMARK    5  A    between atoms: N_27  and  C_28
REMARK    6  A    between atoms: C_28  and  C_29
REMARK                            x       y       z     vdW  Elec       q    Type
REMARK                         _______ _______ _______ _____ _____    ______ ____
ROOT
ATOM      3  C   UNL     1      -4.125   3.126  24.535  0.00  0.00    +0.039 C 
ATOM      4  C   UNL     1      -4.746   3.223  25.071  0.00  0.00    +0.003 C 
ATOM      5  C   UNL     1      -5.158   2.566  25.348  0.00  0.00    +0.000 C 
ATOM      6  C   UNL     1      -4.951   1.810  25.091  0.00  0.00    +0.002 C 
ATOM      7  C   UNL     1      -5.571   1.908  25.626  0.00  0.00    +0.000 C 
ATOM      8  C   UNL     1      -5.364   1.152  25.368  0.00  0.00    +0.002 C 
ATOM      9  C   UNL     1      -5.157   0.396  25.111  0.00  0.00    +0.022 C 
ATOM     10  C   UNL     1      -4.536   0.299  24.575  0.00  0.00    +0.096 C 
ATOM     20  C   UNL     1      -4.124   0.956  24.298  0.00  0.00    +0.022 C 
ATOM     21  C   UNL     1      -3.504   0.858  23.762  0.00  0.00    +0.002 C 
ATOM     22  C   UNL     1      -4.331   1.713  24.555  0.00  0.00    +0.032 C 
ATOM     23  C   UNL     1      -3.918   2.370  24.277  0.00  0.00    +0.152 C 
ATOM     24  O   UNL     1      -3.298   2.272  23.742  0.00  0.00    -0.223 OA
ENDROOT
BRANCH  10  11
ATOM     11  N   UNL     1      -4.329  -0.458  24.318  0.00  0.00    -0.203 NA
ATOM     12  C   UNL     1      -4.089  -1.028  24.863  0.00  0.00    +0.265 C 
ATOM     13  O   UNL     1      -4.056  -0.842  25.667  0.00  0.00    -0.268 OA
BRANCH  12  14
ATOM     14  C   UNL     1      -3.883  -1.784  24.605  0.00  0.00    +0.055 A 
ATOM     15  C   UNL     1      -4.299  -2.139  23.989  0.00  0.00    +0.005 A 
ATOM     16  C   UNL     1      -4.093  -2.896  23.732  0.00  0.00    +0.000 A 
ATOM     17  C   UNL     1      -3.468  -3.297  24.092  0.00  0.00    +0.000 A 
ATOM     18  C   UNL     1      -3.050  -2.942  24.709  0.00  0.00    +0.000 A 
ATOM     19  C   UNL     1      -3.258  -2.186  24.965  0.00  0.00    +0.005 A 
ENDBRANCH  12  14
ENDBRANCH  10  11
BRANCH   3   2
ATOM      1  C   UNL     1      -3.889   4.100  23.516  0.00  0.00    +0.010 C 
ATOM      2  C   UNL     1      -3.713   3.784  24.257  0.00  0.00    +0.081 C 
BRANCH   2  25
ATOM     25  C   UNL     1      -3.124   4.127  24.722  0.00  0.00    +0.241 C 
ATOM     26  O   UNL     1      -3.282   4.819  25.145  0.00  0.00    -0.273 OA
ATOM     27  N   UNL     1      -2.376   3.779  24.764  0.00  0.00    -0.201 NA
BRANCH  27  28
ATOM     28  C   UNL     1      -1.788   4.122  25.229  0.00  0.00    +0.141 C 
BRANCH  28  29
ATOM     29  C   UNL     1      -1.137   3.675  25.467  0.00  0.00    -0.000 A 
ATOM     30  C   UNL     1      -1.158   3.263  26.182  0.00  0.00    -0.000 A 
ATOM     31  C   UNL     1      -0.507   2.817  26.419  0.00  0.00    +0.029 A 
ATOM     32  C   UNL     1       0.166   2.780  25.943  0.00  0.00    +0.140 A 
ATOM     33  F   UNL     1       0.816   2.334  26.180  0.00  0.00    -0.204 F 
ATOM     34  C   UNL     1       0.186   3.192  25.228  0.00  0.00    +0.029 A 
ATOM     35  C   UNL     1      -0.465   3.639  24.990  0.00  0.00    -0.000 A 
ENDBRANCH  28  29
ENDBRANCH  27  28
ENDBRANCH   2  25
ENDBRANCH   3   2
TORSDOF 6
ENDMDL
MODEL 2
REMARK VINA RESULT:     -12.7      1.520      5.005
REMARK  Name = 
REMARK  6 active torsions:
REMARK  status: ('A' for Active; 'I' for Inactive)
REMARK    1  A    between atoms: C_2  and  C_3
REMARK    2  A    between atoms: C_2  and  C_25
REMARK    3  A    between atoms: C_10  and  N_11
REMARK    4  A    between atoms: C_12  and  C_14
REMARK    5  A    between atoms: N_27  and  C_28
REMARK    6  A    between atoms: C_28  and  C_29
REMARK                            x       y       z     vdW  Elec       q    Type
REMARK                         _______ _______ _______ _____ _____    ______ ____
ROOT
ATOM      3  C   UNL     1      -4.255   0.242  24.372  0.00  0.00    +0.039 C 
ATOM      4  C   UNL     1      -4.924   0.390  24.833  0.00  0.00    +0.003 C 
ATOM      5  C   UNL     1      -5.043   1.137  25.159  0.00  0.00    +0.000 C 
ATOM      6  C   UNL     1      -4.495   1.738  25.025  0.00  0.00    +0.002 C 
ATOM      7  C   UNL     1      -5.163   1.885  25.485  0.00  0.00    +0.000 C 
ATOM      8  C   UNL     1      -4.614   2.487  25.351  0.00  0.00    +0.002 C 
ATOM      9  C   UNL     1      -4.066   3.088  25.216  0.00  0.00    +0.022 C 
ATOM     10  C   UNL     1      -3.397   2.940  24.755  0.00  0.00    +0.096 C 
ATOM     20  C   UNL     1      -3.278   2.193  24.429  0.00  0.00    +0.022 C 
ATOM     21  C   UNL     1      -2.609   2.046  23.968  0.00  0.00    +0.002 C 
ATOM     22  C   UNL     1      -3.826   1.591  24.563  0.00  0.00    +0.032 C 
ATOM     23  C   UNL     1      -3.707   0.843  24.237  0.00  0.00    +0.152 C 
ATOM     24  O   UNL     1      -3.039   0.696  23.777  0.00  0.00    -0.223 OA
ENDROOT
BRANCH  10  11
ATOM     11  N   UNL     1      -2.849   3.542  24.621  0.00  0.00    -0.203 NA
ATOM     12  C   UNL     1      -2.461   3.897  25.256  0.00  0.00    +0.265 C 
ATOM     13  O   UNL     1      -2.621   3.649  26.028  0.00  0.00    -0.268 OA
BRANCH  12  14
ATOM     14  C   UNL     1      -1.912   4.498  25.122  0.00  0.00    +0.055 A 
ATOM     15  C   UNL     1      -1.118   4.314  24.999  0.00  0.00    +0.005 A 
ATOM     16  C   UNL     1      -0.570   4.916  24.865  0.00  0.00    +0.000 A 
ATOM     17  C   UNL     1      -0.817   5.703  24.853  0.00  0.00    +0.000 A 
ATOM     18  C   UNL     1      -1.612   5.888  24.976  0.00  0.00    +0.000 A 
ATOM     19  C   UNL     1      -2.159   5.286  25.110  0.00  0.00    +0.005 A 
ENDBRANCH  12  14
ENDBRANCH  10  11
BRANCH   3   2
ATOM      1  C   UNL     1      -4.328  -0.649  23.256  0.00  0.00    +0.010 C 
ATOM      2  C   UNL     1      -4.136  -0.506  24.046  0.00  0.00    +0.081 C 
BRANCH   2  25
ATOM     25  C   UNL     1      -3.825  -1.113  24.510  0.00  0.00    +0.241 C 
ATOM     26  O   UNL     1      -4.322  -1.555  24.999  0.00  0.00    -0.273 OA
ATOM     27  N   UNL     1      -3.016  -1.279  24.486  0.00  0.00    -0.201 NA
BRANCH  27  28
ATOM     28  C   UNL     1      -2.706  -1.885  24.950  0.00  0.00    +0.141 C 
BRANCH  28  29
ATOM     29  C   UNL     1      -1.891  -1.937  25.069  0.00  0.00    -0.000 A 
ATOM     30  C   UNL     1      -1.526  -1.464  25.638  0.00  0.00    -0.000 A 
ATOM     31  C   UNL     1      -0.711  -1.518  25.756  0.00  0.00    +0.029 A 
ATOM     32  C   UNL     1      -0.262  -2.044  25.307  0.00  0.00    +0.140 A 
ATOM     33  F   UNL     1       0.552  -2.097  25.426  0.00  0.00    -0.204 F 
ATOM     34  C   UNL     1      -0.628  -2.517  24.739  0.00  0.00    +0.029 A 
ATOM     35  C   UNL     1      -1.443  -2.464  24.620  0.00  0.00    -0.000 A 
ENDBRANCH  28  29
ENDBRANCH  27  28
ENDBRANCH   2  25
ENDBRANCH   3   2
TORSDOF 6
ENDMDL
MODEL 3
REMARK VINA RESULT:     -12.5      3.320      5.079
REMARK  Name = 
REMARK  6 active torsions:
REMARK  status: ('A' for Active; 'I' for Inactive)
REMARK    1  A    between atoms: C_2  and  C_3
REMARK    2  A    between atoms: C_2  and  C_25
REMARK    3  A    between atoms: C_10  and  N_11
REMARK    4  A    between atoms: C_12  and  C_14
REMARK    5  A    between atoms: N_27  and  C_28
REMARK    6  A    between atoms: C_28  and  C_29
REMARK                            x       y       z     vdW  Elec       q    Type
REMARK                         _______ _______ _______ _____ _____    ______ ____
ROOT
ATOM      3  C   UNL     1      -0.000   0.653  23.958  0.00  0.00    +0.039 C 
ATOM      4  C   UNL     1       0.405   1.370  24.020  0.00  0.00    +0.003 C 
ATOM      5  C   UNL     1       0.010   2.046  24.278  0.00  0.00    +0.000 C 
ATOM      6  C   UNL     1      -0.790   2.006  24.473  0.00  0.00    +0.002 C 
ATOM      7  C   UNL     1      -0.386   2.722  24.535  0.00  0.00    +0.000 C 
ATOM      8  C   UNL     1      -1.186   2.683  24.731  0.00  0.00    +0.002 C 
ATOM      9  C   UNL     1      -1.986   2.643  24.927  0.00  0.00    +0.022 C 
ATOM     10  C   UNL     1      -2.392   1.926  24.865  0.00  0.00    +0.096 C 
ATOM     20  C   UNL     1      -1.996   1.251  24.607  0.00  0.00    +0.022 C 
ATOM     21  C   UNL     1      -2.401   0.534  24.545  0.00  0.00    +0.002 C 
ATOM     22  C   UNL     1      -1.195   1.289  24.411  0.00  0.00    +0.032 C 
ATOM     23  C   UNL     1      -0.800   0.614  24.153  0.00  0.00    +0.152 C 
ATOM     24  O   UNL     1      -1.205  -0.103  24.091  0.00  0.00    -0.223 OA
ENDROOT
BRANCH  10  11
ATOM     11  N   UNL     1      -3.192   1.888  25.060  0.00  0.00    -0.203 NA
ATOM     12  C   UNL     1      -3.699   2.502  24.850  0.00  0.00    +0.265 C 
ATOM     13  O   UNL     1      -3.406   3.158  24.442  0.00  0.00    -0.268 OA
BRANCH  12  14
ATOM     14  C   UNL     1      -4.500   2.463  25.045  0.00  0.00    +0.055 A 
ATOM     15  C   UNL     1      -5.000   1.948  24.640  0.00  0.00    +0.005 A 
ATOM     16  C   UNL     1      -5.800   1.909  24.836  0.00  0.00    +0.000 A 
ATOM     17  C   UNL     1      -6.101   2.387  25.438  0.00  0.00    +0.000 A 
ATOM     18  C   UNL     1      -5.601   2.903  25.844  0.00  0.00    +0.000 A 
ATOM     19  C   UNL     1      -4.800   2.941  25.647  0.00  0.00    +0.005 A 
ENDBRANCH  12  14
ENDBRANCH  10  11
BRANCH   3   2
ATOM      1  C   UNL     1       0.253  -0.751  24.063  0.00  0.00    +0.010 C 
ATOM      2  C   UNL     1       0.396  -0.023  23.700  0.00  0.00    +0.081 C 
BRANCH   2  25
ATOM     25  C   UNL     1       0.936   0.028  23.079  0.00  0.00    +0.241 C 
ATOM     26  O   UNL     1       0.667   0.066  22.299  0.00  0.00    -0.273 OA
ATOM     27  N   UNL     1       1.747   0.040  23.236  0.00  0.00    -0.201 NA
BRANCH  27  28
ATOM     28  C   UNL     1       2.287   0.091  22.616  0.00  0.00    +0.141 C 
BRANCH  28  29
ATOM     29  C   UNL     1       3.090   0.190  22.774  0.00  0.00    -0.000 A 
ATOM     30  C   UNL     1       3.525  -0.429  23.104  0.00  0.00    -0.000 A 
ATOM     31  C   UNL     1       4.328  -0.329  23.262  0.00  0.00    +0.029 A 
ATOM     32  C   UNL     1       4.697   0.389  23.090  0.00  0.00    +0.140 A 
ATOM     33  F   UNL     1       5.500   0.488  23.249  0.00  0.00    -0.204 F 
ATOM     34  C   UNL     1       4.262   1.007  22.760  0.00  0.00    +0.029 A 
ATOM     35  C   UNL     1       3.458   0.907  22.602  0.00  0.00    -0.000 A 
ENDBRANCH  28  29
ENDBRANCH  27  28
ENDBRANCH   2  25
ENDBRANCH   3   2
TORSDOF 6
ENDMDL
MODEL 4
REMARK VINA RESULT:     -12.3      2.174      3.665
REMARK  Name = 
REMARK  6 active torsions:
REMARK  status: ('A' for Active; 'I' for Inactive)
REMARK    1  A    between atoms: C_2  and  C_3
REMARK    2  A    between atoms: C_2  and  C_25
REMARK    3  A    between atoms: C_10  and  N_11
REMARK    4  A    between atoms: C_12  and  C_14
REMARK    5  A    between atoms: N_27  and  C_28
REMARK    6  A    between atoms: C_28  and  C_29
REMARK                            x       y       z     vdW  Elec       q    Type
REMARK                         _______ _______ _______ _____ _____    ______ ____
ROOT
ATOM      3  C   UNL     1      -0.210   2.044  25.301  0.00  0.00    +0.039 C 
ATOM      4  C   UNL     1       0.294   2.052  24.646  0.00  0.00    +0.003 C 
ATOM      5  C   UNL     1       0.313   1.407  24.133  0.00  0.00    +0.000 C 
ATOM      6  C   UNL     1      -0.171   0.755  24.273  0.00  0.00    +0.002 C 
ATOM      7  C   UNL     1       0.332   0.762  23.620  0.00  0.00    +0.000 C 
ATOM      8  C   UNL     1      -0.152   0.109  23.759  0.00  0.00    +0.002 C 
ATOM      9  C   UNL     1      -0.636  -0.544  23.899  0.00  0.00    +0.022 C 
ATOM     10  C   UNL     1      -1.140  -0.552  24.553  0.00  0.00    +0.096 C 
ATOM     20  C   UNL     1      -1.159   0.093  25.066  0.00  0.00    +0.022 C 
ATOM     21  C   UNL     1      -1.662   0.086  25.720  0.00  0.00    +0.002 C 
ATOM     22  C   UNL     1      -0.675   0.747  24.927  0.00  0.00    +0.032 C 
ATOM     23  C   UNL     1      -0.694   1.392  25.440  0.00  0.00    +0.152 C 
ATOM     24  O   UNL     1      -1.197   1.384  26.094  0.00  0.00    -0.223 OA
ENDROOT
BRANCH  10  11
ATOM     11  N   UNL     1      -1.624  -1.205  24.693  0.00  0.00    -0.203 NA
ATOM     12  C   UNL     1      -2.250  -1.371  24.183  0.00  0.00    +0.265 C 
ATOM     13  O   UNL     1      -2.393  -0.884  23.531  0.00  0.00    -0.268 OA
BRANCH  12  14
ATOM     14  C   UNL     1      -2.734  -2.025  24.322  0.00  0.00    +0.055 A 
ATOM     15  C   UNL     1      -2.405  -2.735  24.581  0.00  0.00    +0.005 A 
ATOM     16  C   UNL     1      -2.890  -3.389  24.720  0.00  0.00    +0.000 A 
ATOM     17  C   UNL     1      -3.704  -3.331  24.600  0.00  0.00    +0.000 A 
ATOM     18  C   UNL     1      -4.034  -2.620  24.341  0.00  0.00    +0.000 A 
ATOM     19  C   UNL     1      -3.549  -1.967  24.202  0.00  0.00    +0.005 A 
ENDBRANCH  12  14
ENDBRANCH  10  11
BRANCH   3   2
ATOM      1  C   UNL     1       0.177   2.660  26.532  0.00  0.00    +0.010 C 
ATOM      2  C   UNL     1      -0.228   2.690  25.814  0.00  0.00    +0.081 C 
BRANCH   2  25
ATOM     25  C   UNL     1      -0.653   3.367  25.609  0.00  0.00    +0.241 C 
ATOM     26  O   UNL     1      -0.263   4.014  25.274  0.00  0.00    -0.273 OA
ATOM     27  N   UNL     1      -1.468   3.399  25.739  0.00  0.00    -0.201 NA
BRANCH  27  28
ATOM     28  C   UNL     1      -1.892   4.075  25.534  0.00  0.00    +0.141 C 
BRANCH  28  29
ATOM     29  C   UNL     1      -2.714   4.045  25.475  0.00  0.00    -0.000 A 
ATOM     30  C   UNL     1      -3.072   3.955  24.737  0.00  0.00    -0.000 A 
ATOM     31  C   UNL     1      -3.894   3.925  24.679  0.00  0.00    +0.029 A 
ATOM     32  C   UNL     1      -4.359   3.984  25.358  0.00  0.00    +0.140 A 
ATOM     33  F   UNL     1      -5.180   3.954  25.300  0.00  0.00    -0.204 F 
ATOM     34  C   UNL     1      -4.001   4.074  26.096  0.00  0.00    +0.029 A 
ATOM     35  C   UNL     1      -3.177   4.104  26.155  0.00  0.00    -0.000 A 
ENDBRANCH  28  29
ENDBRANCH  27  28
ENDBRANCH   2  25
ENDBRANCH   3   2
TORSDOF 6
ENDMDL
MODEL 5
REMARK VINA RESULT:     -11.8      2.553      6.264
REMARK  Name = 
REMARK  6 active torsions:
REMARK  status: ('A' for Active; 'I' for Inactive)
REMARK    1  A    between atoms: C_2  and  C_3
REMARK    2  A    between atoms: C_2  and  C_25
REMARK    3  A    between atoms: C_10  and  N_11
REMARK    4  A    between atoms: C_12  and  C_14
REMARK    5  A    between atoms: N_27  and  C_28
REMARK    6  A    between atoms: C_28  and  C_29
REMARK                            x       y       z     vdW  Elec       q    Type
REMARK                         _______ _______ _______ _____ _____    ______ ____
ROOT
ATOM      3  C   UNL     1      -0.414  -0.927  24.846  0.00  0.00    +0.039 C 
ATOM      4  C   UNL     1      -0.023  -0.988  24.121  0.00  0.00    +0.003 C 
ATOM      5  C   UNL     1       0.167  -0.307  23.697  0.00  0.00    +0.000 C 
ATOM      6  C   UNL     1      -0.032   0.435  23.997  0.00  0.00    +0.002 C 
ATOM      7  C   UNL     1       0.358   0.374  23.274  0.00  0.00    +0.000 C 
ATOM      8  C   UNL     1       0.158   1.117  23.573  0.00  0.00    +0.002 C 
ATOM      9  C   UNL     1      -0.041   1.858  23.873  0.00  0.00    +0.022 C 
ATOM     10  C   UNL     1      -0.432   1.919  24.598  0.00  0.00    +0.096 C 
ATOM     20  C   UNL     1      -0.622   1.238  25.022  0.00  0.00    +0.022 C 
ATOM     21  C   UNL     1      -1.013   1.299  25.746  0.00  0.00    +0.002 C 
ATOM     22  C   UNL     1      -0.423   0.495  24.722  0.00  0.00    +0.032 C 
ATOM     23  C   UNL     1      -0.614  -0.186  25.146  0.00  0.00    +0.152 C 
ATOM     24  O   UNL     1      -1.004  -0.125  25.870  0.00  0.00    -0.223 OA
ENDROOT
BRANCH  10  11
ATOM     11  N   UNL     1      -0.631   2.662  24.897  0.00  0.00    -0.203 NA
ATOM     12  C   UNL     1      -1.073   3.187  24.440  0.00  0.00    +0.265 C 
ATOM     13  O   UNL     1      -1.315   2.969  23.681  0.00  0.00    -0.268 OA
BRANCH  12  14
ATOM     14  C   UNL     1      -1.272   3.929  24.740  0.00  0.00    +0.055 A 
ATOM     15  C   UNL     1      -0.737   4.554  24.684  0.00  0.00    +0.005 A 
ATOM     16  C   UNL     1      -0.937   5.297  24.983  0.00  0.00    +0.000 A 
ATOM     17  C   UNL     1      -1.672   5.414  25.339  0.00  0.00    +0.000 A 
ATOM     18  C   UNL     1      -2.208   4.788  25.395  0.00  0.00    +0.000 A 
ATOM     19  C   UNL     1      -2.007   4.046  25.095  0.00  0.00    +0.005 A 
ENDBRANCH  12  14
ENDBRANCH  10  11
BRANCH   3   2
ATOM      1  C   UNL     1      -0.246  -1.757  25.999  0.00  0.00    +0.010 C 
ATOM      2  C   UNL     1      -0.605  -1.609  25.270  0.00  0.00    +0.081 C 
BRANCH   2  25
ATOM     25  C   UNL     1      -1.154  -2.144  24.965  0.00  0.00    +0.241 C 
ATOM     26  O   UNL     1      -0.896  -2.838  24.600  0.00  0.00    -0.273 OA
ATOM     27  N   UNL     1      -1.962  -1.985  25.025  0.00  0.00    -0.201 NA
BRANCH  27  28
ATOM     28  C   UNL     1      -2.511  -2.518  24.721  0.00  0.00    +0.141 C 
BRANCH  28  29
ATOM     29  C   UNL     1      -3.252  -2.253  24.474  0.00  0.00    -0.000 A 
ATOM     30  C   UNL     1      -3.587  -1.583  24.820  0.00  0.00    -0.000 A 
ATOM     31  C   UNL     1      -4.328  -1.319  24.573  0.00  0.00    +0.029 A 
ATOM     32  C   UNL     1      -4.735  -1.724  23.979  0.00  0.00    +0.140 A 
ATOM     33  F   UNL     1      -5.475  -1.459  23.732  0.00  0.00    -0.204 F 
ATOM     34  C   UNL     1      -4.399  -2.393  23.633  0.00  0.00    +0.029 A 
ATOM     35  C   UNL     1      -3.657  -2.659  23.881  0.00  0.00    -0.000 A 
ENDBRANCH  28  29
ENDBRANCH  27  28
ENDBRANCH   2  25
ENDBRANCH   3   2
TORSDOF 6
ENDMDL
MODEL 6
REMARK VINA RESULT:     -11.5      2.267      5.320
REMARK  Name = 
REMARK  6 active torsions:
REMARK  status: ('A' for Active; 'I' for Inactive)
REMARK    1  A    between atoms: C_2  and  C_3
REMARK    2  A    between atoms: C_2  and  C_25
REMARK    3  A    between atoms: C_10  and  N_11
REMARK    4  A    between atoms: C_12  and  C_14
REMARK    5  A    between atoms: N_27  and  C_28
REMARK    6  A    between atoms: C_28  and  C_29
REMARK                            x       y       z     vdW  Elec       q    Type
REMARK                         _______ _______ _______ _____ _____    ______ ____
ROOT
ATOM      3  C   UNL     1      -0.538   1.037  24.365  0.00  0.00    +0.039 C 
ATOM      4  C   UNL     1      -0.007   1.392  24.889  0.00  0.00    +0.003 C 
ATOM      5  C   UNL     1      -0.240   2.049  25.329  0.00  0.00    +0.000 C 
ATOM      6  C   UNL     1      -1.002   2.352  25.245  0.00  0.00    +0.002 C 
ATOM      7  C   UNL     1      -0.473   2.706  25.769  0.00  0.00    +0.000 C 
ATOM      8  C   UNL     1      -1.236   3.010  25.685  0.00  0.00    +0.002 C 
ATOM      9  C   UNL     1      -1.997   3.314  25.601  0.00  0.00    +0.022 C 
ATOM     10  C   UNL     1      -2.528   2.959  25.076  0.00  0.00    +0.096 C 
ATOM     20  C   UNL     1      -2.295   2.302  24.637  0.00  0.00    +0.022 C 
ATOM     21  C   UNL     1      -2.824   1.948  24.113  0.00  0.00    +0.002 C 
ATOM     22  C   UNL     1      -1.532   1.998  24.720  0.00  0.00    +0.032 C 
ATOM     23  C   UNL     1      -1.299   1.341  24.281  0.00  0.00    +0.152 C 
ATOM     24  O   UNL     1      -1.829   0.987  23.756  0.00  0.00    -0.223 OA
ENDROOT
BRANCH  10  11
ATOM     11  N   UNL     1      -3.290   3.264  24.993  0.00  0.00    -0.203 NA
ATOM     12  C   UNL     1      -3.751   3.412  25.660  0.00  0.00    +0.265 C 
ATOM     13  O   UNL     1      -3.450   3.256  26.413  0.00  0.00    -0.268 OA
BRANCH  12  14
ATOM     14  C   UNL     1      -4.514   3.716  25.576  0.00  0.00    +0.055 A 
ATOM     15  C   UNL     1      -4.622   4.503  25.356  0.00  0.00    +0.005 A 
ATOM     16  C   UNL     1      -5.385   4.807  25.273  0.00  0.00    +0.000 A 
ATOM     17  C   UNL     1      -6.039   4.323  25.409  0.00  0.00    +0.000 A 
ATOM     18  C   UNL     1      -5.930   3.535  25.630  0.00  0.00    +0.000 A 
ATOM     19  C   UNL     1      -5.168   3.232  25.713  0.00  0.00    +0.005 A 
ENDBRANCH  12  14
ENDBRANCH  10  11
BRANCH   3   2
ATOM      1  C   UNL     1      -0.051   0.471  23.145  0.00  0.00    +0.010 C 
ATOM      2  C   UNL     1      -0.304   0.379  23.925  0.00  0.00    +0.081 C 
BRANCH   2  25
ATOM     25  C   UNL     1      -0.323  -0.372  24.265  0.00  0.00    +0.241 C 
ATOM     26  O   UNL     1       0.362  -0.695  24.593  0.00  0.00    -0.273 OA
ATOM     27  N   UNL     1      -1.029  -0.801  24.278  0.00  0.00    -0.201 NA
BRANCH  27  28
ATOM     28  C   UNL     1      -1.048  -1.552  24.618  0.00  0.00    +0.141 C 
BRANCH  28  29
ATOM     29  C   UNL     1      -1.765  -1.954  24.691  0.00  0.00    -0.000 A 
ATOM     30  C   UNL     1      -2.291  -1.755  25.294  0.00  0.00    -0.000 A 
ATOM     31  C   UNL     1      -3.007  -2.157  25.366  0.00  0.00    +0.029 A 
ATOM     32  C   UNL     1      -3.198  -2.759  24.835  0.00  0.00    +0.140 A 
ATOM     33  F   UNL     1      -3.913  -3.162  24.907  0.00  0.00    -0.204 F 
ATOM     34  C   UNL     1      -2.671  -2.958  24.232  0.00  0.00    +0.029 A 
ATOM     35  C   UNL     1      -1.954  -2.556  24.159  0.00  0.00    -0.000 A 
ENDBRANCH  28  29
ENDBRANCH  27  28
ENDBRANCH   2  25
ENDBRANCH   3   2
TORSDOF 6
ENDMDL
MODEL 7
REMARK VINA RESULT:     -11.4      2.875      5.310
REMARK  Name = 
REMARK  6 active torsions:
REMARK  status: ('A' for Active; 'I' for Inactive)
REMARK    1  A    between atoms: C_2  and  C_3
REMARK    2  A    between atoms: C_2  and  C_25
REMARK    3  A    between atoms: C_10  and  N_11
REMARK    4  A    between atoms: C_12  and  C_14
REMARK    5  A    between atoms: N_27  and  C_28
REMARK    6  A    between atoms: C_28  and  C_29
REMARK                            x       y       z     vdW  Elec       q    Type
REMARK                         _______ _______ _______ _____ _____    ______ ____
ROOT
ATOM      3  C   UNL     1      -2.497   1.848  24.426  0.00  0.00    +0.039 C 
ATOM      4  C   UNL     1      -2.321   2.280  25.107  0.00  0.00    +0.003 C 
ATOM      5  C   UNL     1      -1.539   2.351  25.360  0.00  0.00    +0.000 C 
ATOM      6  C   UNL     1      -0.933   1.990  24.933  0.00  0.00    +0.002 C 
ATOM      7  C   UNL     1      -0.758   2.422  25.613  0.00  0.00    +0.000 C 
ATOM      8  C   UNL     1      -0.151   2.060  25.186  0.00  0.00    +0.002 C 
ATOM      9  C   UNL     1       0.455   1.699  24.759  0.00  0.00    +0.022 C 
ATOM     10  C   UNL     1       0.279   1.266  24.078  0.00  0.00    +0.096 C 
ATOM     20  C   UNL     1      -0.503   1.195  23.825  0.00  0.00    +0.022 C 
ATOM     21  C   UNL     1      -0.679   0.763  23.145  0.00  0.00    +0.002 C 
ATOM     22  C   UNL     1      -1.110   1.557  24.252  0.00  0.00    +0.032 C 
ATOM     23  C   UNL     1      -1.891   1.486  24.000  0.00  0.00    +0.152 C 
ATOM     24  O   UNL     1      -2.067   1.054  23.319  0.00  0.00    -0.223 OA
ENDROOT
BRANCH  10  11
ATOM     11  N   UNL     1       0.885   0.905  23.651  0.00  0.00    -0.203 NA
ATOM     12  C   UNL     1       1.613   1.282  23.568  0.00  0.00    +0.265 C 
ATOM     13  O   UNL     1       1.736   2.023  23.913  0.00  0.00    -0.268 OA
BRANCH  12  14
ATOM     14  C   UNL     1       2.220   0.921  23.141  0.00  0.00    +0.055 A 
ATOM     15  C   UNL     1       2.076   0.219  22.733  0.00  0.00    +0.005 A 
ATOM     16  C   UNL     1       2.683  -0.142  22.306  0.00  0.00    +0.000 A 
ATOM     17  C   UNL     1       3.434   0.199  22.288  0.00  0.00    +0.000 A 
ATOM     18  C   UNL     1       3.578   0.901  22.697  0.00  0.00    +0.000 A 
ATOM     19  C   UNL     1       2.971   1.262  23.124  0.00  0.00    +0.005 A 
ENDBRANCH  12  14
ENDBRANCH  10  11
BRANCH   3   2
ATOM      1  C   UNL     1      -3.558   2.246  23.554  0.00  0.00    +0.010 C 
ATOM      2  C   UNL     1      -3.279   1.777  24.174  0.00  0.00    +0.081 C 
BRANCH   2  25
ATOM     25  C   UNL     1      -3.784   1.238  24.541  0.00  0.00    +0.241 C 
ATOM     26  O   UNL     1      -4.312   1.495  25.122  0.00  0.00    -0.273 OA
ATOM     27  N   UNL     1      -3.761   0.440  24.329  0.00  0.00    -0.201 NA
BRANCH  27  28
ATOM     28  C   UNL     1      -4.265  -0.099  24.696  0.00  0.00    +0.141 C 
BRANCH  28  29
ATOM     29  C   UNL     1      -4.123  -0.909  24.629  0.00  0.00    -0.000 A 
ATOM     30  C   UNL     1      -3.720  -1.308  25.229  0.00  0.00    -0.000 A 
ATOM     31  C   UNL     1      -3.578  -2.117  25.162  0.00  0.00    +0.029 A 
ATOM     32  C   UNL     1      -3.838  -2.528  24.496  0.00  0.00    +0.140 A 
ATOM     33  F   UNL     1      -3.696  -3.338  24.429  0.00  0.00    -0.204 F 
ATOM     34  C   UNL     1      -4.241  -2.129  23.896  0.00  0.00    +0.029 A 
ATOM     35  C   UNL     1      -4.383  -1.319  23.963  0.00  0.00    -0.000 A 
ENDBRANCH  28  29
ENDBRANCH  27  28
ENDBRANCH   2  25
ENDBRANCH   3   2
TORSDOF 6
ENDMDL
MODEL 8
REMARK VINA RESULT:     -11.4      2.595      4.699
REMARK  Name = 
REMARK  6 active torsions:
REMARK  status: ('A' for Active; 'I' for Inactive)
REMARK    1  A    between atoms: C_2  and  C_3
REMARK    2  A    between atoms: C_2  and  C_25
REMARK    3  A    between atoms: C_10  and  N_11
REMARK    4  A    between atoms: C_12  and  C_14
REMARK    5  A    between atoms: N_27  and  C_28
REMARK    6  A    between atoms: C_28  and  C_29
REMARK                            x       y       z     vdW  Elec       q    Type
REMARK                         _______ _______ _______ _____ _____    ______ ____
ROOT
ATOM      3  C   UNL     1      -1.690  -1.128  24.673  0.00  0.00    +0.039 C 
ATOM      4  C   UNL     1      -2.202  -1.726  24.422  0.00  0.00    +0.003 C 
ATOM      5  C   UNL     1      -3.015  -1.593  24.412  0.00  0.00    +0.000 C 
ATOM      6  C   UNL     1      -3.318  -0.865  24.651  0.00  0.00    +0.002 C 
ATOM      7  C   UNL     1      -3.829  -1.461  24.401  0.00  0.00    +0.000 C 
ATOM      8  C   UNL     1      -4.133  -0.733  24.641  0.00  0.00    +0.002 C 
ATOM      9  C   UNL     1      -4.436  -0.004  24.881  0.00  0.00    +0.022 C 
ATOM     10  C   UNL     1      -3.924   0.593  25.132  0.00  0.00    +0.096 C 
ATOM     20  C   UNL     1      -3.110   0.461  25.143  0.00  0.00    +0.022 C 
ATOM     21  C   UNL     1      -2.599   1.058  25.393  0.00  0.00    +0.002 C 
ATOM     22  C   UNL     1      -2.806  -0.268  24.902  0.00  0.00    +0.032 C 
ATOM     23  C   UNL     1      -1.993  -0.400  24.913  0.00  0.00    +0.152 C 
ATOM     24  O   UNL     1      -1.481   0.197  25.164  0.00  0.00    -0.223 OA
ENDROOT
BRANCH  10  11
ATOM     11  N   UNL     1      -4.227   1.322  25.372  0.00  0.00    -0.203 NA
ATOM     12  C   UNL     1      -4.740   1.739  24.879  0.00  0.00    +0.265 C 
ATOM     13  O   UNL     1      -4.949   1.427  24.143  0.00  0.00    -0.268 OA
BRANCH  12  14
ATOM     14  C   UNL     1      -5.043   2.467  25.119  0.00  0.00    +0.055 A 
ATOM     15  C   UNL     1      -4.653   3.164  24.916  0.00  0.00    +0.005 A 
ATOM     16  C   UNL     1      -4.956   3.893  25.156  0.00  0.00    +0.000 A 
ATOM     17  C   UNL     1      -5.651   3.924  25.599  0.00  0.00    +0.000 A 
ATOM     18  C   UNL     1      -6.043   3.226  25.802  0.00  0.00    +0.000 A 
ATOM     19  C   UNL     1      -5.738   2.498  25.562  0.00  0.00    +0.005 A 
ENDBRANCH  12  14
ENDBRANCH  10  11
BRANCH   3   2
ATOM      1  C   UNL     1      -0.492  -1.426  25.395  0.00  0.00    +0.010 C 
ATOM      2  C   UNL     1      -0.875  -1.261  24.683  0.00  0.00    +0.081 C 
BRANCH   2  25
ATOM     25  C   UNL     1      -0.444  -1.228  23.981  0.00  0.00    +0.241 C 
ATOM     26  O   UNL     1      -0.575  -1.789  23.389  0.00  0.00    -0.273 OA
ATOM     27  N   UNL     1       0.119  -0.634  23.869  0.00  0.00    -0.201 NA
BRANCH  27  28
ATOM     28  C   UNL     1       0.550  -0.602  23.168  0.00  0.00    +0.141 C 
BRANCH  28  29
ATOM     29  C   UNL     1       1.206  -0.105  23.109  0.00  0.00    -0.000 A 
ATOM     30  C   UNL     1       1.183   0.651  23.439  0.00  0.00    -0.000 A 
ATOM     31  C   UNL     1       1.839   1.147  23.379  0.00  0.00    +0.029 A 
ATOM     32  C   UNL     1       2.518   0.888  22.990  0.00  0.00    +0.140 A 
ATOM     33  F   UNL     1       3.174   1.384  22.930  0.00  0.00    -0.204 F 
ATOM     34  C   UNL     1       2.542   0.132  22.660  0.00  0.00    +0.029 A 
ATOM     35  C   UNL     1       1.885  -0.365  22.719  0.00  0.00    -0.000 A 
ENDBRANCH  28  29
ENDBRANCH  27  28
ENDBRANCH   2  25
ENDBRANCH   3   2
TORSDOF 6
ENDMDL
MODEL 9
REMARK VINA RESULT:     -11.2      2.869      4.681
REMARK  Name = 
REMARK  6 active torsions:
REMARK  status: ('A' for Active; 'I' for Inactive)
REMARK    1  A    between atoms: C_2  and  C_3
REMARK    2  A    between atoms: C_2  and  C_25
REMARK    3  A    between atoms: C_10  and  N_11
REMARK    4  A    between atoms: C_12  and  C_14
REMARK    5  A    between atoms: N_27  and  C_28
REMARK    6  A    between atoms: C_28  and  C_29
REMARK                            x       y       z     vdW  Elec       q    Type
REMARK                         _______ _______ _______ _____ _____    ______ ____
ROOT
ATOM      3  C   UNL     1      -1.692   3.738  25.519  0.00  0.00    +0.039 C 
ATOM      4  C   UNL     1      -1.479   3.531  26.289  0.00  0.00    +0.003 C 
ATOM      5  C   UNL     1      -0.893   2.965  26.417  0.00  0.00    +0.000 C 
ATOM      6  C   UNL     1      -0.520   2.606  25.776  0.00  0.00    +0.002 C 
ATOM      7  C   UNL     1      -0.307   2.400  26.544  0.00  0.00    +0.000 C 
ATOM      8  C   UNL     1       0.066   2.039  25.903  0.00  0.00    +0.002 C 
ATOM      9  C   UNL     1       0.439   1.680  25.261  0.00  0.00    +0.022 C 
ATOM     10  C   UNL     1       0.225   1.886  24.491  0.00  0.00    +0.096 C 
ATOM     20  C   UNL     1      -0.360   2.452  24.363  0.00  0.00    +0.022 C 
ATOM     21  C   UNL     1      -0.574   2.658  23.593  0.00  0.00    +0.002 C 
ATOM     22  C   UNL     1      -0.734   2.812  25.005  0.00  0.00    +0.032 C 
ATOM     23  C   UNL     1      -1.320   3.378  24.877  0.00  0.00    +0.152 C 
ATOM     24  O   UNL     1      -1.533   3.584  24.108  0.00  0.00    -0.223 OA
ENDROOT
BRANCH  10  11
ATOM     11  N   UNL     1       0.599   1.526  23.849  0.00  0.00    -0.203 NA
ATOM     12  C   UNL     1       0.663   0.705  23.817  0.00  0.00    +0.265 C 
ATOM     13  O   UNL     1       0.353   0.242  24.427  0.00  0.00    -0.268 OA
BRANCH  12  14
ATOM     14  C   UNL     1       1.036   0.344  23.175  0.00  0.00    +0.055 A 
ATOM     15  C   UNL     1       1.844   0.455  23.052  0.00  0.00    +0.005 A 
ATOM     16  C   UNL     1       2.217   0.094  22.410  0.00  0.00    +0.000 A 
ATOM     17  C   UNL     1       1.782  -0.377  21.891  0.00  0.00    +0.000 A 
ATOM     18  C   UNL     1       0.973  -0.488  22.015  0.00  0.00    +0.000 A 
ATOM     19  C   UNL     1       0.601  -0.127  22.656  0.00  0.00    +0.005 A 
ENDBRANCH  12  14
ENDBRANCH  10  11
BRANCH   3   2
ATOM      1  C   UNL     1      -2.124   4.960  24.915  0.00  0.00    +0.010 C 
ATOM      2  C   UNL     1      -2.279   4.304  25.391  0.00  0.00    +0.081 C 
BRANCH   2  25
ATOM     25  C   UNL     1      -3.021   4.214  25.741  0.00  0.00    +0.241 C 
ATOM     26  O   UNL     1      -3.181   4.570  26.468  0.00  0.00    -0.273 OA
ATOM     27  N   UNL     1      -3.604   3.769  25.362  0.00  0.00    -0.201 NA
BRANCH  27  28
ATOM     28  C   UNL     1      -4.345   3.679  25.711  0.00  0.00    +0.141 C 
BRANCH  28  29
ATOM     29  C   UNL     1      -4.846   3.070  25.467  0.00  0.00    -0.000 A 
ATOM     30  C   UNL     1      -4.803   2.786  24.694  0.00  0.00    -0.000 A 
ATOM     31  C   UNL     1      -5.303   2.178  24.450  0.00  0.00    +0.029 A 
ATOM     32  C   UNL     1      -5.847   1.853  24.979  0.00  0.00    +0.140 A 
ATOM     33  F   UNL     1      -6.348   1.245  24.736  0.00  0.00    -0.204 F 
ATOM     34  C   UNL     1      -5.890   2.138  25.752  0.00  0.00    +0.029 A 
ATOM     35  C   UNL     1      -5.389   2.747  25.997  0.00  0.00    -0.000 A 
ENDBRANCH  28  29
ENDBRANCH  27  28
ENDBRANCH   2  25
ENDBRANCH   3   2
TORSDOF 6
ENDMDL
MODEL 10
REMARK VINA RESULT:     -10.9      2.792      5.228
REMARK  Name = 
REMARK  6 active torsions:
REMARK  status: ('A' for Active; 'I' for Inactive)
REMARK    1  A    between atoms: C_2  and  C_3
REMARK    2  A    between atoms: C_2  and  C_25
REMARK    3  A    between atoms: C_10  and  N_11
REMARK    4  A    between atoms: C_12  and  C_14
REMARK    5  A    between atoms: N_27  and  C_28
REMARK    6  A    between atoms: C_28  and  C_29
REMARK                            x       y       z     vdW  Elec       q    Type
REMARK                         _______ _______ _______ _____ _____    ______ ____
ROOT
ATOM      3  C   UNL     1      -2.987  -1.025  25.208  0.00  0.00    +0.039 C 
ATOM      4  C   UNL     1      -3.050  -1.801  24.933  0.00  0.00    +0.003 C 
ATOM      5  C   UNL     1      -2.416  -2.151  24.538  0.00  0.00    +0.000 C 
ATOM      6  C   UNL     1      -1.720  -1.726  24.417  0.00  0.00    +0.002 C 
ATOM      7  C   UNL     1      -1.783  -2.500  24.142  0.00  0.00    +0.000 C 
ATOM      8  C   UNL     1      -1.086  -2.075  24.022  0.00  0.00    +0.002 C 
ATOM      9  C   UNL     1      -0.389  -1.650  23.902  0.00  0.00    +0.022 C 
ATOM     10  C   UNL     1      -0.327  -0.874  24.177  0.00  0.00    +0.096 C 
ATOM     20  C   UNL     1      -0.960  -0.525  24.573  0.00  0.00    +0.022 C 
ATOM     21  C   UNL     1      -0.897   0.250  24.848  0.00  0.00    +0.002 C 
ATOM     22  C   UNL     1      -1.657  -0.950  24.693  0.00  0.00    +0.032 C 
ATOM     23  C   UNL     1      -2.291  -0.600  25.088  0.00  0.00    +0.152 C 
ATOM     24  O   UNL     1      -2.228   0.175  25.363  0.00  0.00    -0.223 OA
ENDROOT
BRANCH  10  11
ATOM     11  N   UNL     1       0.371  -0.450  24.057  0.00  0.00    -0.203 NA
ATOM     12  C   UNL     1       0.662  -0.343  23.293  0.00  0.00    +0.265 C 
ATOM     13  O   UNL     1       0.257  -0.661  22.648  0.00  0.00    -0.268 OA
BRANCH  12  14
ATOM     14  C   UNL     1       1.359   0.082  23.173  0.00  0.00    +0.055 A 
ATOM     15  C   UNL     1       1.431   0.850  23.464  0.00  0.00    +0.005 A 
ATOM     16  C   UNL     1       2.128   1.275  23.344  0.00  0.00    +0.000 A 
ATOM     17  C   UNL     1       2.754   0.931  22.931  0.00  0.00    +0.000 A 
ATOM     18  C   UNL     1       2.683   0.161  22.639  0.00  0.00    +0.000 A 
ATOM     19  C   UNL     1       1.986  -0.262  22.761  0.00  0.00    +0.005 A 
ENDBRANCH  12  14
ENDBRANCH  10  11
BRANCH   3   2
ATOM      1  C   UNL     1      -3.678  -0.732  26.425  0.00  0.00    +0.010 C 
ATOM      2  C   UNL     1      -3.621  -0.676  25.604  0.00  0.00    +0.081 C 
BRANCH   2  25
ATOM     25  C   UNL     1      -4.199  -0.269  25.177  0.00  0.00    +0.241 C 
ATOM     26  O   UNL     1      -4.610  -0.651  24.572  0.00  0.00    -0.273 OA
ATOM     27  N   UNL     1      -4.367   0.519  25.356  0.00  0.00    -0.201 NA
BRANCH  27  28
ATOM     28  C   UNL     1      -4.944   0.925  24.930  0.00  0.00    +0.141 C 
BRANCH  28  29
ATOM     29  C   UNL     1      -5.086   1.722  25.084  0.00  0.00    -0.000 A 
ATOM     30  C   UNL     1      -4.625   2.302  24.721  0.00  0.00    -0.000 A 
ATOM     31  C   UNL     1      -4.768   3.099  24.876  0.00  0.00    +0.029 A 
ATOM     32  C   UNL     1      -5.372   3.318  25.393  0.00  0.00    +0.140 A 
ATOM     33  F   UNL     1      -5.516   4.115  25.547  0.00  0.00    -0.204 F 
ATOM     34  C   UNL     1      -5.834   2.738  25.756  0.00  0.00    +0.029 A 
ATOM     35  C   UNL     1      -5.691   1.940  25.601  0.00  0.00    -0.000 A 
ENDBRANCH  28  29
ENDBRANCH  27  28
ENDBRANCH   2  25
ENDBRANCH   3   2
TORSDOF 6
ENDMDL
