MODEL 1
REMARK VINA RESULT:     -10.1      0.000      0.000
REMARK  Name = 
REMARK  3 active torsions:
REMARK  status: ('A' for Active; 'I' for Inactive)
REMARK    1  A    between atoms: C_5  and  C_7
REMARK    2  A    between atoms: C_10  and  C_12
REMARK    3  A    between atoms: N_17  and  C_18
REMARK                            x       y       z     vdW  Elec       q    Type
REMARK                         _______ _______ _______ _____ _____    ______ ____
ROOT
ATOM      7  C   UNL     1      -3.516   0.131  24.580  0.00  0.00    +0.108 A 
ATOM      8  C   UNL     1      -3.664   0.444  23.831  0.00  0.00    +0.120 A 
ATOM      9  N   UNL     1      -3.610   1.266  23.883  0.00  0.00    -0.226 NA
ATOM     10  C   UNL     1      -3.430   1.460  24.664  0.00  0.00    +0.156 A 
ATOM     11  N   UNL     1      -3.372   0.759  25.094  0.00  0.00    -0.227 NA
ENDROOT
BRANCH   7   5
ATOM      1 CL   UNL     1      -3.788  -2.756  24.418  0.00  0.00    -0.075 Cl
ATOM      2  C   UNL     1      -3.638  -1.997  24.705  0.00  0.00    +0.087 A 
ATOM      3  C   UNL     1      -3.381  -1.808  25.465  0.00  0.00    +0.019 A 
ATOM      4  C   UNL     1      -3.304  -0.987  25.511  0.00  0.00    +0.009 A 
ATOM      5  C   UNL     1      -3.514  -0.670  24.779  0.00  0.00    +0.049 A 
ATOM      6  S   UNL     1      -3.720  -1.294  24.281  0.00  0.00    -0.074 S 
ENDBRANCH   7   5
BRANCH  10  12
ATOM     12  C   UNL     1      -3.326   2.223  24.962  0.00  0.00    +0.147 C 
ATOM     13  C   UNL     1      -2.566   2.535  25.042  0.00  0.00    +0.166 C 
ATOM     14  O   UNL     1      -2.464   3.297  25.340  0.00  0.00    -0.350 OA
ATOM     15  C   UNL     1      -3.119   3.748  25.557  0.00  0.00    +0.160 C 
ATOM     16  C   UNL     1      -3.879   3.436  25.476  0.00  0.00    +0.105 C 
ATOM     17  N   UNL     1      -3.983   2.673  25.179  0.00  0.00    -0.265 NA
BRANCH  17  18
ATOM     18  C   UNL     1      -4.742   2.361  25.098  0.00  0.00    +0.058 C 
ATOM     19  C   UNL     1      -5.285   2.300  24.480  0.00  0.00    +0.016 C 
ATOM     20  C   UNL     1      -5.816   1.920  24.984  0.00  0.00    +0.003 C 
ATOM     21  C   UNL     1      -5.273   1.982  25.603  0.00  0.00    +0.016 C 
ENDBRANCH  17  18
ENDBRANCH  10  12
TORSDOF 3
ENDMDL
MODEL 2
REMARK VINA RESULT:      -9.9      1.166      1.881
REMARK  Name = 
REMARK  3 active torsions:
REMARK  status: ('A' for Active; 'I' for Inactive)
REMARK    1  A    between atoms: C_5  and  C_7
REMARK    2  A    between atoms: C_10  and  C_12
REMARK    3  A    between atoms: N_17  and  C_18
REMARK                            x       y       z     vdW  Elec       q    Type
REMARK                         _______ _______ _______ _____ _____    ______ ____
ROOT
ATOM      7  C   UNL     1      -3.483  -0.089  24.628  0.00  0.00    +0.108 A 
ATOM      8  C   UNL     1      -2.782   0.182  24.970  0.00  0.00    +0.120 A 
ATOM      9  N   UNL     1      -2.832   1.003  25.037  0.00  0.00    -0.226 NA
ATOM     10  C   UNL     1      -3.564   1.239  24.736  0.00  0.00    +0.156 A 
ATOM     11  N   UNL     1      -3.965   0.564  24.483  0.00  0.00    -0.227 NA
ENDROOT
BRANCH   7   5
ATOM      1 CL   UNL     1      -3.508  -2.993  24.684  0.00  0.00    -0.075 Cl
ATOM      2  C   UNL     1      -3.679  -2.210  24.485  0.00  0.00    +0.087 A 
ATOM      3  C   UNL     1      -4.223  -1.962  23.918  0.00  0.00    +0.019 A 
ATOM      4  C   UNL     1      -4.216  -1.137  23.902  0.00  0.00    +0.009 A 
ATOM      5  C   UNL     1      -3.667  -0.876  24.460  0.00  0.00    +0.049 A 
ATOM      6  S   UNL     1      -3.336  -1.539  24.820  0.00  0.00    -0.074 S 
ENDBRANCH   7   5
BRANCH  10  12
ATOM     12  C   UNL     1      -3.843   2.014  24.695  0.00  0.00    +0.147 C 
ATOM     13  C   UNL     1      -4.416   2.275  25.228  0.00  0.00    +0.166 C 
ATOM     14  O   UNL     1      -4.695   3.050  25.186  0.00  0.00    -0.350 OA
ATOM     15  C   UNL     1      -4.402   3.564  24.612  0.00  0.00    +0.160 C 
ATOM     16  C   UNL     1      -3.829   3.303  24.079  0.00  0.00    +0.105 C 
ATOM     17  N   UNL     1      -3.550   2.528  24.119  0.00  0.00    -0.265 NA
BRANCH  17  18
ATOM     18  C   UNL     1      -2.977   2.267  23.586  0.00  0.00    +0.058 C 
ATOM     19  C   UNL     1      -2.155   2.207  23.596  0.00  0.00    +0.016 C 
ATOM     20  C   UNL     1      -2.167   1.897  22.832  0.00  0.00    +0.003 C 
ATOM     21  C   UNL     1      -2.991   1.957  22.821  0.00  0.00    +0.016 C 
ENDBRANCH  17  18
ENDBRANCH  10  12
TORSDOF 3
ENDMDL
MODEL 3
REMARK VINA RESULT:      -9.8      2.421      4.198
REMARK  Name = 
REMARK  3 active torsions:
REMARK  status: ('A' for Active; 'I' for Inactive)
REMARK    1  A    between atoms: C_5  and  C_7
REMARK    2  A    between atoms: C_10  and  C_12
REMARK    3  A    between atoms: N_17  and  C_18
REMARK                            x       y       z     vdW  Elec       q    Type
REMARK                         _______ _______ _______ _____ _____    ______ ____
ROOT
ATOM      7  C   UNL     1      -4.241   0.934  24.589  0.00  0.00    +0.108 A 
ATOM      8  C   UNL     1      -3.650   0.982  24.014  0.00  0.00    +0.120 A 
ATOM      9  N   UNL     1      -3.404   0.215  23.837  0.00  0.00    -0.226 NA
ATOM     10  C   UNL     1      -3.842  -0.307  24.303  0.00  0.00    +0.156 A 
ATOM     11  N   UNL     1      -4.359   0.138  24.767  0.00  0.00    -0.227 NA
ENDROOT
BRANCH   7   5
ATOM      1 CL   UNL     1      -4.934   3.623  25.440  0.00  0.00    -0.075 Cl
ATOM      2  C   UNL     1      -4.961   2.807  25.317  0.00  0.00    +0.087 A 
ATOM      3  C   UNL     1      -5.557   2.298  25.572  0.00  0.00    +0.019 A 
ATOM      4  C   UNL     1      -5.360   1.534  25.330  0.00  0.00    +0.009 A 
ATOM      5  C   UNL     1      -4.642   1.572  24.926  0.00  0.00    +0.049 A 
ATOM      6  S   UNL     1      -4.395   2.358  24.918  0.00  0.00    -0.074 S 
ENDBRANCH   7   5
BRANCH  10  12
ATOM     12  C   UNL     1      -3.775  -1.129  24.303  0.00  0.00    +0.147 C 
ATOM     13  C   UNL     1      -4.331  -1.589  23.903  0.00  0.00    +0.166 C 
ATOM     14  O   UNL     1      -4.262  -2.412  23.904  0.00  0.00    -0.350 OA
ATOM     15  C   UNL     1      -3.639  -2.774  24.305  0.00  0.00    +0.160 C 
ATOM     16  C   UNL     1      -3.083  -2.313  24.704  0.00  0.00    +0.105 C 
ATOM     17  N   UNL     1      -3.150  -1.491  24.704  0.00  0.00    -0.265 NA
BRANCH  17  18
ATOM     18  C   UNL     1      -2.595  -1.031  25.104  0.00  0.00    +0.058 C 
ATOM     19  C   UNL     1      -1.894  -0.651  24.895  0.00  0.00    +0.016 C 
ATOM     20  C   UNL     1      -1.809  -0.380  25.670  0.00  0.00    +0.003 C 
ATOM     21  C   UNL     1      -2.511  -0.761  25.879  0.00  0.00    +0.016 C 
ENDBRANCH  17  18
ENDBRANCH  10  12
TORSDOF 3
ENDMDL
MODEL 4
REMARK VINA RESULT:      -9.8      2.178      3.725
REMARK  Name = 
REMARK  3 active torsions:
REMARK  status: ('A' for Active; 'I' for Inactive)
REMARK    1  A    between atoms: C_5  and  C_7
REMARK    2  A    between atoms: C_10  and  C_12
REMARK    3  A    between atoms: N_17  and  C_18
REMARK                            x       y       z     vdW  Elec       q    Type
REMARK                         _______ _______ _______ _____ _____    ______ ____
ROOT
ATOM      7  C   UNL     1      -3.838   1.182  24.633  0.00  0.00    +0.108 A 
ATOM      8  C   UNL     1      -3.777   0.867  23.872  0.00  0.00    +0.120 A 
ATOM      9  N   UNL     1      -3.112   0.379  23.851  0.00  0.00    -0.226 NA
ATOM     10  C   UNL     1      -2.762   0.392  24.598  0.00  0.00    +0.156 A 
ATOM     11  N   UNL     1      -3.211   0.888  25.080  0.00  0.00    -0.227 NA
ENDROOT
BRANCH   7   5
ATOM      1 CL   UNL     1      -5.197   3.582  25.541  0.00  0.00    -0.075 Cl
ATOM      2  C   UNL     1      -5.048   2.802  25.315  0.00  0.00    +0.087 A 
ATOM      3  C   UNL     1      -5.599   2.189  25.297  0.00  0.00    +0.019 A 
ATOM      4  C   UNL     1      -5.213   1.507  25.039  0.00  0.00    +0.009 A 
ATOM      5  C   UNL     1      -4.423   1.699  24.898  0.00  0.00    +0.049 A 
ATOM      6  S   UNL     1      -4.322   2.499  25.069  0.00  0.00    -0.074 S 
ENDBRANCH   7   5
BRANCH  10  12
ATOM     12  C   UNL     1      -2.083  -0.019  24.822  0.00  0.00    +0.147 C 
ATOM     13  C   UNL     1      -1.362   0.376  24.884  0.00  0.00    +0.166 C 
ATOM     14  O   UNL     1      -0.683  -0.036  25.108  0.00  0.00    -0.350 OA
ATOM     15  C   UNL     1      -0.726  -0.843  25.270  0.00  0.00    +0.160 C 
ATOM     16  C   UNL     1      -1.447  -1.239  25.208  0.00  0.00    +0.105 C 
ATOM     17  N   UNL     1      -2.126  -0.828  24.984  0.00  0.00    -0.265 NA
BRANCH  17  18
ATOM     18  C   UNL     1      -2.847  -1.224  24.922  0.00  0.00    +0.058 C 
ATOM     19  C   UNL     1      -3.265  -1.581  24.308  0.00  0.00    +0.016 C 
ATOM     20  C   UNL     1      -3.867  -1.784  24.835  0.00  0.00    +0.003 C 
ATOM     21  C   UNL     1      -3.448  -1.426  25.450  0.00  0.00    +0.016 C 
ENDBRANCH  17  18
ENDBRANCH  10  12
TORSDOF 3
ENDMDL
MODEL 5
REMARK VINA RESULT:      -9.5      2.509      3.876
REMARK  Name = 
REMARK  3 active torsions:
REMARK  status: ('A' for Active; 'I' for Inactive)
REMARK    1  A    between atoms: C_5  and  C_7
REMARK    2  A    between atoms: C_10  and  C_12
REMARK    3  A    between atoms: N_17  and  C_18
REMARK                            x       y       z     vdW  Elec       q    Type
REMARK                         _______ _______ _______ _____ _____    ______ ____
ROOT
ATOM      7  C   UNL     1      -3.038   3.018  24.624  0.00  0.00    +0.108 A 
ATOM      8  C   UNL     1      -3.571   3.110  24.000  0.00  0.00    +0.120 A 
ATOM      9  N   UNL     1      -3.900   2.372  23.835  0.00  0.00    -0.226 NA
ATOM     10  C   UNL     1      -3.570   1.823  24.356  0.00  0.00    +0.156 A 
ATOM     11  N   UNL     1      -3.038   2.223  24.843  0.00  0.00    -0.227 NA
ENDROOT
BRANCH   7   5
ATOM      1 CL   UNL     1      -0.950   4.984  25.081  0.00  0.00    -0.075 Cl
ATOM      2  C   UNL     1      -1.626   4.520  25.178  0.00  0.00    +0.087 A 
ATOM      3  C   UNL     1      -2.151   4.554  25.812  0.00  0.00    +0.019 A 
ATOM      4  C   UNL     1      -2.744   3.996  25.682  0.00  0.00    +0.009 A 
ATOM      5  C   UNL     1      -2.585   3.616  24.967  0.00  0.00    +0.049 A 
ATOM      6  S   UNL     1      -1.894   3.940  24.656  0.00  0.00    -0.074 S 
ENDBRANCH   7   5
BRANCH  10  12
ATOM     12  C   UNL     1      -3.743   1.017  24.385  0.00  0.00    +0.147 C 
ATOM     13  C   UNL     1      -3.198   0.468  24.098  0.00  0.00    +0.166 C 
ATOM     14  O   UNL     1      -3.372  -0.339  24.127  0.00  0.00    -0.350 OA
ATOM     15  C   UNL     1      -4.090  -0.595  24.441  0.00  0.00    +0.160 C 
ATOM     16  C   UNL     1      -4.635  -0.045  24.727  0.00  0.00    +0.105 C 
ATOM     17  N   UNL     1      -4.462   0.761  24.699  0.00  0.00    -0.265 NA
BRANCH  17  18
ATOM     18  C   UNL     1      -5.006   1.310  24.985  0.00  0.00    +0.058 C 
ATOM     19  C   UNL     1      -5.601   1.771  24.648  0.00  0.00    +0.016 C 
ATOM     20  C   UNL     1      -5.777   2.088  25.390  0.00  0.00    +0.003 C 
ATOM     21  C   UNL     1      -5.181   1.626  25.727  0.00  0.00    +0.016 C 
ENDBRANCH  17  18
ENDBRANCH  10  12
TORSDOF 3
ENDMDL
MODEL 6
REMARK VINA RESULT:      -9.4      2.275      3.236
REMARK  Name = 
REMARK  3 active torsions:
REMARK  status: ('A' for Active; 'I' for Inactive)
REMARK    1  A    between atoms: C_5  and  C_7
REMARK    2  A    between atoms: C_10  and  C_12
REMARK    3  A    between atoms: N_17  and  C_18
REMARK                            x       y       z     vdW  Elec       q    Type
REMARK                         _______ _______ _______ _____ _____    ______ ____
ROOT
ATOM      7  C   UNL     1      -2.122   1.823  24.572  0.00  0.00    +0.108 A 
ATOM      8  C   UNL     1      -2.333   1.646  23.793  0.00  0.00    +0.120 A 
ATOM      9  N   UNL     1      -3.156   1.649  23.746  0.00  0.00    -0.226 NA
ATOM     10  C   UNL     1      -3.454   1.829  24.495  0.00  0.00    +0.156 A 
ATOM     11  N   UNL     1      -2.814   1.935  25.004  0.00  0.00    -0.227 NA
ENDROOT
BRANCH   7   5
ATOM      1 CL   UNL     1       0.179   2.602  26.163  0.00  0.00    -0.075 Cl
ATOM      2  C   UNL     1      -0.295   2.234  25.596  0.00  0.00    +0.087 A 
ATOM      3  C   UNL     1      -0.042   1.685  25.036  0.00  0.00    +0.019 A 
ATOM      4  C   UNL     1      -0.696   1.464  24.583  0.00  0.00    +0.009 A 
ATOM      5  C   UNL     1      -1.352   1.877  24.865  0.00  0.00    +0.049 A 
ATOM      6  S   UNL     1      -1.104   2.353  25.491  0.00  0.00    -0.074 S 
ENDBRANCH   7   5
BRANCH  10  12
ATOM     12  C   UNL     1      -4.252   1.890  24.697  0.00  0.00    +0.147 C 
ATOM     13  C   UNL     1      -4.607   2.632  24.754  0.00  0.00    +0.166 C 
ATOM     14  O   UNL     1      -5.405   2.692  24.956  0.00  0.00    -0.350 OA
ATOM     15  C   UNL     1      -5.847   2.012  25.101  0.00  0.00    +0.160 C 
ATOM     16  C   UNL     1      -5.491   1.269  25.043  0.00  0.00    +0.105 C 
ATOM     17  N   UNL     1      -4.694   1.208  24.841  0.00  0.00    -0.265 NA
BRANCH  17  18
ATOM     18  C   UNL     1      -4.338   0.466  24.783  0.00  0.00    +0.058 C 
ATOM     19  C   UNL     1      -4.177  -0.057  24.167  0.00  0.00    +0.016 C 
ATOM     20  C   UNL     1      -3.835  -0.584  24.702  0.00  0.00    +0.003 C 
ATOM     21  C   UNL     1      -3.997  -0.060  25.320  0.00  0.00    +0.016 C 
ENDBRANCH  17  18
ENDBRANCH  10  12
TORSDOF 3
ENDMDL
MODEL 7
REMARK VINA RESULT:      -9.3      2.392      3.614
REMARK  Name = 
REMARK  3 active torsions:
REMARK  status: ('A' for Active; 'I' for Inactive)
REMARK    1  A    between atoms: C_5  and  C_7
REMARK    2  A    between atoms: C_10  and  C_12
REMARK    3  A    between atoms: N_17  and  C_18
REMARK                            x       y       z     vdW  Elec       q    Type
REMARK                         _______ _______ _______ _____ _____    ______ ____
ROOT
ATOM      7  C   UNL     1      -3.632   2.529  24.529  0.00  0.00    +0.108 A 
ATOM      8  C   UNL     1      -3.377   2.980  23.886  0.00  0.00    +0.120 A 
ATOM      9  N   UNL     1      -2.583   2.801  23.749  0.00  0.00    -0.226 NA
ATOM     10  C   UNL     1      -2.348   2.240  24.307  0.00  0.00    +0.156 A 
ATOM     11  N   UNL     1      -2.997   2.072  24.788  0.00  0.00    -0.227 NA
ENDROOT
BRANCH   7   5
ATOM      1 CL   UNL     1      -6.319   1.729  25.285  0.00  0.00    -0.075 Cl
ATOM      2  C   UNL     1      -5.626   2.168  25.202  0.00  0.00    +0.087 A 
ATOM      3  C   UNL     1      -5.489   2.921  25.507  0.00  0.00    +0.019 A 
ATOM      4  C   UNL     1      -4.725   3.149  25.292  0.00  0.00    +0.009 A 
ATOM      5  C   UNL     1      -4.391   2.535  24.854  0.00  0.00    +0.049 A 
ATOM      6  S   UNL     1      -4.947   1.929  24.798  0.00  0.00    -0.074 S 
ENDBRANCH   7   5
BRANCH  10  12
ATOM     12  C   UNL     1      -1.597   1.906  24.371  0.00  0.00    +0.147 C 
ATOM     13  C   UNL     1      -1.459   1.142  24.090  0.00  0.00    +0.166 C 
ATOM     14  O   UNL     1      -0.707   0.809  24.155  0.00  0.00    -0.350 OA
ATOM     15  C   UNL     1      -0.093   1.238  24.499  0.00  0.00    +0.160 C 
ATOM     16  C   UNL     1      -0.231   2.002  24.780  0.00  0.00    +0.105 C 
ATOM     17  N   UNL     1      -0.982   2.336  24.716  0.00  0.00    -0.265 NA
BRANCH  17  18
ATOM     18  C   UNL     1      -1.120   3.099  24.996  0.00  0.00    +0.058 C 
ATOM     19  C   UNL     1      -1.099   3.855  24.666  0.00  0.00    +0.016 C 
ATOM     20  C   UNL     1      -1.315   4.179  25.393  0.00  0.00    +0.003 C 
ATOM     21  C   UNL     1      -1.337   3.423  25.724  0.00  0.00    +0.016 C 
ENDBRANCH  17  18
ENDBRANCH  10  12
TORSDOF 3
ENDMDL
