MODEL 1
REMARK VINA RESULT:     -10.5      0.000      0.000
REMARK  Name = 
REMARK  4 active torsions:
REMARK  status: ('A' for Active; 'I' for Inactive)
REMARK    1  A    between atoms: O_2  and  C_3
REMARK    2  A    between atoms: C_5  and  N_6
REMARK    3  A    between atoms: N_9  and  C_10
REMARK    4  A    between atoms: C_12  and  C_16
REMARK                            x       y       z     vdW  Elec       q    Type
REMARK                         _______ _______ _______ _____ _____    ______ ____
ROOT
ATOM      6  N   UNL     1      -4.372  -0.217  25.082  0.00  0.00    -0.161 NA
ATOM      7  C   UNL     1      -4.064   0.512  24.847  0.00  0.00    +0.343 C 
ATOM      8  O   UNL     1      -3.462   0.543  24.283  0.00  0.00    -0.249 OA
ATOM      9  N   UNL     1      -4.358   1.208  25.175  0.00  0.00    -0.187 NA
ENDROOT
BRANCH   6   5
ATOM      3  C   UNL     1      -3.120  -1.975  24.754  0.00  0.00    +0.140 A 
ATOM      4  C   UNL     1      -3.414  -1.278  25.082  0.00  0.00    +0.054 A 
ATOM      5  C   UNL     1      -4.077  -0.915  24.753  0.00  0.00    +0.078 A 
ATOM     22  C   UNL     1      -4.447  -1.248  24.096  0.00  0.00    +0.017 A 
ATOM     23  C   UNL     1      -4.153  -1.946  23.767  0.00  0.00    +0.004 A 
ATOM     24  C   UNL     1      -3.489  -2.309  24.096  0.00  0.00    +0.037 A 
BRANCH   3   2
ATOM      1  C   UNL     1      -1.800  -2.504  24.611  0.00  0.00    +0.252 C 
ATOM      2  O   UNL     1      -2.456  -2.338  25.083  0.00  0.00    -0.471 OA
ENDBRANCH   3   2
ENDBRANCH   6   5
BRANCH   9  10
ATOM     10  C   UNL     1      -4.051   1.937  24.940  0.00  0.00    +0.115 C 
ATOM     11  C   UNL     1      -3.429   2.341  25.303  0.00  0.00    +0.049 C 
ATOM     12  C   UNL     1      -3.305   3.044  24.888  0.00  0.00    +0.139 C 
ATOM     13  N   UNL     1      -3.850   3.074  24.269  0.00  0.00    -0.264 NA
ATOM     14  C   UNL     1      -3.921   3.680  23.715  0.00  0.00    +0.090 C 
ATOM     15  C   UNL     1      -4.310   2.390  24.301  0.00  0.00    +0.094 C 
BRANCH  12  16
ATOM     16  C   UNL     1      -2.736   3.615  25.062  0.00  0.00    +0.251 A 
ATOM     17  N   UNL     1      -1.962   3.629  24.781  0.00  0.00    -0.194 NA
ATOM     18  C   UNL     1      -1.589   4.296  25.093  0.00  0.00    +0.181 A 
ATOM     19  C   UNL     1      -0.808   4.525  24.955  0.00  0.00    +0.077 C 
ATOM     20  N   UNL     1      -2.134   4.694  25.567  0.00  0.00    -0.061 NA
ATOM     21  O   UNL     1      -2.843   4.273  25.548  0.00  0.00    -0.336 OA
ENDBRANCH  12  16
ENDBRANCH   9  10
TORSDOF 4
ENDMDL
MODEL 2
REMARK VINA RESULT:      -9.8      2.089      5.584
REMARK  Name = 
REMARK  4 active torsions:
REMARK  status: ('A' for Active; 'I' for Inactive)
REMARK    1  A    between atoms: O_2  and  C_3
REMARK    2  A    between atoms: C_5  and  N_6
REMARK    3  A    between atoms: N_9  and  C_10
REMARK    4  A    between atoms: C_12  and  C_16
REMARK                            x       y       z     vdW  Elec       q    Type
REMARK                         _______ _______ _______ _____ _____    ______ ____
ROOT
ATOM      6  N   UNL     1      -0.890   2.607  25.959  0.00  0.00    -0.161 NA
ATOM      7  C   UNL     1      -0.988   1.924  25.506  0.00  0.00    +0.343 C 
ATOM      8  O   UNL     1      -1.474   1.939  24.839  0.00  0.00    -0.249 OA
ATOM      9  N   UNL     1      -0.602   1.228  25.720  0.00  0.00    -0.187 NA
ENDROOT
BRANCH   6   5
ATOM      3  C   UNL     1      -2.430   4.144  25.796  0.00  0.00    +0.140 A 
ATOM      4  C   UNL     1      -2.044   3.448  26.010  0.00  0.00    +0.054 A 
ATOM      5  C   UNL     1      -1.276   3.304  25.745  0.00  0.00    +0.078 A 
ATOM     22  C   UNL     1      -0.895   3.857  25.266  0.00  0.00    +0.017 A 
ATOM     23  C   UNL     1      -1.281   4.554  25.052  0.00  0.00    +0.004 A 
ATOM     24  C   UNL     1      -2.049   4.698  25.317  0.00  0.00    +0.037 A 
BRANCH   3   2
ATOM      1  C   UNL     1      -3.843   4.085  25.588  0.00  0.00    +0.252 C 
ATOM      2  O   UNL     1      -3.198   4.288  26.061  0.00  0.00    -0.471 OA
ENDBRANCH   3   2
ENDBRANCH   6   5
BRANCH   9  10
ATOM     10  C   UNL     1      -0.701   0.546  25.267  0.00  0.00    +0.115 C 
ATOM     11  C   UNL     1      -1.260  -0.047  25.399  0.00  0.00    +0.049 C 
ATOM     12  C   UNL     1      -1.163  -0.623  24.815  0.00  0.00    +0.139 C 
ATOM     13  N   UNL     1      -0.544  -0.386  24.323  0.00  0.00    -0.264 NA
ATOM     14  C   UNL     1      -0.261  -0.798  23.668  0.00  0.00    +0.090 C 
ATOM     15  C   UNL     1      -0.259   0.336  24.602  0.00  0.00    +0.094 C 
BRANCH  12  16
ATOM     16  C   UNL     1      -1.606  -1.314  24.738  0.00  0.00    +0.251 A 
ATOM     17  N   UNL     1      -2.417  -1.357  24.601  0.00  0.00    -0.194 NA
ATOM     18  C   UNL     1      -2.628  -2.154  24.563  0.00  0.00    +0.181 A 
ATOM     19  C   UNL     1      -3.388  -2.449  24.434  0.00  0.00    +0.077 C 
ATOM     20  N   UNL     1      -1.947  -2.604  24.677  0.00  0.00    -0.061 NA
ATOM     21  O   UNL     1      -1.315  -2.085  24.786  0.00  0.00    -0.336 OA
ENDBRANCH  12  16
ENDBRANCH   9  10
TORSDOF 4
ENDMDL
MODEL 3
REMARK VINA RESULT:      -9.5      2.450      4.565
REMARK  Name = 
REMARK  4 active torsions:
REMARK  status: ('A' for Active; 'I' for Inactive)
REMARK    1  A    between atoms: O_2  and  C_3
REMARK    2  A    between atoms: C_5  and  N_6
REMARK    3  A    between atoms: N_9  and  C_10
REMARK    4  A    between atoms: C_12  and  C_16
REMARK                            x       y       z     vdW  Elec       q    Type
REMARK                         _______ _______ _______ _____ _____    ______ ____
ROOT
ATOM      6  N   UNL     1      -3.649   2.990  23.986  0.00  0.00    -0.161 NA
ATOM      7  C   UNL     1      -2.980   2.553  24.190  0.00  0.00    +0.343 C 
ATOM      8  O   UNL     1      -2.929   2.200  24.934  0.00  0.00    -0.249 OA
ATOM      9  N   UNL     1      -2.363   2.469  23.650  0.00  0.00    -0.187 NA
ENDROOT
BRANCH   6   5
ATOM      3  C   UNL     1      -5.494   2.602  25.087  0.00  0.00    +0.140 A 
ATOM      4  C   UNL     1      -4.876   2.517  24.547  0.00  0.00    +0.054 A 
ATOM      5  C   UNL     1      -4.268   3.074  24.526  0.00  0.00    +0.078 A 
ATOM     22  C   UNL     1      -4.276   3.715  25.045  0.00  0.00    +0.017 A 
ATOM     23  C   UNL     1      -4.895   3.799  25.586  0.00  0.00    +0.004 A 
ATOM     24  C   UNL     1      -5.503   3.243  25.607  0.00  0.00    +0.037 A 
BRANCH   3   2
ATOM      1  C   UNL     1      -6.234   1.603  25.793  0.00  0.00    +0.252 C 
ATOM      2  O   UNL     1      -6.102   2.045  25.108  0.00  0.00    -0.471 OA
ENDBRANCH   3   2
ENDBRANCH   6   5
BRANCH   9  10
ATOM     10  C   UNL     1      -1.693   2.032  23.853  0.00  0.00    +0.115 C 
ATOM     11  C   UNL     1      -1.640   1.209  23.877  0.00  0.00    +0.049 C 
ATOM     12  C   UNL     1      -0.873   1.009  24.107  0.00  0.00    +0.139 C 
ATOM     13  N   UNL     1      -0.452   1.709  24.226  0.00  0.00    -0.264 NA
ATOM     14  C   UNL     1       0.336   1.767  24.461  0.00  0.00    +0.090 C 
ATOM     15  C   UNL     1      -0.960   2.341  24.069  0.00  0.00    +0.094 C 
BRANCH  12  16
ATOM     16  C   UNL     1      -0.578   0.245  24.202  0.00  0.00    +0.251 A 
ATOM     17  N   UNL     1      -0.768  -0.276  24.812  0.00  0.00    -0.194 NA
ATOM     18  C   UNL     1      -0.349  -0.976  24.690  0.00  0.00    +0.181 A 
ATOM     19  C   UNL     1      -0.375  -1.647  25.170  0.00  0.00    +0.077 C 
ATOM     20  N   UNL     1       0.100  -0.888  24.003  0.00  0.00    -0.061 NA
ATOM     21  O   UNL     1      -0.042  -0.134  23.702  0.00  0.00    -0.336 OA
ENDBRANCH  12  16
ENDBRANCH   9  10
TORSDOF 4
ENDMDL
MODEL 4
REMARK VINA RESULT:      -9.4      1.849      2.408
REMARK  Name = 
REMARK  4 active torsions:
REMARK  status: ('A' for Active; 'I' for Inactive)
REMARK    1  A    between atoms: O_2  and  C_3
REMARK    2  A    between atoms: C_5  and  N_6
REMARK    3  A    between atoms: N_9  and  C_10
REMARK    4  A    between atoms: C_12  and  C_16
REMARK                            x       y       z     vdW  Elec       q    Type
REMARK                         _______ _______ _______ _____ _____    ______ ____
ROOT
ATOM      6  N   UNL     1      -1.742  -0.691  24.357  0.00  0.00    -0.161 NA
ATOM      7  C   UNL     1      -1.651   0.019  24.767  0.00  0.00    +0.343 C 
ATOM      8  O   UNL     1      -2.149   0.195  25.401  0.00  0.00    -0.249 OA
ATOM      9  N   UNL     1      -1.064   0.552  24.544  0.00  0.00    -0.187 NA
ENDROOT
BRANCH   6   5
ATOM      3  C   UNL     1      -3.639  -1.770  24.403  0.00  0.00    +0.140 A 
ATOM      4  C   UNL     1      -3.051  -1.236  24.180  0.00  0.00    +0.054 A 
ATOM      5  C   UNL     1      -2.330  -1.225  24.581  0.00  0.00    +0.078 A 
ATOM     22  C   UNL     1      -2.197  -1.747  25.205  0.00  0.00    +0.017 A 
ATOM     23  C   UNL     1      -2.785  -2.281  25.429  0.00  0.00    +0.004 A 
ATOM     24  C   UNL     1      -3.506  -2.292  25.028  0.00  0.00    +0.037 A 
BRANCH   3   2
ATOM      1  C   UNL     1      -4.620  -2.477  23.641  0.00  0.00    +0.252 C 
ATOM      2  O   UNL     1      -4.359  -1.781  24.002  0.00  0.00    -0.471 OA
ENDBRANCH   3   2
ENDBRANCH   6   5
BRANCH   9  10
ATOM     10  C   UNL     1      -0.973   1.262  24.954  0.00  0.00    +0.115 C 
ATOM     11  C   UNL     1      -1.399   1.957  24.821  0.00  0.00    +0.049 C 
ATOM     12  C   UNL     1      -1.130   2.527  25.355  0.00  0.00    +0.139 C 
ATOM     13  N   UNL     1      -0.538   2.184  25.816  0.00  0.00    -0.264 NA
ATOM     14  C   UNL     1      -0.117   2.557  26.419  0.00  0.00    +0.090 C 
ATOM     15  C   UNL     1      -0.441   1.403  25.569  0.00  0.00    +0.094 C 
BRANCH  12  16
ATOM     16  C   UNL     1      -1.405   3.302  25.415  0.00  0.00    +0.251 A 
ATOM     17  N   UNL     1      -1.087   3.960  25.034  0.00  0.00    -0.194 NA
ATOM     18  C   UNL     1      -1.532   4.620  25.251  0.00  0.00    +0.181 A 
ATOM     19  C   UNL     1      -1.406   5.395  24.997  0.00  0.00    +0.077 C 
ATOM     20  N   UNL     1      -2.125   4.370  25.766  0.00  0.00    -0.061 NA
ATOM     21  O   UNL     1      -2.047   3.555  25.868  0.00  0.00    -0.336 OA
ENDBRANCH  12  16
ENDBRANCH   9  10
TORSDOF 4
ENDMDL
MODEL 5
REMARK VINA RESULT:      -9.0      1.595      4.928
REMARK  Name = 
REMARK  4 active torsions:
REMARK  status: ('A' for Active; 'I' for Inactive)
REMARK    1  A    between atoms: O_2  and  C_3
REMARK    2  A    between atoms: C_5  and  N_6
REMARK    3  A    between atoms: N_9  and  C_10
REMARK    4  A    between atoms: C_12  and  C_16
REMARK                            x       y       z     vdW  Elec       q    Type
REMARK                         _______ _______ _______ _____ _____    ______ ____
ROOT
ATOM      6  N   UNL     1      -4.701   1.539  24.283  0.00  0.00    -0.161 NA
ATOM      7  C   UNL     1      -4.306   0.855  24.520  0.00  0.00    +0.343 C 
ATOM      8  O   UNL     1      -3.975   0.810  25.275  0.00  0.00    -0.249 OA
ATOM      9  N   UNL     1      -4.241   0.217  24.002  0.00  0.00    -0.187 NA
ENDROOT
BRANCH   6   5
ATOM      3  C   UNL     1      -4.240   3.391  25.342  0.00  0.00    +0.140 A 
ATOM      4  C   UNL     1      -4.174   2.753  24.825  0.00  0.00    +0.054 A 
ATOM      5  C   UNL     1      -4.766   2.179  24.801  0.00  0.00    +0.078 A 
ATOM     22  C   UNL     1      -5.424   2.243  25.295  0.00  0.00    +0.017 A 
ATOM     23  C   UNL     1      -5.489   2.883  25.813  0.00  0.00    +0.004 A 
ATOM     24  C   UNL     1      -4.897   3.457  25.837  0.00  0.00    +0.037 A 
BRANCH   3   2
ATOM      1  C   UNL     1      -3.233   4.102  26.067  0.00  0.00    +0.252 C 
ATOM      2  O   UNL     1      -3.648   3.965  25.366  0.00  0.00    -0.471 OA
ENDBRANCH   3   2
ENDBRANCH   6   5
BRANCH   9  10
ATOM     10  C   UNL     1      -3.845  -0.468  24.239  0.00  0.00    +0.115 C 
ATOM     11  C   UNL     1      -3.027  -0.580  24.239  0.00  0.00    +0.049 C 
ATOM     12  C   UNL     1      -2.874  -1.342  24.518  0.00  0.00    +0.139 C 
ATOM     13  N   UNL     1      -3.597  -1.700  24.690  0.00  0.00    -0.264 NA
ATOM     14  C   UNL     1      -3.703  -2.464  24.982  0.00  0.00    +0.090 C 
ATOM     15  C   UNL     1      -4.197  -1.160  24.518  0.00  0.00    +0.094 C 
BRANCH  12  16
ATOM     16  C   UNL     1      -2.130  -1.684  24.608  0.00  0.00    +0.251 A 
ATOM     17  N   UNL     1      -1.531  -1.417  25.106  0.00  0.00    -0.194 NA
ATOM     18  C   UNL     1      -0.884  -1.923  25.022  0.00  0.00    +0.181 A 
ATOM     19  C   UNL     1      -0.163  -1.859  25.419  0.00  0.00    +0.077 C 
ATOM     20  N   UNL     1      -1.083  -2.502  24.470  0.00  0.00    -0.061 NA
ATOM     21  O   UNL     1      -1.854  -2.355  24.214  0.00  0.00    -0.336 OA
ENDBRANCH  12  16
ENDBRANCH   9  10
TORSDOF 4
ENDMDL
MODEL 6
REMARK VINA RESULT:      -8.2     17.554     19.426
REMARK  Name = 
REMARK  4 active torsions:
REMARK  status: ('A' for Active; 'I' for Inactive)
REMARK    1  A    between atoms: O_2  and  C_3
REMARK    2  A    between atoms: C_5  and  N_6
REMARK    3  A    between atoms: N_9  and  C_10
REMARK    4  A    between atoms: C_12  and  C_16
REMARK                            x       y       z     vdW  Elec       q    Type
REMARK                         _______ _______ _______ _____ _____    ______ ____
ROOT
ATOM      6  N   UNL     1      14.772   6.388  20.187  0.00  0.00    -0.161 NA
ATOM      7  C   UNL     1      14.223   6.895  19.839  0.00  0.00    +0.343 C 
ATOM      8  O   UNL     1      14.480   7.571  19.441  0.00  0.00    -0.249 OA
ATOM      9  N   UNL     1      13.417   6.726  19.888  0.00  0.00    -0.187 NA
ENDROOT
BRANCH   6   5
ATOM      3  C   UNL     1      16.755   7.147  20.694  0.00  0.00    +0.140 A 
ATOM      4  C   UNL     1      15.949   6.978  20.743  0.00  0.00    +0.054 A 
ATOM      5  C   UNL     1      15.579   6.556  20.139  0.00  0.00    +0.078 A 
ATOM     22  C   UNL     1      16.014   6.302  19.486  0.00  0.00    +0.017 A 
ATOM     23  C   UNL     1      16.821   6.471  19.437  0.00  0.00    +0.004 A 
ATOM     24  C   UNL     1      17.191   6.893  20.041  0.00  0.00    +0.037 A 
BRANCH   3   2
ATOM      1  C   UNL     1      17.404   8.333  21.157  0.00  0.00    +0.252 C 
ATOM      2  O   UNL     1      17.125   7.569  21.298  0.00  0.00    -0.471 OA
ENDBRANCH   3   2
ENDBRANCH   6   5
BRANCH   9  10
ATOM     10  C   UNL     1      12.868   7.234  19.539  0.00  0.00    +0.115 C 
ATOM     11  C   UNL     1      12.701   7.287  18.732  0.00  0.00    +0.049 C 
ATOM     12  C   UNL     1      12.119   7.863  18.630  0.00  0.00    +0.139 C 
ATOM     13  N   UNL     1      11.926   8.165  19.373  0.00  0.00    -0.264 NA
ATOM     14  C   UNL     1      11.369   8.753  19.528  0.00  0.00    +0.090 C 
ATOM     15  C   UNL     1      12.390   7.776  19.935  0.00  0.00    +0.094 C 
BRANCH  12  16
ATOM     16  C   UNL     1      11.788   8.095  17.911  0.00  0.00    +0.251 A 
ATOM     17  N   UNL     1      12.149   8.569  17.342  0.00  0.00    -0.194 NA
ATOM     18  C   UNL     1      11.621   8.660  16.714  0.00  0.00    +0.181 A 
ATOM     19  C   UNL     1      11.757   9.094  16.025  0.00  0.00    +0.077 C 
ATOM     20  N   UNL     1      10.933   8.244  16.896  0.00  0.00    -0.061 NA
ATOM     21  O   UNL     1      11.036   7.894  17.636  0.00  0.00    -0.336 OA
ENDBRANCH  12  16
ENDBRANCH   9  10
TORSDOF 4
ENDMDL
MODEL 7
REMARK VINA RESULT:      -7.4     16.428     19.144
REMARK  Name = 
REMARK  4 active torsions:
REMARK  status: ('A' for Active; 'I' for Inactive)
REMARK    1  A    between atoms: O_2  and  C_3
REMARK    2  A    between atoms: C_5  and  N_6
REMARK    3  A    between atoms: N_9  and  C_10
REMARK    4  A    between atoms: C_12  and  C_16
REMARK                            x       y       z     vdW  Elec       q    Type
REMARK                         _______ _______ _______ _____ _____    ______ ____
ROOT
ATOM      6  N   UNL     1      15.362   7.874  19.665  0.00  0.00    -0.161 NA
ATOM      7  C   UNL     1      14.719   7.744  20.165  0.00  0.00    +0.343 C 
ATOM      8  O   UNL     1      14.757   7.153  20.739  0.00  0.00    -0.249 OA
ATOM      9  N   UNL     1      14.039   8.204  20.090  0.00  0.00    -0.187 NA
ENDROOT
BRANCH   6   5
ATOM      3  C   UNL     1      16.797   6.254  19.384  0.00  0.00    +0.140 A 
ATOM      4  C   UNL     1      16.117   6.713  19.310  0.00  0.00    +0.054 A 
ATOM      5  C   UNL     1      16.043   7.414  19.739  0.00  0.00    +0.078 A 
ATOM     22  C   UNL     1      16.650   7.655  20.243  0.00  0.00    +0.017 A 
ATOM     23  C   UNL     1      17.331   7.194  20.318  0.00  0.00    +0.004 A 
ATOM     24  C   UNL     1      17.405   6.494  19.888  0.00  0.00    +0.037 A 
BRANCH   3   2
ATOM      1  C   UNL     1      17.404   5.509  18.326  0.00  0.00    +0.252 C 
ATOM      2  O   UNL     1      16.871   5.554  18.954  0.00  0.00    -0.471 OA
ENDBRANCH   3   2
ENDBRANCH   6   5
BRANCH   9  10
ATOM     10  C   UNL     1      13.396   8.073  20.591  0.00  0.00    +0.115 C 
ATOM     11  C   UNL     1      12.864   7.443  20.542  0.00  0.00    +0.049 C 
ATOM     12  C   UNL     1      12.311   7.530  21.149  0.00  0.00    +0.139 C 
ATOM     13  N   UNL     1      12.501   8.213  21.571  0.00  0.00    -0.264 NA
ATOM     14  C   UNL     1      12.093   8.509  22.224  0.00  0.00    +0.090 C 
ATOM     15  C   UNL     1      13.171   8.548  21.226  0.00  0.00    +0.094 C 
BRANCH  12  16
ATOM     16  C   UNL     1      11.680   7.023  21.305  0.00  0.00    +0.251 A 
ATOM     17  N   UNL     1      11.735   6.220  21.481  0.00  0.00    -0.194 NA
ATOM     18  C   UNL     1      10.970   5.931  21.597  0.00  0.00    +0.181 A 
ATOM     19  C   UNL     1      10.769   5.153  21.785  0.00  0.00    +0.077 C 
ATOM     20  N   UNL     1      10.443   6.556  21.492  0.00  0.00    -0.061 NA
ATOM     21  O   UNL     1      10.881   7.231  21.312  0.00  0.00    -0.336 OA
ENDBRANCH  12  16
ENDBRANCH   9  10
TORSDOF 4
ENDMDL
