MODEL 1
REMARK VINA RESULT:     -16.7      0.000      0.000
REMARK  Name = 
REMARK  3 active torsions:
REMARK  status: ('A' for Active; 'I' for Inactive)
REMARK    1  A    between atoms: O_2  and  C_3
REMARK    2  A    between atoms: C_6  and  C_9
REMARK    3  A    between atoms: C_19  and  C_21
REMARK                            x       y       z     vdW  Elec       q    Type
REMARK                         _______ _______ _______ _____ _____    ______ ____
ROOT
ATOM      9  C   UNL     1      -3.919  -0.086  24.529  0.00  0.00    +0.056 A 
ATOM     10  C   UNL     1      -4.614  -0.574  24.235  0.00  0.00    +0.006 A 
ATOM     11  C   UNL     1      -4.455  -1.382  24.176  0.00  0.00    +0.013 A 
ATOM     12  C   UNL     1      -3.710  -1.671  24.379  0.00  0.00    +0.041 A 
ATOM     13  C   UNL     1      -3.238  -2.458  24.425  0.00  0.00    +0.058 C 
ATOM     14  C   UNL     1      -3.304  -3.147  24.308  0.00  0.00    +0.011 C 
ATOM     15  C   UNL     1      -2.728  -2.633  24.567  0.00  0.00    +0.043 C 
ATOM     16  C   UNL     1      -1.914  -2.180  24.896  0.00  0.00    +0.095 C 
ATOM     17  N   UNL     1      -2.190  -1.391  24.914  0.00  0.00    -0.279 N 
ATOM     18  C   UNL     1      -2.443  -2.035  24.743  0.00  0.00    +0.099 C 
ATOM     19  C   UNL     1      -2.052  -0.558  25.074  0.00  0.00    +0.225 C 
ATOM     20  O   UNL     1      -1.249  -0.356  25.364  0.00  0.00    -0.275 OA
ATOM     27  C   UNL     1      -3.213  -1.805  24.523  0.00  0.00    +0.110 C 
ATOM     28  N   UNL     1      -3.124  -1.153  24.642  0.00  0.00    -0.299 N 
ATOM     29  C   UNL     1      -3.283  -0.346  24.701  0.00  0.00    +0.261 A 
ATOM     30  O   UNL     1      -2.498   0.230  25.037  0.00  0.00    -0.267 OA
ENDROOT
BRANCH   9   6
ATOM      3  C   UNL     1      -4.545   2.329  24.916  0.00  0.00    +0.139 A 
ATOM      4  C   UNL     1      -5.159   1.786  24.823  0.00  0.00    +0.037 A 
ATOM      5  C   UNL     1      -4.989   0.989  24.695  0.00  0.00    +0.003 A 
ATOM      6  C   UNL     1      -3.862   0.663  24.651  0.00  0.00    +0.005 A 
ATOM      7  C   UNL     1      -3.819   1.327  24.759  0.00  0.00    +0.003 A 
ATOM      8  C   UNL     1      -3.761   2.076  24.881  0.00  0.00    +0.037 A 
BRANCH   3   2
ATOM      1  C   UNL     1      -4.405   3.746  25.584  0.00  0.00    +0.252 C 
ATOM      2  O   UNL     1      -4.750   3.178  25.052  0.00  0.00    -0.471 OA
ENDBRANCH   3   2
ENDBRANCH   9   6
BRANCH  19  21
ATOM     21  C   UNL     1      -2.853  -0.126  24.872  0.00  0.00    +0.077 C 
ATOM     22  C   UNL     1      -2.882   0.209  24.119  0.00  0.00    +0.009 C 
ATOM     23  C   UNL     1      -3.561   0.608  23.871  0.00  0.00    +0.000 C 
ATOM     24  C   UNL     1      -4.210   0.672  24.376  0.00  0.00    +0.000 C 
ATOM     25  C   UNL     1      -4.180   0.337  25.129  0.00  0.00    +0.000 C 
ATOM     26  C   UNL     1      -3.501  -0.062  25.378  0.00  0.00    +0.009 C 
ENDBRANCH  19  21
TORSDOF 3
ENDMDL
MODEL 2
REMARK VINA RESULT:     -15.9      1.357      3.761
REMARK  Name = 
REMARK  3 active torsions:
REMARK  status: ('A' for Active; 'I' for Inactive)
REMARK    1  A    between atoms: O_2  and  C_3
REMARK    2  A    between atoms: C_6  and  C_9
REMARK    3  A    between atoms: C_19  and  C_21
REMARK                            x       y       z     vdW  Elec       q    Type
REMARK                         _______ _______ _______ _____ _____    ______ ____
ROOT
ATOM      9  C   UNL     1      -3.958   0.445  24.780  0.00  0.00    +0.056 A 
ATOM     10  C   UNL     1      -4.690   0.456  25.301  0.00  0.00    +0.006 A 
ATOM     11  C   UNL     1      -5.028   1.204  25.388  0.00  0.00    +0.013 A 
ATOM     12  C   UNL     1      -4.690   1.855  25.011  0.00  0.00    +0.041 A 
ATOM     13  C   UNL     1      -4.809   2.761  24.908  0.00  0.00    +0.058 C 
ATOM     14  C   UNL     1      -5.233   3.286  25.102  0.00  0.00    +0.011 C 
ATOM     15  C   UNL     1      -4.565   3.187  24.645  0.00  0.00    +0.043 C 
ATOM     16  C   UNL     1      -3.773   3.271  24.060  0.00  0.00    +0.095 C 
ATOM     17  N   UNL     1      -3.524   2.474  24.047  0.00  0.00    -0.279 N 
ATOM     18  C   UNL     1      -4.046   2.858  24.342  0.00  0.00    +0.099 C 
ATOM     19  C   UNL     1      -2.973   1.871  23.778  0.00  0.00    +0.225 C 
ATOM     20  O   UNL     1      -2.326   2.154  23.257  0.00  0.00    -0.275 OA
ATOM     27  C   UNL     1      -4.433   2.242  24.747  0.00  0.00    +0.110 C 
ATOM     28  N   UNL     1      -4.015   1.759  24.547  0.00  0.00    -0.299 N 
ATOM     29  C   UNL     1      -3.676   1.012  24.460  0.00  0.00    +0.261 A 
ATOM     30  O   UNL     1      -2.837   0.980  23.866  0.00  0.00    -0.267 OA
ENDROOT
BRANCH   9   6
ATOM      3  C   UNL     1      -2.845  -1.820  24.747  0.00  0.00    +0.139 A 
ATOM      4  C   UNL     1      -3.411  -1.682  25.332  0.00  0.00    +0.037 A 
ATOM      5  C   UNL     1      -3.794  -0.951  25.370  0.00  0.00    +0.003 A 
ATOM      6  C   UNL     1      -3.508  -0.134  24.578  0.00  0.00    +0.005 A 
ATOM      7  C   UNL     1      -3.112  -0.651  24.404  0.00  0.00    +0.003 A 
ATOM      8  C   UNL     1      -2.661  -1.230  24.202  0.00  0.00    +0.037 A 
BRANCH   3   2
ATOM      1  C   UNL     1      -1.659  -2.819  24.480  0.00  0.00    +0.252 C 
ATOM      2  O   UNL     1      -2.447  -2.609  24.725  0.00  0.00    -0.471 OA
ENDBRANCH   3   2
ENDBRANCH   9   6
BRANCH  19  21
ATOM     21  C   UNL     1      -3.269   1.072  24.156  0.00  0.00    +0.077 C 
ATOM     22  C   UNL     1      -3.741   0.612  23.661  0.00  0.00    +0.009 C 
ATOM     23  C   UNL     1      -4.040  -0.109  23.929  0.00  0.00    +0.000 C 
ATOM     24  C   UNL     1      -3.866  -0.370  24.691  0.00  0.00    +0.000 C 
ATOM     25  C   UNL     1      -3.393   0.090  25.187  0.00  0.00    +0.000 C 
ATOM     26  C   UNL     1      -3.095   0.812  24.919  0.00  0.00    +0.009 C 
ENDBRANCH  19  21
TORSDOF 3
ENDMDL
MODEL 3
REMARK VINA RESULT:     -15.4      2.122      4.090
REMARK  Name = 
REMARK  3 active torsions:
REMARK  status: ('A' for Active; 'I' for Inactive)
REMARK    1  A    between atoms: O_2  and  C_3
REMARK    2  A    between atoms: C_6  and  C_9
REMARK    3  A    between atoms: C_19  and  C_21
REMARK                            x       y       z     vdW  Elec       q    Type
REMARK                         _______ _______ _______ _____ _____    ______ ____
ROOT
ATOM      9  C   UNL     1      -3.143   2.208  24.630  0.00  0.00    +0.056 A 
ATOM     10  C   UNL     1      -3.747   2.788  24.954  0.00  0.00    +0.006 A 
ATOM     11  C   UNL     1      -3.429   3.520  25.166  0.00  0.00    +0.013 A 
ATOM     12  C   UNL     1      -2.622   3.661  25.071  0.00  0.00    +0.041 A 
ATOM     13  C   UNL     1      -1.993   4.319  25.199  0.00  0.00    +0.058 C 
ATOM     14  C   UNL     1      -1.925   4.978  25.430  0.00  0.00    +0.011 C 
ATOM     15  C   UNL     1      -1.445   4.394  25.127  0.00  0.00    +0.043 C 
ATOM     16  C   UNL     1      -0.714   3.826  24.783  0.00  0.00    +0.095 C 
ATOM     17  N   UNL     1      -1.146   3.133  24.606  0.00  0.00    -0.279 N 
ATOM     18  C   UNL     1      -1.275   3.782  24.869  0.00  0.00    +0.099 C 
ATOM     19  C   UNL     1      -1.170   2.325  24.312  0.00  0.00    +0.225 C 
ATOM     20  O   UNL     1      -0.400   1.995  24.050  0.00  0.00    -0.275 OA
ATOM     27  C   UNL     1      -2.095   3.701  24.989  0.00  0.00    +0.110 C 
ATOM     28  N   UNL     1      -2.133   3.072  24.764  0.00  0.00    -0.299 N 
ATOM     29  C   UNL     1      -2.451   2.341  24.552  0.00  0.00    +0.261 A 
ATOM     30  O   UNL     1      -1.772   1.663  24.178  0.00  0.00    -0.267 OA
ENDROOT
BRANCH   9   6
ATOM      3  C   UNL     1      -4.134  -0.079  24.230  0.00  0.00    +0.139 A 
ATOM      4  C   UNL     1      -4.568   0.449  24.691  0.00  0.00    +0.037 A 
ATOM      5  C   UNL     1      -4.272   1.206  24.841  0.00  0.00    +0.003 A 
ATOM      6  C   UNL     1      -3.231   1.494  24.382  0.00  0.00    +0.005 A 
ATOM      7  C   UNL     1      -3.316   0.861  24.167  0.00  0.00    +0.003 A 
ATOM      8  C   UNL     1      -3.404   0.147  23.919  0.00  0.00    +0.037 A 
BRANCH   3   2
ATOM      1  C   UNL     1      -4.090  -1.646  24.096  0.00  0.00    +0.252 C 
ATOM      2  O   UNL     1      -4.469  -0.883  24.082  0.00  0.00    -0.471 OA
ENDBRANCH   3   2
ENDBRANCH   9   6
BRANCH  19  21
ATOM     21  C   UNL     1      -2.061   2.059  24.377  0.00  0.00    +0.077 C 
ATOM     22  C   UNL     1      -2.497   2.149  23.683  0.00  0.00    +0.009 C 
ATOM     23  C   UNL     1      -3.294   1.934  23.666  0.00  0.00    +0.000 C 
ATOM     24  C   UNL     1      -3.654   1.629  24.342  0.00  0.00    +0.000 C 
ATOM     25  C   UNL     1      -3.217   1.539  25.037  0.00  0.00    +0.000 C 
ATOM     26  C   UNL     1      -2.420   1.754  25.054  0.00  0.00    +0.009 C 
ENDBRANCH  19  21
TORSDOF 3
ENDMDL
MODEL 4
REMARK VINA RESULT:     -14.5      2.253      4.048
REMARK  Name = 
REMARK  3 active torsions:
REMARK  status: ('A' for Active; 'I' for Inactive)
REMARK    1  A    between atoms: O_2  and  C_3
REMARK    2  A    between atoms: C_6  and  C_9
REMARK    3  A    between atoms: C_19  and  C_21
REMARK                            x       y       z     vdW  Elec       q    Type
REMARK                         _______ _______ _______ _____ _____    ______ ____
ROOT
ATOM      9  C   UNL     1      -2.850   2.262  24.539  0.00  0.00    +0.056 A 
ATOM     10  C   UNL     1      -2.795   3.139  24.727  0.00  0.00    +0.006 A 
ATOM     11  C   UNL     1      -3.503   3.469  24.993  0.00  0.00    +0.013 A 
ATOM     12  C   UNL     1      -4.176   2.999  25.065  0.00  0.00    +0.041 A 
ATOM     13  C   UNL     1      -5.059   3.050  25.314  0.00  0.00    +0.058 C 
ATOM     14  C   UNL     1      -5.540   3.505  25.548  0.00  0.00    +0.011 C 
ATOM     15  C   UNL     1      -5.502   2.714  25.355  0.00  0.00    +0.043 C 
ATOM     16  C   UNL     1      -5.657   1.755  25.175  0.00  0.00    +0.095 C 
ATOM     17  N   UNL     1      -4.892   1.536  24.920  0.00  0.00    -0.279 N 
ATOM     18  C   UNL     1      -5.224   2.124  25.145  0.00  0.00    +0.099 C 
ATOM     19  C   UNL     1      -4.346   0.936  24.635  0.00  0.00    +0.225 C 
ATOM     20  O   UNL     1      -4.684   0.131  24.540  0.00  0.00    -0.275 OA
ATOM     27  C   UNL     1      -4.581   2.651  25.094  0.00  0.00    +0.110 C 
ATOM     28  N   UNL     1      -4.142   2.197  24.871  0.00  0.00    -0.299 N 
ATOM     29  C   UNL     1      -3.435   1.867  24.605  0.00  0.00    +0.261 A 
ATOM     30  O   UNL     1      -3.479   0.862  24.385  0.00  0.00    -0.267 OA
ENDROOT
BRANCH   9   6
ATOM      3  C   UNL     1      -0.603   1.272  23.952  0.00  0.00    +0.139 A 
ATOM      4  C   UNL     1      -0.611   2.020  24.299  0.00  0.00    +0.037 A 
ATOM      5  C   UNL     1      -1.329   2.372  24.504  0.00  0.00    +0.003 A 
ATOM      6  C   UNL     1      -2.318   1.780  24.285  0.00  0.00    +0.005 A 
ATOM      7  C   UNL     1      -1.842   1.358  24.063  0.00  0.00    +0.003 A 
ATOM      8  C   UNL     1      -1.312   0.875  23.809  0.00  0.00    +0.037 A 
BRANCH   3   2
ATOM      1  C   UNL     1       0.368   0.119  23.503  0.00  0.00    +0.252 C 
ATOM      2  O   UNL     1       0.177   0.914  23.742  0.00  0.00    -0.471 OA
ENDBRANCH   3   2
ENDBRANCH   9   6
BRANCH  19  21
ATOM     21  C   UNL     1      -3.530   1.372  24.517  0.00  0.00    +0.077 C 
ATOM     22  C   UNL     1      -3.389   1.633  23.747  0.00  0.00    +0.009 C 
ATOM     23  C   UNL     1      -2.687   2.028  23.568  0.00  0.00    +0.000 C 
ATOM     24  C   UNL     1      -2.126   2.161  24.158  0.00  0.00    +0.000 C 
ATOM     25  C   UNL     1      -2.268   1.899  24.928  0.00  0.00    +0.000 C 
ATOM     26  C   UNL     1      -2.970   1.504  25.107  0.00  0.00    +0.009 C 
ENDBRANCH  19  21
TORSDOF 3
ENDMDL
