MODEL 1
REMARK VINA RESULT:     -13.1      0.000      0.000
REMARK  Name = 
REMARK  3 active torsions:
REMARK  status: ('A' for Active; 'I' for Inactive)
REMARK    1  A    between atoms: N_9  and  C_10
REMARK    2  A    between atoms: C_10  and  C_11
REMARK    3  A    between atoms: C_20  and  C_21
REMARK                            x       y       z     vdW  Elec       q    Type
REMARK                         _______ _______ _______ _____ _____    ______ ____
ROOT
ATOM      1  O   UNL     1      -2.605   0.425  24.851  0.00  0.00    -0.267 OA
ATOM      2  C   UNL     1      -3.387   0.689  24.874  0.00  0.00    +0.261 A 
ATOM      3  N   UNL     1      -3.548   1.498  24.906  0.00  0.00    -0.299 N 
ATOM      4  C   UNL     1      -4.314   1.164  24.906  0.00  0.00    +0.110 C 
ATOM      5  C   UNL     1      -4.855   1.990  24.945  0.00  0.00    +0.039 C 
ATOM      6  C   UNL     1      -5.433   2.563  24.976  0.00  0.00    +0.011 C 
ATOM      7  C   UNL     1      -4.732   2.533  24.963  0.00  0.00    +0.054 C 
ATOM      8  C   UNL     1      -3.987   3.072  24.970  0.00  0.00    +0.078 C 
ATOM      9  N   UNL     1      -3.414   2.498  24.940  0.00  0.00    -0.268 NA
ATOM     16  C   UNL     1      -4.071   2.544  24.952  0.00  0.00    +0.074 C 
ATOM     17  C   UNL     1      -4.329   1.761  24.928  0.00  0.00    +0.041 A 
ATOM     18  C   UNL     1      -4.948   1.217  24.919  0.00  0.00    +0.013 A 
ATOM     19  C   UNL     1      -4.787   0.410  24.887  0.00  0.00    +0.006 A 
ATOM     20  C   UNL     1      -4.006   0.145  24.864  0.00  0.00    +0.059 A 
ENDROOT
BRANCH  20  21
ATOM     21  C   UNL     1      -3.845  -0.663  24.832  0.00  0.00    +0.043 A 
ATOM     22  C   UNL     1      -3.895  -1.066  24.113  0.00  0.00    +0.102 A 
ATOM     23  N   UNL     1      -3.733  -1.875  24.081  0.00  0.00    -0.222 NA
ATOM     24  C   UNL     1      -3.522  -2.280  24.768  0.00  0.00    +0.199 A 
ATOM     25  N   UNL     1      -3.472  -1.878  25.486  0.00  0.00    -0.222 NA
ATOM     26  C   UNL     1      -3.633  -1.070  25.518  0.00  0.00    +0.102 A 
ENDBRANCH  20  21
BRANCH   9  10
ATOM     10  C   UNL     1      -2.665   2.154  24.915  0.00  0.00    +0.106 C 
BRANCH  10  11
ATOM     11  C   UNL     1      -1.992   2.631  24.946  0.00  0.00    +0.023 A 
ATOM     12  C   UNL     1      -1.664   2.964  25.626  0.00  0.00    +0.004 A 
ATOM     13  C   UNL     1      -0.998   3.397  25.403  0.00  0.00    +0.007 A 
ATOM     14  C   UNL     1      -0.914   3.331  24.584  0.00  0.00    +0.035 A 
ATOM     15  S   UNL     1      -1.528   2.858  24.302  0.00  0.00    -0.089 S 
ENDBRANCH  10  11
ENDBRANCH   9  10
TORSDOF 3
ENDMDL
MODEL 2
REMARK VINA RESULT:     -12.6      1.275      3.640
REMARK  Name = 
REMARK  3 active torsions:
REMARK  status: ('A' for Active; 'I' for Inactive)
REMARK    1  A    between atoms: N_9  and  C_10
REMARK    2  A    between atoms: C_10  and  C_11
REMARK    3  A    between atoms: C_20  and  C_21
REMARK                            x       y       z     vdW  Elec       q    Type
REMARK                         _______ _______ _______ _____ _____    ______ ____
ROOT
ATOM      1  O   UNL     1      -2.281   1.226  24.866  0.00  0.00    -0.267 OA
ATOM      2  C   UNL     1      -2.947   1.711  24.907  0.00  0.00    +0.261 A 
ATOM      3  N   UNL     1      -3.701   1.376  24.911  0.00  0.00    -0.299 N 
ATOM      4  C   UNL     1      -3.870   2.193  24.954  0.00  0.00    +0.110 C 
ATOM      5  C   UNL     1      -4.857   2.158  24.979  0.00  0.00    +0.039 C 
ATOM      6  C   UNL     1      -5.659   2.298  25.008  0.00  0.00    +0.011 C 
ATOM      7  C   UNL     1      -5.230   1.743  24.970  0.00  0.00    +0.054 C 
ATOM      8  C   UNL     1      -5.241   0.825  24.926  0.00  0.00    +0.078 C 
ATOM      9  N   UNL     1      -4.441   0.689  24.898  0.00  0.00    -0.268 NA
ATOM     16  C   UNL     1      -4.858   1.199  24.934  0.00  0.00    +0.074 C 
ATOM     17  C   UNL     1      -4.367   1.860  24.952  0.00  0.00    +0.041 A 
ATOM     18  C   UNL     1      -4.280   2.679  24.989  0.00  0.00    +0.013 A 
ATOM     19  C   UNL     1      -3.527   3.014  24.984  0.00  0.00    +0.006 A 
ATOM     20  C   UNL     1      -2.860   2.530  24.943  0.00  0.00    +0.059 A 
ENDROOT
BRANCH  20  21
ATOM     21  C   UNL     1      -2.106   2.865  24.939  0.00  0.00    +0.043 A 
ATOM     22  C   UNL     1      -1.750   3.090  25.649  0.00  0.00    +0.102 A 
ATOM     23  N   UNL     1      -0.996   3.425  25.645  0.00  0.00    -0.222 NA
ATOM     24  C   UNL     1      -0.598   3.536  24.930  0.00  0.00    +0.199 A 
ATOM     25  N   UNL     1      -0.953   3.311  24.221  0.00  0.00    -0.222 NA
ATOM     26  C   UNL     1      -1.707   2.976  24.225  0.00  0.00    +0.102 A 
ENDBRANCH  20  21
BRANCH   9  10
ATOM     10  C   UNL     1      -3.728   0.277  24.859  0.00  0.00    +0.106 C 
BRANCH  10  11
ATOM     11  C   UNL     1      -3.731  -0.547  24.807  0.00  0.00    +0.023 A 
ATOM     12  C   UNL     1      -3.905  -0.990  24.133  0.00  0.00    +0.004 A 
ATOM     13  C   UNL     1      -3.842  -1.789  24.330  0.00  0.00    +0.007 A 
ATOM     14  C   UNL     1      -3.628  -1.840  25.125  0.00  0.00    +0.035 A 
ATOM     15  S   UNL     1      -3.560  -1.072  25.420  0.00  0.00    -0.089 S 
ENDBRANCH  10  11
ENDBRANCH   9  10
TORSDOF 3
ENDMDL
MODEL 3
REMARK VINA RESULT:     -12.3      1.696      3.657
REMARK  Name = 
REMARK  3 active torsions:
REMARK  status: ('A' for Active; 'I' for Inactive)
REMARK    1  A    between atoms: N_9  and  C_10
REMARK    2  A    between atoms: C_10  and  C_11
REMARK    3  A    between atoms: C_20  and  C_21
REMARK                            x       y       z     vdW  Elec       q    Type
REMARK                         _______ _______ _______ _____ _____    ______ ____
ROOT
ATOM      1  O   UNL     1      -2.844   0.703  24.927  0.00  0.00    -0.267 OA
ATOM      2  C   UNL     1      -3.422   0.170  24.675  0.00  0.00    +0.261 A 
ATOM      3  N   UNL     1      -3.228  -0.623  24.557  0.00  0.00    -0.299 N 
ATOM      4  C   UNL     1      -4.040  -0.609  24.363  0.00  0.00    +0.110 C 
ATOM      5  C   UNL     1      -4.173  -1.560  24.133  0.00  0.00    +0.039 C 
ATOM      6  C   UNL     1      -4.443  -2.297  23.914  0.00  0.00    +0.011 C 
ATOM      7  C   UNL     1      -3.838  -2.006  24.120  0.00  0.00    +0.054 C 
ATOM      8  C   UNL     1      -2.959  -2.214  24.290  0.00  0.00    +0.078 C 
ATOM      9  N   UNL     1      -2.694  -1.478  24.508  0.00  0.00    -0.268 NA
ATOM     16  C   UNL     1      -3.253  -1.768  24.312  0.00  0.00    +0.074 C 
ATOM     17  C   UNL     1      -3.805  -1.156  24.306  0.00  0.00    +0.041 A 
ATOM     18  C   UNL     1      -4.576  -0.896  24.174  0.00  0.00    +0.013 A 
ATOM     19  C   UNL     1      -4.770  -0.104  24.292  0.00  0.00    +0.006 A 
ATOM     20  C   UNL     1      -4.193   0.430  24.543  0.00  0.00    +0.059 A 
ENDROOT
BRANCH  20  21
ATOM     21  C   UNL     1      -4.387   1.223  24.662  0.00  0.00    +0.043 A 
ATOM     22  C   UNL     1      -4.804   1.449  25.338  0.00  0.00    +0.102 A 
ATOM     23  N   UNL     1      -4.999   2.242  25.456  0.00  0.00    -0.222 NA
ATOM     24  C   UNL     1      -4.776   2.809  24.899  0.00  0.00    +0.199 A 
ATOM     25  N   UNL     1      -4.359   2.583  24.224  0.00  0.00    -0.222 NA
ATOM     26  C   UNL     1      -4.165   1.790  24.106  0.00  0.00    +0.102 A 
ENDBRANCH  20  21
BRANCH   9  10
ATOM     10  C   UNL     1      -2.177  -0.886  24.756  0.00  0.00    +0.106 C 
BRANCH  10  11
ATOM     11  C   UNL     1      -1.383  -1.062  24.894  0.00  0.00    +0.023 A 
ATOM     12  C   UNL     1      -1.075  -1.413  25.574  0.00  0.00    +0.004 A 
ATOM     13  C   UNL     1      -0.259  -1.486  25.476  0.00  0.00    +0.007 A 
ATOM     14  C   UNL     1      -0.062  -1.180  24.735  0.00  0.00    +0.035 A 
ATOM     15  S   UNL     1      -0.758  -0.918  24.376  0.00  0.00    -0.089 S 
ENDBRANCH  10  11
ENDBRANCH   9  10
TORSDOF 3
ENDMDL
MODEL 4
REMARK VINA RESULT:     -11.7      1.463      2.357
REMARK  Name = 
REMARK  3 active torsions:
REMARK  status: ('A' for Active; 'I' for Inactive)
REMARK    1  A    between atoms: N_9  and  C_10
REMARK    2  A    between atoms: C_10  and  C_11
REMARK    3  A    between atoms: C_20  and  C_21
REMARK                            x       y       z     vdW  Elec       q    Type
REMARK                         _______ _______ _______ _____ _____    ______ ____
ROOT
ATOM      1  O   UNL     1      -4.386   0.205  25.114  0.00  0.00    -0.267 OA
ATOM      2  C   UNL     1      -3.873   0.397  24.496  0.00  0.00    +0.261 A 
ATOM      3  N   UNL     1      -3.799   1.181  24.250  0.00  0.00    -0.299 N 
ATOM      4  C   UNL     1      -3.271   0.783  23.738  0.00  0.00    +0.110 C 
ATOM      5  C   UNL     1      -2.943   1.551  23.210  0.00  0.00    +0.039 C 
ATOM      6  C   UNL     1      -2.580   2.066  22.694  0.00  0.00    +0.011 C 
ATOM      7  C   UNL     1      -3.049   2.098  23.215  0.00  0.00    +0.054 C 
ATOM      8  C   UNL     1      -3.571   2.696  23.679  0.00  0.00    +0.078 C 
ATOM      9  N   UNL     1      -3.931   2.180  24.191  0.00  0.00    -0.268 NA
ATOM     16  C   UNL     1      -3.492   2.167  23.700  0.00  0.00    +0.074 C 
ATOM     17  C   UNL     1      -3.287   1.372  23.633  0.00  0.00    +0.041 A 
ATOM     18  C   UNL     1      -2.848   0.780  23.263  0.00  0.00    +0.013 A 
ATOM     19  C   UNL     1      -2.922  -0.003  23.509  0.00  0.00    +0.006 A 
ATOM     20  C   UNL     1      -3.435  -0.195  24.126  0.00  0.00    +0.059 A 
ENDROOT
BRANCH  20  21
ATOM     21  C   UNL     1      -3.509  -0.979  24.372  0.00  0.00    +0.043 A 
ATOM     22  C   UNL     1      -4.019  -1.491  23.973  0.00  0.00    +0.102 A 
ATOM     23  N   UNL     1      -4.093  -2.275  24.219  0.00  0.00    -0.222 NA
ATOM     24  C   UNL     1      -3.657  -2.547  24.865  0.00  0.00    +0.199 A 
ATOM     25  N   UNL     1      -3.148  -2.036  25.264  0.00  0.00    -0.222 NA
ATOM     26  C   UNL     1      -3.073  -1.252  25.017  0.00  0.00    +0.102 A 
ENDBRANCH  20  21
BRANCH   9  10
ATOM     10  C   UNL     1      -4.419   1.907  24.797  0.00  0.00    +0.106 C 
BRANCH  10  11
ATOM     11  C   UNL     1      -4.911   2.434  25.199  0.00  0.00    +0.023 A 
ATOM     12  C   UNL     1      -5.734   2.466  25.146  0.00  0.00    +0.004 A 
ATOM     13  C   UNL     1      -5.997   3.074  25.639  0.00  0.00    +0.007 A 
ATOM     14  C   UNL     1      -5.338   3.416  25.997  0.00  0.00    +0.035 A 
ATOM     15  S   UNL     1      -4.666   3.020  25.725  0.00  0.00    -0.089 S 
ENDBRANCH  10  11
ENDBRANCH   9  10
TORSDOF 3
ENDMDL
MODEL 5
REMARK VINA RESULT:     -11.6      2.283      3.323
REMARK  Name = 
REMARK  3 active torsions:
REMARK  status: ('A' for Active; 'I' for Inactive)
REMARK    1  A    between atoms: N_9  and  C_10
REMARK    2  A    between atoms: C_10  and  C_11
REMARK    3  A    between atoms: C_20  and  C_21
REMARK                            x       y       z     vdW  Elec       q    Type
REMARK                         _______ _______ _______ _____ _____    ______ ____
ROOT
ATOM      1  O   UNL     1      -3.273   1.753  24.910  0.00  0.00    -0.267 OA
ATOM      2  C   UNL     1      -3.119   2.554  25.037  0.00  0.00    +0.261 A 
ATOM      3  N   UNL     1      -2.345   2.836  24.999  0.00  0.00    -0.299 N 
ATOM      4  C   UNL     1      -2.778   3.529  25.173  0.00  0.00    +0.110 C 
ATOM      5  C   UNL     1      -2.037   4.183  25.206  0.00  0.00    +0.039 C 
ATOM      6  C   UNL     1      -1.551   4.833  25.267  0.00  0.00    +0.011 C 
ATOM      7  C   UNL     1      -1.485   4.147  25.136  0.00  0.00    +0.054 C 
ATOM      8  C   UNL     1      -0.854   3.506  24.949  0.00  0.00    +0.078 C 
ATOM      9  N   UNL     1      -1.342   2.859  24.888  0.00  0.00    -0.268 NA
ATOM     16  C   UNL     1      -1.385   3.506  25.010  0.00  0.00    +0.074 C 
ATOM     17  C   UNL     1      -2.191   3.636  25.125  0.00  0.00    +0.041 A 
ATOM     18  C   UNL     1      -2.811   4.154  25.289  0.00  0.00    +0.013 A 
ATOM     19  C   UNL     1      -3.585   3.873  25.327  0.00  0.00    +0.006 A 
ATOM     20  C   UNL     1      -3.739   3.073  25.201  0.00  0.00    +0.059 A 
ENDROOT
BRANCH  20  21
ATOM     21  C   UNL     1      -4.514   2.791  25.239  0.00  0.00    +0.043 A 
ATOM     22  C   UNL     1      -4.920   2.796  25.957  0.00  0.00    +0.102 A 
ATOM     23  N   UNL     1      -5.695   2.514  25.995  0.00  0.00    -0.222 NA
ATOM     24  C   UNL     1      -6.063   2.227  25.314  0.00  0.00    +0.199 A 
ATOM     25  N   UNL     1      -5.657   2.222  24.596  0.00  0.00    -0.222 NA
ATOM     26  C   UNL     1      -4.883   2.504  24.559  0.00  0.00    +0.102 A 
ENDBRANCH  20  21
BRANCH   9  10
ATOM     10  C   UNL     1      -1.578   2.078  24.775  0.00  0.00    +0.106 C 
BRANCH  10  11
ATOM     11  C   UNL     1      -1.022   1.504  24.572  0.00  0.00    +0.023 A 
ATOM     12  C   UNL     1      -0.734   1.354  23.813  0.00  0.00    +0.004 A 
ATOM     13  C   UNL     1      -0.189   0.736  23.865  0.00  0.00    +0.007 A 
ATOM     14  C   UNL     1      -0.140   0.504  24.655  0.00  0.00    +0.035 A 
ATOM     15  S   UNL     1      -0.655   0.979  25.092  0.00  0.00    -0.089 S 
ENDBRANCH  10  11
ENDBRANCH   9  10
TORSDOF 3
ENDMDL
MODEL 6
REMARK VINA RESULT:     -11.5      2.106      3.277
REMARK  Name = 
REMARK  3 active torsions:
REMARK  status: ('A' for Active; 'I' for Inactive)
REMARK    1  A    between atoms: N_9  and  C_10
REMARK    2  A    between atoms: C_10  and  C_11
REMARK    3  A    between atoms: C_20  and  C_21
REMARK                            x       y       z     vdW  Elec       q    Type
REMARK                         _______ _______ _______ _____ _____    ______ ____
ROOT
ATOM      1  O   UNL     1      -2.518   1.324  24.889  0.00  0.00    -0.267 OA
ATOM      2  C   UNL     1      -1.979   1.947  24.945  0.00  0.00    +0.261 A 
ATOM      3  N   UNL     1      -2.250   2.716  25.070  0.00  0.00    -0.299 N 
ATOM      4  C   UNL     1      -1.422   2.823  25.036  0.00  0.00    +0.110 C 
ATOM      5  C   UNL     1      -1.376   3.800  25.172  0.00  0.00    +0.039 C 
ATOM      6  C   UNL     1      -1.170   4.582  25.271  0.00  0.00    +0.011 C 
ATOM      7  C   UNL     1      -1.757   4.199  25.251  0.00  0.00    +0.054 C 
ATOM      8  C   UNL     1      -2.671   4.277  25.316  0.00  0.00    +0.078 C 
ATOM      9  N   UNL     1      -2.873   3.497  25.218  0.00  0.00    -0.268 NA
ATOM     16  C   UNL     1      -2.331   3.872  25.239  0.00  0.00    +0.074 C 
ATOM     17  C   UNL     1      -1.713   3.338  25.127  0.00  0.00    +0.041 A 
ATOM     18  C   UNL     1      -0.904   3.192  25.058  0.00  0.00    +0.013 A 
ATOM     19  C   UNL     1      -0.633   2.424  24.933  0.00  0.00    +0.006 A 
ATOM     20  C   UNL     1      -1.171   1.801  24.876  0.00  0.00    +0.059 A 
ENDROOT
BRANCH  20  21
ATOM     21  C   UNL     1      -0.900   1.031  24.751  0.00  0.00    +0.043 A 
ATOM     22  C   UNL     1      -0.638   0.803  24.003  0.00  0.00    +0.102 A 
ATOM     23  N   UNL     1      -0.367   0.033  23.877  0.00  0.00    -0.222 NA
ATOM     24  C   UNL     1      -0.358  -0.507  24.501  0.00  0.00    +0.199 A 
ATOM     25  N   UNL     1      -0.619  -0.279  25.249  0.00  0.00    -0.222 NA
ATOM     26  C   UNL     1      -0.890   0.491  25.374  0.00  0.00    +0.102 A 
ENDBRANCH  20  21
BRANCH   9  10
ATOM     10  C   UNL     1      -3.343   2.823  25.150  0.00  0.00    +0.106 C 
BRANCH  10  11
ATOM     11  C   UNL     1      -4.163   2.883  25.226  0.00  0.00    +0.023 A 
ATOM     12  C   UNL     1      -4.574   3.077  25.914  0.00  0.00    +0.004 A 
ATOM     13  C   UNL     1      -5.380   3.073  25.739  0.00  0.00    +0.007 A 
ATOM     14  C   UNL     1      -5.468   2.878  24.942  0.00  0.00    +0.035 A 
ATOM     15  S   UNL     1      -4.715   2.760  24.625  0.00  0.00    -0.089 S 
ENDBRANCH  10  11
ENDBRANCH   9  10
TORSDOF 3
ENDMDL
