MODEL 1
REMARK VINA RESULT:      -9.4      0.000      0.000
REMARK  Name = 
REMARK  7 active torsions:
REMARK  status: ('A' for Active; 'I' for Inactive)
REMARK    1  A    between atoms: C_2  and  N_4
REMARK    2  A    between atoms: N_7  and  C_8
REMARK    3  A    between atoms: C_8  and  C_9
REMARK    4  A    between atoms: C_12  and  N_13
REMARK    5  A    between atoms: N_13  and  C_14
REMARK    6  A    between atoms: C_14  and  C_15
REMARK    7  A    between atoms: C_19  and  C_21
REMARK                            x       y       z     vdW  Elec       q    Type
REMARK                         _______ _______ _______ _____ _____    ______ ____
ROOT
ATOM      9  C   UNL     1      -3.863   2.204  24.640  0.00  0.00    +0.169 C 
ATOM     10  O   UNL     1      -4.389   1.999  25.242  0.00  0.00    -0.350 OA
ATOM     11  C   UNL     1      -4.574   1.200  25.158  0.00  0.00    +0.162 C 
ATOM     12  C   UNL     1      -4.162   0.910  24.505  0.00  0.00    +0.135 C 
ATOM     23  C   UNL     1      -3.723   1.531  24.185  0.00  0.00    +0.199 C 
ATOM     24  O   UNL     1      -3.229   1.486  23.525  0.00  0.00    -0.219 OA
ENDROOT
BRANCH   9   8
ATOM      8  C   UNL     1      -3.535   2.951  24.517  0.00  0.00    +0.149 C 
BRANCH   8   7
ATOM      4  N   UNL     1      -2.002   4.233  25.394  0.00  0.00    -0.189 NA
ATOM      5  C   UNL     1      -2.553   3.930  24.860  0.00  0.00    +0.339 C 
ATOM      6  O   UNL     1      -2.672   4.304  24.134  0.00  0.00    -0.249 OA
ATOM      7  N   UNL     1      -2.985   3.254  25.051  0.00  0.00    -0.185 NA
BRANCH   4   2
ATOM      1  C   UNL     1      -1.912   5.655  25.287  0.00  0.00    +0.023 C 
ATOM      2  C   UNL     1      -1.570   4.910  25.203  0.00  0.00    +0.097 C 
ATOM      3  C   UNL     1      -0.795   4.840  24.928  0.00  0.00    +0.023 C 
ENDBRANCH   4   2
ENDBRANCH   8   7
ENDBRANCH   9   8
BRANCH  12  13
ATOM     13  N   UNL     1      -4.185   0.136  24.221  0.00  0.00    -0.209 NA
BRANCH  13  14
ATOM     14  C   UNL     1      -4.200  -0.497  24.751  0.00  0.00    +0.115 C 
BRANCH  14  15
ATOM     15  C   UNL     1      -3.948  -1.244  24.508  0.00  0.00    -0.004 A 
ATOM     16  C   UNL     1      -4.461  -1.737  24.090  0.00  0.00    -0.003 A 
ATOM     17  C   UNL     1      -4.210  -2.484  23.847  0.00  0.00    +0.000 A 
ATOM     18  C   UNL     1      -3.444  -2.738  24.021  0.00  0.00    +0.010 A 
ATOM     19  C   UNL     1      -2.931  -2.245  24.439  0.00  0.00    +0.068 A 
ATOM     20  C   UNL     1      -3.183  -1.498  24.682  0.00  0.00    +0.007 A 
BRANCH  19  21
ATOM     21  C   UNL     1      -2.166  -2.499  24.613  0.00  0.00    +0.100 C 
ATOM     22  N   UNL     1      -1.400  -2.752  24.789  0.00  0.00    -0.191 NA
ENDBRANCH  19  21
ENDBRANCH  14  15
ENDBRANCH  13  14
ENDBRANCH  12  13
TORSDOF 7
ENDMDL
MODEL 2
REMARK VINA RESULT:      -8.3      2.022      5.984
REMARK  Name = 
REMARK  7 active torsions:
REMARK  status: ('A' for Active; 'I' for Inactive)
REMARK    1  A    between atoms: C_2  and  N_4
REMARK    2  A    between atoms: N_7  and  C_8
REMARK    3  A    between atoms: C_8  and  C_9
REMARK    4  A    between atoms: C_12  and  N_13
REMARK    5  A    between atoms: N_13  and  C_14
REMARK    6  A    between atoms: C_14  and  C_15
REMARK    7  A    between atoms: C_19  and  C_21
REMARK                            x       y       z     vdW  Elec       q    Type
REMARK                         _______ _______ _______ _____ _____    ______ ____
ROOT
ATOM      9  C   UNL     1      -1.202   0.084  24.882  0.00  0.00    +0.169 C 
ATOM     10  O   UNL     1      -0.827   0.189  25.609  0.00  0.00    -0.350 OA
ATOM     11  C   UNL     1      -0.606   0.981  25.669  0.00  0.00    +0.162 C 
ATOM     12  C   UNL     1      -0.845   1.365  24.979  0.00  0.00    +0.135 C 
ATOM     23  C   UNL     1      -1.214   0.810  24.493  0.00  0.00    +0.199 C 
ATOM     24  O   UNL     1      -1.537   0.957  23.748  0.00  0.00    -0.219 OA
ENDROOT
BRANCH   9   8
ATOM      8  C   UNL     1      -1.512  -0.625  24.595  0.00  0.00    +0.149 C 
BRANCH   8   7
ATOM      4  N   UNL     1      -3.287  -1.871  24.841  0.00  0.00    -0.189 NA
ATOM      5  C   UNL     1      -2.553  -1.605  24.578  0.00  0.00    +0.339 C 
ATOM      6  O   UNL     1      -2.123  -2.052  24.034  0.00  0.00    -0.249 OA
ATOM      7  N   UNL     1      -2.247  -0.892  24.858  0.00  0.00    -0.185 NA
BRANCH   4   2
ATOM      1  C   UNL     1      -4.120  -2.587  23.927  0.00  0.00    +0.023 C 
ATOM      2  C   UNL     1      -3.593  -2.585  24.561  0.00  0.00    +0.097 C 
ATOM      3  C   UNL     1      -3.371  -3.295  24.916  0.00  0.00    +0.023 C 
ENDBRANCH   4   2
ENDBRANCH   8   7
ENDBRANCH   9   8
BRANCH  12  13
ATOM     13  N   UNL     1      -0.734   2.165  24.807  0.00  0.00    -0.209 NA
BRANCH  13  14
ATOM     14  C   UNL     1      -0.640   2.709  25.419  0.00  0.00    +0.115 C 
BRANCH  14  15
ATOM     15  C   UNL     1      -0.962   3.466  25.351  0.00  0.00    -0.004 A 
ATOM     16  C   UNL     1      -0.536   4.064  24.975  0.00  0.00    -0.003 A 
ATOM     17  C   UNL     1      -0.857   4.820  24.907  0.00  0.00    +0.000 A 
ATOM     18  C   UNL     1      -1.606   4.979  25.216  0.00  0.00    +0.010 A 
ATOM     19  C   UNL     1      -2.032   4.382  25.592  0.00  0.00    +0.068 A 
ATOM     20  C   UNL     1      -1.710   3.625  25.660  0.00  0.00    +0.007 A 
BRANCH  19  21
ATOM     21  C   UNL     1      -2.780   4.541  25.901  0.00  0.00    +0.100 C 
ATOM     22  N   UNL     1      -3.529   4.699  26.210  0.00  0.00    -0.191 NA
ENDBRANCH  19  21
ENDBRANCH  14  15
ENDBRANCH  13  14
ENDBRANCH  12  13
TORSDOF 7
ENDMDL
MODEL 3
REMARK VINA RESULT:      -8.2      1.163      5.380
REMARK  Name = 
REMARK  7 active torsions:
REMARK  status: ('A' for Active; 'I' for Inactive)
REMARK    1  A    between atoms: C_2  and  N_4
REMARK    2  A    between atoms: N_7  and  C_8
REMARK    3  A    between atoms: C_8  and  C_9
REMARK    4  A    between atoms: C_12  and  N_13
REMARK    5  A    between atoms: N_13  and  C_14
REMARK    6  A    between atoms: C_14  and  C_15
REMARK    7  A    between atoms: C_19  and  C_21
REMARK                            x       y       z     vdW  Elec       q    Type
REMARK                         _______ _______ _______ _____ _____    ______ ____
ROOT
ATOM      9  C   UNL     1      -4.199   1.021  24.521  0.00  0.00    +0.169 C 
ATOM     10  O   UNL     1      -4.608   1.327  25.169  0.00  0.00    -0.350 OA
ATOM     11  C   UNL     1      -4.340   2.097  25.298  0.00  0.00    +0.162 C 
ATOM     12  C   UNL     1      -3.766   2.265  24.731  0.00  0.00    +0.135 C 
ATOM     23  C   UNL     1      -3.679   1.600  24.251  0.00  0.00    +0.199 C 
ATOM     24  O   UNL     1      -3.162   1.528  23.612  0.00  0.00    -0.219 OA
ENDROOT
BRANCH   9   8
ATOM      8  C   UNL     1      -4.295   0.267  24.200  0.00  0.00    +0.149 C 
BRANCH   8   7
ATOM      4  N   UNL     1      -3.886  -1.795  24.787  0.00  0.00    -0.189 NA
ATOM      5  C   UNL     1      -4.009  -1.129  24.318  0.00  0.00    +0.339 C 
ATOM      6  O   UNL     1      -3.969  -1.190  23.496  0.00  0.00    -0.249 OA
ATOM      7  N   UNL     1      -4.172  -0.400  24.669  0.00  0.00    -0.185 NA
BRANCH   4   2
ATOM      1  C   UNL     1      -4.291  -2.891  23.965  0.00  0.00    +0.023 C 
ATOM      2  C   UNL     1      -3.723  -2.524  24.436  0.00  0.00    +0.097 C 
ATOM      3  C   UNL     1      -2.991  -2.884  24.556  0.00  0.00    +0.023 C 
ENDBRANCH   4   2
ENDBRANCH   8   7
ENDBRANCH   9   8
BRANCH  12  13
ATOM     13  N   UNL     1      -3.351   2.975  24.657  0.00  0.00    -0.209 NA
BRANCH  13  14
ATOM     14  C   UNL     1      -3.067   3.358  25.331  0.00  0.00    +0.115 C 
BRANCH  14  15
ATOM     15  C   UNL     1      -2.327   3.724  25.316  0.00  0.00    -0.004 A 
ATOM     16  C   UNL     1      -2.262   4.514  25.091  0.00  0.00    -0.003 A 
ATOM     17  C   UNL     1      -1.522   4.879  25.077  0.00  0.00    +0.000 A 
ATOM     18  C   UNL     1      -0.847   4.453  25.287  0.00  0.00    +0.010 A 
ATOM     19  C   UNL     1      -0.913   3.662  25.512  0.00  0.00    +0.068 A 
ATOM     20  C   UNL     1      -1.653   3.297  25.526  0.00  0.00    +0.007 A 
BRANCH  19  21
ATOM     21  C   UNL     1      -0.239   3.236  25.722  0.00  0.00    +0.100 C 
ATOM     22  N   UNL     1       0.435   2.808  25.932  0.00  0.00    -0.191 NA
ENDBRANCH  19  21
ENDBRANCH  14  15
ENDBRANCH  13  14
ENDBRANCH  12  13
TORSDOF 7
ENDMDL
MODEL 4
REMARK VINA RESULT:      -8.2      3.137      4.859
REMARK  Name = 
REMARK  7 active torsions:
REMARK  status: ('A' for Active; 'I' for Inactive)
REMARK    1  A    between atoms: C_2  and  N_4
REMARK    2  A    between atoms: N_7  and  C_8
REMARK    3  A    between atoms: C_8  and  C_9
REMARK    4  A    between atoms: C_12  and  N_13
REMARK    5  A    between atoms: N_13  and  C_14
REMARK    6  A    between atoms: C_14  and  C_15
REMARK    7  A    between atoms: C_19  and  C_21
REMARK                            x       y       z     vdW  Elec       q    Type
REMARK                         _______ _______ _______ _____ _____    ______ ____
ROOT
ATOM      9  C   UNL     1      -1.091   0.787  23.904  0.00  0.00    +0.169 C 
ATOM     10  O   UNL     1      -1.318   1.394  23.393  0.00  0.00    -0.350 OA
ATOM     11  C   UNL     1      -2.074   1.641  23.612  0.00  0.00    +0.162 C 
ATOM     12  C   UNL     1      -2.313   1.188  24.258  0.00  0.00    +0.135 C 
ATOM     23  C   UNL     1      -1.705   0.661  24.439  0.00  0.00    +0.199 C 
ATOM     24  O   UNL     1      -1.712   0.104  25.048  0.00  0.00    -0.219 OA
ENDROOT
BRANCH   9   8
ATOM      8  C   UNL     1      -0.373   0.380  23.884  0.00  0.00    +0.149 C 
BRANCH   8   7
ATOM      4  N   UNL     1       1.533   0.548  22.836  0.00  0.00    -0.189 NA
ATOM      5  C   UNL     1       0.883   0.220  23.223  0.00  0.00    +0.339 C 
ATOM      6  O   UNL     1       0.839  -0.596  23.336  0.00  0.00    -0.249 OA
ATOM      7  N   UNL     1       0.277   0.707  23.497  0.00  0.00    -0.185 NA
BRANCH   4   2
ATOM      1  C   UNL     1       2.069  -0.318  21.833  0.00  0.00    +0.023 C 
ATOM      2  C   UNL     1       2.140   0.060  22.562  0.00  0.00    +0.097 C 
ATOM      3  C   UNL     1       2.819  -0.049  23.018  0.00  0.00    +0.023 C 
ENDBRANCH   4   2
ENDBRANCH   8   7
ENDBRANCH   9   8
BRANCH  12  13
ATOM     13  N   UNL     1      -3.034   1.252  24.655  0.00  0.00    -0.209 NA
BRANCH  13  14
ATOM     14  C   UNL     1      -3.670   1.635  24.294  0.00  0.00    +0.115 C 
BRANCH  14  15
ATOM     15  C   UNL     1      -4.372   1.751  24.712  0.00  0.00    -0.004 A 
ATOM     16  C   UNL     1      -4.849   1.107  24.907  0.00  0.00    -0.003 A 
ATOM     17  C   UNL     1      -5.550   1.224  25.325  0.00  0.00    +0.000 A 
ATOM     18  C   UNL     1      -5.775   1.986  25.549  0.00  0.00    +0.010 A 
ATOM     19  C   UNL     1      -5.298   2.630  25.355  0.00  0.00    +0.068 A 
ATOM     20  C   UNL     1      -4.596   2.513  24.936  0.00  0.00    +0.007 A 
BRANCH  19  21
ATOM     21  C   UNL     1      -5.522   3.392  25.579  0.00  0.00    +0.100 C 
ATOM     22  N   UNL     1      -5.746   4.154  25.804  0.00  0.00    -0.191 NA
ENDBRANCH  19  21
ENDBRANCH  14  15
ENDBRANCH  13  14
ENDBRANCH  12  13
TORSDOF 7
ENDMDL
MODEL 5
REMARK VINA RESULT:      -8.2      4.018      4.941
REMARK  Name = 
REMARK  7 active torsions:
REMARK  status: ('A' for Active; 'I' for Inactive)
REMARK    1  A    between atoms: C_2  and  N_4
REMARK    2  A    between atoms: N_7  and  C_8
REMARK    3  A    between atoms: C_8  and  C_9
REMARK    4  A    between atoms: C_12  and  N_13
REMARK    5  A    between atoms: N_13  and  C_14
REMARK    6  A    between atoms: C_14  and  C_15
REMARK    7  A    between atoms: C_19  and  C_21
REMARK                            x       y       z     vdW  Elec       q    Type
REMARK                         _______ _______ _______ _____ _____    ______ ____
ROOT
ATOM      9  C   UNL     1       0.397   0.406  23.588  0.00  0.00    +0.169 C 
ATOM     10  O   UNL     1       0.166   1.175  23.779  0.00  0.00    -0.350 OA
ATOM     11  C   UNL     1      -0.591   1.140  24.105  0.00  0.00    +0.162 C 
ATOM     12  C   UNL     1      -0.828   0.350  24.114  0.00  0.00    +0.135 C 
ATOM     23  C   UNL     1      -0.217  -0.103  23.795  0.00  0.00    +0.199 C 
ATOM     24  O   UNL     1      -0.221  -0.923  23.700  0.00  0.00    -0.219 OA
ENDROOT
BRANCH   9   8
ATOM      8  C   UNL     1       1.117   0.186  23.249  0.00  0.00    +0.149 C 
BRANCH   8   7
ATOM      4  N   UNL     1       3.154   0.946  23.063  0.00  0.00    -0.189 NA
ATOM      5  C   UNL     1       2.498   0.451  22.996  0.00  0.00    +0.339 C 
ATOM      6  O   UNL     1       2.567  -0.275  22.611  0.00  0.00    -0.249 OA
ATOM      7  N   UNL     1       1.772   0.682  23.315  0.00  0.00    -0.185 NA
BRANCH   4   2
ATOM      1  C   UNL     1       4.497   0.492  23.242  0.00  0.00    +0.023 C 
ATOM      2  C   UNL     1       3.879   0.716  22.744  0.00  0.00    +0.097 C 
ATOM      3  C   UNL     1       3.987   0.710  21.926  0.00  0.00    +0.023 C 
ENDBRANCH   4   2
ENDBRANCH   8   7
ENDBRANCH   9   8
BRANCH  12  13
ATOM     13  N   UNL     1      -1.549   0.064  24.395  0.00  0.00    -0.209 NA
BRANCH  13  14
ATOM     14  C   UNL     1      -2.067   0.569  24.792  0.00  0.00    +0.115 C 
BRANCH  14  15
ATOM     15  C   UNL     1      -2.843   0.331  24.941  0.00  0.00    -0.004 A 
ATOM     16  C   UNL     1      -2.996  -0.438  25.197  0.00  0.00    -0.003 A 
ATOM     17  C   UNL     1      -3.771  -0.677  25.346  0.00  0.00    +0.000 A 
ATOM     18  C   UNL     1      -4.394  -0.146  25.240  0.00  0.00    +0.010 A 
ATOM     19  C   UNL     1      -4.241   0.623  24.984  0.00  0.00    +0.068 A 
ATOM     20  C   UNL     1      -3.465   0.862  24.835  0.00  0.00    +0.007 A 
BRANCH  19  21
ATOM     21  C   UNL     1      -4.863   1.155  24.877  0.00  0.00    +0.100 C 
ATOM     22  N   UNL     1      -5.484   1.687  24.770  0.00  0.00    -0.191 NA
ENDBRANCH  19  21
ENDBRANCH  14  15
ENDBRANCH  13  14
ENDBRANCH  12  13
TORSDOF 7
ENDMDL
MODEL 6
REMARK VINA RESULT:      -8.0      1.967      2.366
REMARK  Name = 
REMARK  7 active torsions:
REMARK  status: ('A' for Active; 'I' for Inactive)
REMARK    1  A    between atoms: C_2  and  N_4
REMARK    2  A    between atoms: N_7  and  C_8
REMARK    3  A    between atoms: C_8  and  C_9
REMARK    4  A    between atoms: C_12  and  N_13
REMARK    5  A    between atoms: N_13  and  C_14
REMARK    6  A    between atoms: C_14  and  C_15
REMARK    7  A    between atoms: C_19  and  C_21
REMARK                            x       y       z     vdW  Elec       q    Type
REMARK                         _______ _______ _______ _____ _____    ______ ____
ROOT
ATOM      9  C   UNL     1      -0.765   1.575  25.021  0.00  0.00    +0.169 C 
ATOM     10  O   UNL     1      -0.741   1.294  25.797  0.00  0.00    -0.350 OA
ATOM     11  C   UNL     1      -0.927   0.490  25.781  0.00  0.00    +0.162 C 
ATOM     12  C   UNL     1      -1.065   0.275  24.997  0.00  0.00    +0.135 C 
ATOM     23  C   UNL     1      -0.965   0.946  24.528  0.00  0.00    +0.199 C 
ATOM     24  O   UNL     1      -1.051   0.981  23.708  0.00  0.00    -0.219 OA
ENDROOT
BRANCH   9   8
ATOM      8  C   UNL     1      -0.614   2.351  24.783  0.00  0.00    +0.149 C 
BRANCH   8   7
ATOM      4  N   UNL     1      -1.159   4.368  25.412  0.00  0.00    -0.189 NA
ATOM      5  C   UNL     1      -0.926   3.737  24.936  0.00  0.00    +0.339 C 
ATOM      6  O   UNL     1      -0.771   3.860  24.135  0.00  0.00    -0.249 OA
ATOM      7  N   UNL     1      -0.848   2.982  25.259  0.00  0.00    -0.185 NA
BRANCH   4   2
ATOM      1  C   UNL     1      -1.967   5.506  25.106  0.00  0.00    +0.023 C 
ATOM      2  C   UNL     1      -1.238   5.123  25.089  0.00  0.00    +0.097 C 
ATOM      3  C   UNL     1      -0.585   5.495  24.748  0.00  0.00    +0.023 C 
ENDBRANCH   4   2
ENDBRANCH   8   7
ENDBRANCH   9   8
BRANCH  12  13
ATOM     13  N   UNL     1      -1.269  -0.479  24.730  0.00  0.00    -0.209 NA
BRANCH  13  14
ATOM     14  C   UNL     1      -1.730  -0.973  25.202  0.00  0.00    +0.115 C 
BRANCH  14  15
ATOM     15  C   UNL     1      -2.092  -1.637  24.873  0.00  0.00    -0.004 A 
ATOM     16  C   UNL     1      -1.670  -2.342  24.796  0.00  0.00    -0.003 A 
ATOM     17  C   UNL     1      -2.032  -3.006  24.467  0.00  0.00    +0.000 A 
ATOM     18  C   UNL     1      -2.817  -2.966  24.215  0.00  0.00    +0.010 A 
ATOM     19  C   UNL     1      -3.239  -2.261  24.292  0.00  0.00    +0.068 A 
ATOM     20  C   UNL     1      -2.877  -1.597  24.621  0.00  0.00    +0.007 A 
BRANCH  19  21
ATOM     21  C   UNL     1      -4.023  -2.220  24.040  0.00  0.00    +0.100 C 
ATOM     22  N   UNL     1      -4.808  -2.179  23.788  0.00  0.00    -0.191 NA
ENDBRANCH  19  21
ENDBRANCH  14  15
ENDBRANCH  13  14
ENDBRANCH  12  13
TORSDOF 7
ENDMDL
MODEL 7
REMARK VINA RESULT:      -6.5     13.786     15.001
REMARK  Name = 
REMARK  7 active torsions:
REMARK  status: ('A' for Active; 'I' for Inactive)
REMARK    1  A    between atoms: C_2  and  N_4
REMARK    2  A    between atoms: N_7  and  C_8
REMARK    3  A    between atoms: C_8  and  C_9
REMARK    4  A    between atoms: C_12  and  N_13
REMARK    5  A    between atoms: N_13  and  C_14
REMARK    6  A    between atoms: C_14  and  C_15
REMARK    7  A    between atoms: C_19  and  C_21
REMARK                            x       y       z     vdW  Elec       q    Type
REMARK                         _______ _______ _______ _____ _____    ______ ____
ROOT
ATOM      9  C   UNL     1      -6.275  -9.935  16.217  0.00  0.00    +0.169 C 
ATOM     10  O   UNL     1      -6.383 -10.129  15.422  0.00  0.00    -0.350 OA
ATOM     11  C   UNL     1      -5.644 -10.306  15.101  0.00  0.00    +0.162 C 
ATOM     12  C   UNL     1      -5.080 -10.222  15.696  0.00  0.00    +0.135 C 
ATOM     23  C   UNL     1      -5.470  -9.992  16.386  0.00  0.00    +0.199 C 
ATOM     24  O   UNL     1      -5.116  -9.846  17.117  0.00  0.00    -0.219 OA
ENDROOT
BRANCH   9   8
ATOM      8  C   UNL     1      -6.869  -9.721  16.749  0.00  0.00    +0.149 C 
BRANCH   8   7
ATOM      4  N   UNL     1      -8.967  -9.122  16.725  0.00  0.00    -0.189 NA
ATOM      5  C   UNL     1      -8.209  -9.296  17.000  0.00  0.00    +0.339 C 
ATOM      6  O   UNL     1      -8.034  -9.219  17.803  0.00  0.00    -0.249 OA
ATOM      7  N   UNL     1      -7.626  -9.547  16.473  0.00  0.00    -0.185 NA
BRANCH   4   2
ATOM      1  C   UNL     1     -10.009  -9.424  17.654  0.00  0.00    +0.023 C 
ATOM      2  C   UNL     1      -9.550  -8.870  17.252  0.00  0.00    +0.097 C 
ATOM      3  C   UNL     1      -9.674  -8.064  17.375  0.00  0.00    +0.023 C 
ENDBRANCH   4   2
ENDBRANCH   8   7
ENDBRANCH   9   8
BRANCH  12  13
ATOM     13  N   UNL     1      -4.268 -10.345  15.615  0.00  0.00    -0.209 NA
BRANCH  13  14
ATOM     14  C   UNL     1      -3.979 -10.781  14.977  0.00  0.00    +0.115 C 
BRANCH  14  15
ATOM     15  C   UNL     1      -3.181 -10.734  14.773  0.00  0.00    -0.004 A 
ATOM     16  C   UNL     1      -2.602 -10.781  15.359  0.00  0.00    -0.003 A 
ATOM     17  C   UNL     1      -1.804 -10.733  15.155  0.00  0.00    +0.000 A 
ATOM     18  C   UNL     1      -1.585 -10.638  14.365  0.00  0.00    +0.010 A 
ATOM     19  C   UNL     1      -2.164 -10.591  13.780  0.00  0.00    +0.068 A 
ATOM     20  C   UNL     1      -2.962 -10.638  13.983  0.00  0.00    +0.007 A 
BRANCH  19  21
ATOM     21  C   UNL     1      -1.946 -10.495  12.990  0.00  0.00    +0.100 C 
ATOM     22  N   UNL     1      -1.727 -10.401  12.199  0.00  0.00    -0.191 NA
ENDBRANCH  19  21
ENDBRANCH  14  15
ENDBRANCH  13  14
ENDBRANCH  12  13
TORSDOF 7
ENDMDL
MODEL 8
REMARK VINA RESULT:      -6.3     17.187     18.217
REMARK  Name = 
REMARK  7 active torsions:
REMARK  status: ('A' for Active; 'I' for Inactive)
REMARK    1  A    between atoms: C_2  and  N_4
REMARK    2  A    between atoms: N_7  and  C_8
REMARK    3  A    between atoms: C_8  and  C_9
REMARK    4  A    between atoms: C_12  and  N_13
REMARK    5  A    between atoms: N_13  and  C_14
REMARK    6  A    between atoms: C_14  and  C_15
REMARK    7  A    between atoms: C_19  and  C_21
REMARK                            x       y       z     vdW  Elec       q    Type
REMARK                         _______ _______ _______ _____ _____    ______ ____
ROOT
ATOM      9  C   UNL     1      -6.047  -8.824   9.510  0.00  0.00    +0.169 C 
ATOM     10  O   UNL     1      -5.570  -9.016   8.864  0.00  0.00    -0.350 OA
ATOM     11  C   UNL     1      -4.854  -9.306   9.154  0.00  0.00    +0.162 C 
ATOM     12  C   UNL     1      -4.889  -9.294   9.978  0.00  0.00    +0.135 C 
ATOM     23  C   UNL     1      -5.626  -8.996  10.198  0.00  0.00    +0.199 C 
ATOM     24  O   UNL     1      -5.894  -8.889  10.971  0.00  0.00    -0.219 OA
ENDROOT
BRANCH   9   8
ATOM      8  C   UNL     1      -6.811  -8.514   9.473  0.00  0.00    +0.149 C 
BRANCH   8   7
ATOM      4  N   UNL     1      -8.026  -7.273   8.152  0.00  0.00    -0.189 NA
ATOM      5  C   UNL     1      -7.793  -7.722   8.803  0.00  0.00    +0.339 C 
ATOM      6  O   UNL     1      -8.310  -7.827   9.437  0.00  0.00    -0.249 OA
ATOM      7  N   UNL     1      -7.043  -8.066   8.822  0.00  0.00    -0.185 NA
BRANCH   4   2
ATOM      1  C   UNL     1      -9.448  -7.405   8.124  0.00  0.00    +0.023 C 
ATOM      2  C   UNL     1      -8.775  -6.929   8.133  0.00  0.00    +0.097 C 
ATOM      3  C   UNL     1      -8.851  -6.108   8.124  0.00  0.00    +0.023 C 
ENDBRANCH   4   2
ENDBRANCH   8   7
ENDBRANCH   9   8
BRANCH  12  13
ATOM     13  N   UNL     1      -4.291  -9.538  10.492  0.00  0.00    -0.209 NA
BRANCH  13  14
ATOM     14  C   UNL     1      -3.503  -9.513  10.248  0.00  0.00    +0.115 C 
BRANCH  14  15
ATOM     15  C   UNL     1      -2.901  -9.712  10.777  0.00  0.00    -0.004 A 
ATOM     16  C   UNL     1      -3.027 -10.298  11.343  0.00  0.00    -0.003 A 
ATOM     17  C   UNL     1      -2.426 -10.497  11.872  0.00  0.00    +0.000 A 
ATOM     18  C   UNL     1      -1.698 -10.110  11.834  0.00  0.00    +0.010 A 
ATOM     19  C   UNL     1      -1.573  -9.523  11.268  0.00  0.00    +0.068 A 
ATOM     20  C   UNL     1      -2.174  -9.324  10.739  0.00  0.00    +0.007 A 
BRANCH  19  21
ATOM     21  C   UNL     1      -0.846  -9.135  11.230  0.00  0.00    +0.100 C 
ATOM     22  N   UNL     1      -0.118  -8.747  11.193  0.00  0.00    -0.191 NA
ENDBRANCH  19  21
ENDBRANCH  14  15
ENDBRANCH  13  14
ENDBRANCH  12  13
TORSDOF 7
ENDMDL
MODEL 9
REMARK VINA RESULT:      -6.3     14.235     16.163
REMARK  Name = 
REMARK  7 active torsions:
REMARK  status: ('A' for Active; 'I' for Inactive)
REMARK    1  A    between atoms: C_2  and  N_4
REMARK    2  A    between atoms: N_7  and  C_8
REMARK    3  A    between atoms: C_8  and  C_9
REMARK    4  A    between atoms: C_12  and  N_13
REMARK    5  A    between atoms: N_13  and  C_14
REMARK    6  A    between atoms: C_14  and  C_15
REMARK    7  A    between atoms: C_19  and  C_21
REMARK                            x       y       z     vdW  Elec       q    Type
REMARK                         _______ _______ _______ _____ _____    ______ ____
ROOT
ATOM      9  C   UNL     1      -4.786 -10.242  12.993  0.00  0.00    +0.169 C 
ATOM     10  O   UNL     1      -5.552  -9.974  13.142  0.00  0.00    -0.350 OA
ATOM     11  C   UNL     1      -5.693 -10.043  13.951  0.00  0.00    +0.162 C 
ATOM     12  C   UNL     1      -5.015 -10.353  14.303  0.00  0.00    +0.135 C 
ATOM     23  C   UNL     1      -4.455 -10.476  13.711  0.00  0.00    +0.199 C 
ATOM     24  O   UNL     1      -3.695 -10.781  13.818  0.00  0.00    -0.219 OA
ENDROOT
BRANCH   9   8
ATOM      8  C   UNL     1      -4.417 -10.271  12.256  0.00  0.00    +0.149 C 
BRANCH   8   7
ATOM      4  N   UNL     1      -4.749  -9.565  10.218  0.00  0.00    -0.189 NA
ATOM      5  C   UNL     1      -4.385  -9.906  10.875  0.00  0.00    +0.339 C 
ATOM      6  O   UNL     1      -3.626 -10.222  10.808  0.00  0.00    -0.249 OA
ATOM      7  N   UNL     1      -4.780  -9.930  11.599  0.00  0.00    -0.185 NA
BRANCH   4   2
ATOM      1  C   UNL     1      -4.522 -10.100   8.912  0.00  0.00    +0.023 C 
ATOM      2  C   UNL     1      -4.354  -9.540   9.493  0.00  0.00    +0.097 C 
ATOM      3  C   UNL     1      -3.790  -8.955   9.351  0.00  0.00    +0.023 C 
ENDBRANCH   4   2
ENDBRANCH   8   7
ENDBRANCH   9   8
BRANCH  12  13
ATOM     13  N   UNL     1      -4.916 -10.512  15.107  0.00  0.00    -0.209 NA
BRANCH  13  14
ATOM     14  C   UNL     1      -5.347 -10.087  15.667  0.00  0.00    +0.115 C 
BRANCH  14  15
ATOM     15  C   UNL     1      -5.296 -10.289  16.466  0.00  0.00    -0.004 A 
ATOM     16  C   UNL     1      -4.569 -10.497  16.794  0.00  0.00    -0.003 A 
ATOM     17  C   UNL     1      -4.519 -10.699  17.592  0.00  0.00    +0.000 A 
ATOM     18  C   UNL     1      -5.197 -10.694  18.063  0.00  0.00    +0.010 A 
ATOM     19  C   UNL     1      -5.924 -10.486  17.734  0.00  0.00    +0.068 A 
ATOM     20  C   UNL     1      -5.975 -10.284  16.936  0.00  0.00    +0.007 A 
BRANCH  19  21
ATOM     21  C   UNL     1      -6.603 -10.480  18.204  0.00  0.00    +0.100 C 
ATOM     22  N   UNL     1      -7.281 -10.475  18.674  0.00  0.00    -0.191 NA
ENDBRANCH  19  21
ENDBRANCH  14  15
ENDBRANCH  13  14
ENDBRANCH  12  13
TORSDOF 7
ENDMDL
MODEL 10
REMARK VINA RESULT:      -6.2     13.777     16.221
REMARK  Name = 
REMARK  7 active torsions:
REMARK  status: ('A' for Active; 'I' for Inactive)
REMARK    1  A    between atoms: C_2  and  N_4
REMARK    2  A    between atoms: N_7  and  C_8
REMARK    3  A    between atoms: C_8  and  C_9
REMARK    4  A    between atoms: C_12  and  N_13
REMARK    5  A    between atoms: N_13  and  C_14
REMARK    6  A    between atoms: C_14  and  C_15
REMARK    7  A    between atoms: C_19  and  C_21
REMARK                            x       y       z     vdW  Elec       q    Type
REMARK                         _______ _______ _______ _____ _____    ______ ____
ROOT
ATOM      9  C   UNL     1      -4.705 -10.500  14.933  0.00  0.00    +0.169 C 
ATOM     10  O   UNL     1      -5.363 -10.533  14.436  0.00  0.00    -0.350 OA
ATOM     11  C   UNL     1      -5.094 -10.514  13.657  0.00  0.00    +0.162 C 
ATOM     12  C   UNL     1      -4.271 -10.470  13.672  0.00  0.00    +0.135 C 
ATOM     23  C   UNL     1      -4.030 -10.462  14.461  0.00  0.00    +0.199 C 
ATOM     24  O   UNL     1      -3.251 -10.421  14.730  0.00  0.00    -0.219 OA
ENDROOT
BRANCH   9   8
ATOM      8  C   UNL     1      -4.720 -10.506  15.758  0.00  0.00    +0.149 C 
BRANCH   8   7
ATOM      4  N   UNL     1      -6.200 -10.717  17.348  0.00  0.00    -0.189 NA
ATOM      5  C   UNL     1      -5.510 -10.507  16.949  0.00  0.00    +0.339 C 
ATOM      6  O   UNL     1      -4.918 -10.088  17.342  0.00  0.00    -0.249 OA
ATOM      7  N   UNL     1      -5.410 -10.716  16.157  0.00  0.00    -0.185 NA
BRANCH   4   2
ATOM      1  C   UNL     1      -5.769 -10.780  18.709  0.00  0.00    +0.023 C 
ATOM      2  C   UNL     1      -6.300 -10.509  18.140  0.00  0.00    +0.097 C 
ATOM      3  C   UNL     1      -6.932 -10.028  18.363  0.00  0.00    +0.023 C 
ENDBRANCH   4   2
ENDBRANCH   8   7
ENDBRANCH   9   8
BRANCH  12  13
ATOM     13  N   UNL     1      -3.775 -10.440  13.013  0.00  0.00    -0.209 NA
BRANCH  13  14
ATOM     14  C   UNL     1      -4.098 -10.441  12.254  0.00  0.00    +0.115 C 
BRANCH  14  15
ATOM     15  C   UNL     1      -3.662 -10.141  11.620  0.00  0.00    -0.004 A 
ATOM     16  C   UNL     1      -2.845 -10.249  11.593  0.00  0.00    -0.003 A 
ATOM     17  C   UNL     1      -2.410  -9.949  10.960  0.00  0.00    +0.000 A 
ATOM     18  C   UNL     1      -2.793  -9.540  10.353  0.00  0.00    +0.010 A 
ATOM     19  C   UNL     1      -3.610  -9.432  10.380  0.00  0.00    +0.068 A 
ATOM     20  C   UNL     1      -4.045  -9.733  11.014  0.00  0.00    +0.007 A 
BRANCH  19  21
ATOM     21  C   UNL     1      -3.993  -9.024   9.774  0.00  0.00    +0.100 C 
ATOM     22  N   UNL     1      -4.377  -8.616   9.168  0.00  0.00    -0.191 NA
ENDBRANCH  19  21
ENDBRANCH  14  15
ENDBRANCH  13  14
ENDBRANCH  12  13
TORSDOF 7
ENDMDL
