MODEL 1
REMARK VINA RESULT:     -15.1      0.000      0.000
REMARK  Name = 
REMARK  2 active torsions:
REMARK  status: ('A' for Active; 'I' for Inactive)
REMARK    1  A    between atoms: N_3  and  C_4
REMARK    2  A    between atoms: C_17  and  C_24
REMARK                            x       y       z     vdW  Elec       q    Type
REMARK                         _______ _______ _______ _____ _____    ______ ____
ROOT
ATOM      1  O   UNL     1      -3.053   0.261  24.789  0.00  0.00    -0.250 OA
ATOM      2  C   UNL     1      -3.870   0.362  24.721  0.00  0.00    +0.327 C 
ATOM      3  N   UNL     1      -4.364  -0.296  24.665  0.00  0.00    -0.162 NA
ATOM     10  N   UNL     1      -4.192   1.122  24.709  0.00  0.00    -0.262 N 
ATOM     11  C   UNL     1      -4.773   1.721  24.671  0.00  0.00    +0.097 C 
ATOM     12  C   UNL     1      -4.192   2.518  24.738  0.00  0.00    +0.043 C 
ATOM     13  C   UNL     1      -3.860   3.261  24.782  0.00  0.00    +0.011 C 
ATOM     14  C   UNL     1      -3.642   2.594  24.787  0.00  0.00    +0.058 C 
ATOM     15  C   UNL     1      -4.216   1.833  24.722  0.00  0.00    +0.101 C 
ATOM     16  C   UNL     1      -2.878   2.086  24.842  0.00  0.00    +0.041 A 
ATOM     17  C   UNL     1      -2.060   2.165  24.914  0.00  0.00    +0.013 A 
ATOM     18  C   UNL     1      -1.582   1.493  24.941  0.00  0.00    +0.006 A 
ATOM     19  C   UNL     1      -1.922   0.742  24.897  0.00  0.00    +0.061 A 
ATOM     20  C   UNL     1      -2.740   0.663  24.825  0.00  0.00    +0.261 A 
ATOM     21  O   UNL     1      -2.832  -0.156  24.800  0.00  0.00    -0.267 OA
ATOM     22  N   UNL     1      -3.218   1.335  24.797  0.00  0.00    -0.299 N 
ATOM     23  C   UNL     1      -3.400   1.979  24.795  0.00  0.00    +0.110 C 
ENDROOT
BRANCH   3   4
ATOM      4  C   UNL     1      -4.042  -1.056  24.677  0.00  0.00    +0.075 A 
ATOM      5  C   UNL     1      -3.840  -1.407  25.397  0.00  0.00    +0.017 A 
ATOM      6  C   UNL     1      -3.518  -2.167  25.408  0.00  0.00    +0.001 A 
ATOM      7  C   UNL     1      -3.398  -2.575  24.701  0.00  0.00    +0.000 A 
ATOM      8  C   UNL     1      -3.599  -2.223  23.983  0.00  0.00    +0.001 A 
ATOM      9  C   UNL     1      -3.921  -1.464  23.970  0.00  0.00    +0.017 A 
ENDBRANCH   3   4
BRANCH  17  24
ATOM     24  C   UNL     1      -1.720   2.915  24.959  0.00  0.00    +0.020 A 
ATOM     25  C   UNL     1      -1.657   3.297  25.687  0.00  0.00    +0.003 A 
ATOM     26  C   UNL     1      -1.317   4.047  25.732  0.00  0.00    +0.021 A 
ATOM     27  C   UNL     1      -1.041   4.417  25.048  0.00  0.00    +0.099 A 
ATOM     28  N   UNL     1      -1.105   4.036  24.319  0.00  0.00    -0.242 NA
ATOM     29  C   UNL     1      -1.444   3.285  24.275  0.00  0.00    +0.099 A 
ENDBRANCH  17  24
TORSDOF 2
ENDMDL
MODEL 2
REMARK VINA RESULT:     -14.8      1.112      4.242
REMARK  Name = 
REMARK  2 active torsions:
REMARK  status: ('A' for Active; 'I' for Inactive)
REMARK    1  A    between atoms: N_3  and  C_4
REMARK    2  A    between atoms: C_17  and  C_24
REMARK                            x       y       z     vdW  Elec       q    Type
REMARK                         _______ _______ _______ _____ _____    ______ ____
ROOT
ATOM      1  O   UNL     1      -2.907   2.410  24.964  0.00  0.00    -0.250 OA
ATOM      2  C   UNL     1      -3.594   2.849  25.095  0.00  0.00    +0.327 C 
ATOM      3  N   UNL     1      -3.547   3.665  25.206  0.00  0.00    -0.162 NA
ATOM     10  N   UNL     1      -4.328   2.472  25.115  0.00  0.00    -0.262 N 
ATOM     11  C   UNL     1      -5.155   2.380  25.184  0.00  0.00    +0.097 C 
ATOM     12  C   UNL     1      -5.226   1.403  25.053  0.00  0.00    +0.043 C 
ATOM     13  C   UNL     1      -5.450   0.625  24.965  0.00  0.00    +0.011 C 
ATOM     14  C   UNL     1      -4.855   0.997  24.958  0.00  0.00    +0.058 C 
ATOM     15  C   UNL     1      -4.804   1.942  25.087  0.00  0.00    +0.101 C 
ATOM     16  C   UNL     1      -3.947   0.903  24.854  0.00  0.00    +0.041 A 
ATOM     17  C   UNL     1      -3.375   0.325  24.716  0.00  0.00    +0.013 A 
ATOM     18  C   UNL     1      -2.579   0.536  24.666  0.00  0.00    +0.006 A 
ATOM     19  C   UNL     1      -2.355   1.325  24.756  0.00  0.00    +0.061 A 
ATOM     20  C   UNL     1      -2.927   1.903  24.894  0.00  0.00    +0.261 A 
ATOM     21  O   UNL     1      -2.471   2.588  24.946  0.00  0.00    -0.267 OA
ATOM     22  N   UNL     1      -3.723   1.692  24.944  0.00  0.00    -0.299 N 
ATOM     23  C   UNL     1      -4.276   1.314  24.945  0.00  0.00    +0.110 C 
ENDROOT
BRANCH   3   4
ATOM      4  C   UNL     1      -2.813   4.042  25.186  0.00  0.00    +0.075 A 
ATOM      5  C   UNL     1      -2.360   4.100  25.874  0.00  0.00    +0.017 A 
ATOM      6  C   UNL     1      -1.627   4.477  25.853  0.00  0.00    +0.001 A 
ATOM      7  C   UNL     1      -1.346   4.797  25.146  0.00  0.00    +0.000 A 
ATOM      8  C   UNL     1      -1.799   4.739  24.459  0.00  0.00    +0.001 A 
ATOM      9  C   UNL     1      -2.533   4.362  24.479  0.00  0.00    +0.017 A 
ENDBRANCH   3   4
BRANCH  17  24
ATOM     24  C   UNL     1      -3.599  -0.464  24.626  0.00  0.00    +0.020 A 
ATOM     25  C   UNL     1      -3.815  -0.750  23.883  0.00  0.00    +0.003 A 
ATOM     26  C   UNL     1      -4.039  -1.539  23.794  0.00  0.00    +0.021 A 
ATOM     27  C   UNL     1      -4.047  -2.042  24.447  0.00  0.00    +0.099 A 
ATOM     28  N   UNL     1      -3.830  -1.757  25.190  0.00  0.00    -0.242 NA
ATOM     29  C   UNL     1      -3.606  -0.968  25.280  0.00  0.00    +0.099 A 
ENDBRANCH  17  24
TORSDOF 2
ENDMDL
MODEL 3
REMARK VINA RESULT:     -14.7      1.217      4.510
REMARK  Name = 
REMARK  2 active torsions:
REMARK  status: ('A' for Active; 'I' for Inactive)
REMARK    1  A    between atoms: N_3  and  C_4
REMARK    2  A    between atoms: C_17  and  C_24
REMARK                            x       y       z     vdW  Elec       q    Type
REMARK                         _______ _______ _______ _____ _____    ______ ____
ROOT
ATOM      1  O   UNL     1      -3.456   1.461  24.868  0.00  0.00    -0.250 OA
ATOM      2  C   UNL     1      -2.669   1.706  24.813  0.00  0.00    +0.327 C 
ATOM      3  N   UNL     1      -2.485   2.510  24.832  0.00  0.00    -0.162 NA
ATOM     10  N   UNL     1      -2.067   1.147  24.738  0.00  0.00    -0.262 N 
ATOM     11  C   UNL     1      -1.294   0.840  24.660  0.00  0.00    +0.097 C 
ATOM     12  C   UNL     1      -1.501  -0.126  24.635  0.00  0.00    +0.043 C 
ATOM     13  C   UNL     1      -1.502  -0.939  24.600  0.00  0.00    +0.011 C 
ATOM     14  C   UNL     1      -1.972  -0.422  24.662  0.00  0.00    +0.058 C 
ATOM     15  C   UNL     1      -1.756   0.508  24.684  0.00  0.00    +0.101 C 
ATOM     16  C   UNL     1      -2.876  -0.274  24.743  0.00  0.00    +0.041 A 
ATOM     17  C   UNL     1      -3.590  -0.684  24.785  0.00  0.00    +0.013 A 
ATOM     18  C   UNL     1      -4.299  -0.269  24.863  0.00  0.00    +0.006 A 
ATOM     19  C   UNL     1      -4.294   0.555  24.898  0.00  0.00    +0.061 A 
ATOM     20  C   UNL     1      -3.579   0.965  24.856  0.00  0.00    +0.261 A 
ATOM     21  O   UNL     1      -3.827   1.749  24.911  0.00  0.00    -0.267 OA
ATOM     22  N   UNL     1      -2.870   0.550  24.779  0.00  0.00    -0.299 N 
ATOM     23  C   UNL     1      -2.443   0.038  24.721  0.00  0.00    +0.110 C 
ENDROOT
BRANCH   3   4
ATOM      4  C   UNL     1      -3.087   3.069  24.907  0.00  0.00    +0.075 A 
ATOM      5  C   UNL     1      -3.462   3.365  24.233  0.00  0.00    +0.017 A 
ATOM      6  C   UNL     1      -4.064   3.924  24.309  0.00  0.00    +0.001 A 
ATOM      7  C   UNL     1      -4.291   4.188  25.057  0.00  0.00    +0.000 A 
ATOM      8  C   UNL     1      -3.917   3.892  25.729  0.00  0.00    +0.001 A 
ATOM      9  C   UNL     1      -3.315   3.333  25.655  0.00  0.00    +0.017 A 
ENDBRANCH   3   4
BRANCH  17  24
ATOM     24  C   UNL     1      -3.596  -1.508  24.750  0.00  0.00    +0.020 A 
ATOM     25  C   UNL     1      -3.754  -1.889  24.036  0.00  0.00    +0.003 A 
ATOM     26  C   UNL     1      -3.759  -2.714  24.000  0.00  0.00    +0.021 A 
ATOM     27  C   UNL     1      -3.608  -3.157  24.679  0.00  0.00    +0.099 A 
ATOM     28  N   UNL     1      -3.450  -2.776  25.393  0.00  0.00    -0.242 NA
ATOM     29  C   UNL     1      -3.444  -1.952  25.429  0.00  0.00    +0.099 A 
ENDBRANCH  17  24
TORSDOF 2
ENDMDL
MODEL 4
REMARK VINA RESULT:     -14.0      1.656      2.264
REMARK  Name = 
REMARK  2 active torsions:
REMARK  status: ('A' for Active; 'I' for Inactive)
REMARK    1  A    between atoms: N_3  and  C_4
REMARK    2  A    between atoms: C_17  and  C_24
REMARK                            x       y       z     vdW  Elec       q    Type
REMARK                         _______ _______ _______ _____ _____    ______ ____
ROOT
ATOM      1  O   UNL     1      -4.002  -0.066  24.592  0.00  0.00    -0.250 OA
ATOM      2  C   UNL     1      -3.468  -0.029  23.963  0.00  0.00    +0.327 C 
ATOM      3  N   UNL     1      -3.152  -0.723  23.649  0.00  0.00    -0.162 NA
ATOM     10  N   UNL     1      -3.251   0.702  23.647  0.00  0.00    -0.262 N 
ATOM     11  C   UNL     1      -2.867   1.253  23.151  0.00  0.00    +0.097 C 
ATOM     12  C   UNL     1      -3.238   2.093  23.517  0.00  0.00    +0.043 C 
ATOM     13  C   UNL     1      -3.448   2.858  23.700  0.00  0.00    +0.011 C 
ATOM     14  C   UNL     1      -3.597   2.211  23.928  0.00  0.00    +0.058 C 
ATOM     15  C   UNL     1      -3.229   1.409  23.563  0.00  0.00    +0.101 C 
ATOM     16  C   UNL     1      -4.100   1.766  24.555  0.00  0.00    +0.041 A 
ATOM     17  C   UNL     1      -4.632   1.909  25.168  0.00  0.00    +0.013 A 
ATOM     18  C   UNL     1      -4.950   1.277  25.593  0.00  0.00    +0.006 A 
ATOM     19  C   UNL     1      -4.736   0.503  25.405  0.00  0.00    +0.061 A 
ATOM     20  C   UNL     1      -4.203   0.360  24.792  0.00  0.00    +0.261 A 
ATOM     21  O   UNL     1      -4.151  -0.463  24.799  0.00  0.00    -0.267 OA
ATOM     22  N   UNL     1      -3.885   0.991  24.367  0.00  0.00    -0.299 N 
ATOM     23  C   UNL     1      -3.760   1.618  24.169  0.00  0.00    +0.110 C 
ENDROOT
BRANCH   3   4
ATOM      4  C   UNL     1      -3.370  -1.455  23.965  0.00  0.00    +0.075 A 
ATOM      5  C   UNL     1      -2.923  -1.791  24.572  0.00  0.00    +0.017 A 
ATOM      6  C   UNL     1      -3.141  -2.522  24.886  0.00  0.00    +0.001 A 
ATOM      7  C   UNL     1      -3.805  -2.917  24.594  0.00  0.00    +0.000 A 
ATOM      8  C   UNL     1      -4.250  -2.580  23.988  0.00  0.00    +0.001 A 
ATOM      9  C   UNL     1      -4.033  -1.849  23.672  0.00  0.00    +0.017 A 
ENDBRANCH   3   4
BRANCH  17  24
ATOM     24  C   UNL     1      -4.847   2.683  25.356  0.00  0.00    +0.020 A 
ATOM     25  C   UNL     1      -5.563   2.989  25.085  0.00  0.00    +0.003 A 
ATOM     26  C   UNL     1      -5.778   3.764  25.273  0.00  0.00    +0.021 A 
ATOM     27  C   UNL     1      -5.276   4.232  25.731  0.00  0.00    +0.099 A 
ATOM     28  N   UNL     1      -4.560   3.925  26.002  0.00  0.00    -0.242 NA
ATOM     29  C   UNL     1      -4.345   3.151  25.814  0.00  0.00    +0.099 A 
ENDBRANCH  17  24
TORSDOF 2
ENDMDL
MODEL 5
REMARK VINA RESULT:     -13.8      1.607      3.729
REMARK  Name = 
REMARK  2 active torsions:
REMARK  status: ('A' for Active; 'I' for Inactive)
REMARK    1  A    between atoms: N_3  and  C_4
REMARK    2  A    between atoms: C_17  and  C_24
REMARK                            x       y       z     vdW  Elec       q    Type
REMARK                         _______ _______ _______ _____ _____    ______ ____
ROOT
ATOM      1  O   UNL     1      -3.633   1.288  24.991  0.00  0.00    -0.250 OA
ATOM      2  C   UNL     1      -4.324   0.899  24.761  0.00  0.00    +0.327 C 
ATOM      3  N   UNL     1      -5.039   1.310  24.734  0.00  0.00    -0.162 NA
ATOM     10  N   UNL     1      -4.299   0.100  24.559  0.00  0.00    -0.262 N 
ATOM     11  C   UNL     1      -4.573  -0.651  24.313  0.00  0.00    +0.097 C 
ATOM     12  C   UNL     1      -3.723  -1.154  24.341  0.00  0.00    +0.043 C 
ATOM     13  C   UNL     1      -3.118  -1.699  24.313  0.00  0.00    +0.011 C 
ATOM     14  C   UNL     1      -3.198  -1.021  24.474  0.00  0.00    +0.058 C 
ATOM     15  C   UNL     1      -4.027  -0.548  24.442  0.00  0.00    +0.101 C 
ATOM     16  C   UNL     1      -2.722  -0.286  24.753  0.00  0.00    +0.041 A 
ATOM     17  C   UNL     1      -1.956  -0.058  24.955  0.00  0.00    +0.013 A 
ATOM     18  C   UNL     1      -1.804   0.720  25.185  0.00  0.00    +0.006 A 
ATOM     19  C   UNL     1      -2.419   1.270  25.213  0.00  0.00    +0.061 A 
ATOM     20  C   UNL     1      -3.185   1.042  25.011  0.00  0.00    +0.261 A 
ATOM     21  O   UNL     1      -3.606   1.743  25.114  0.00  0.00    -0.267 OA
ATOM     22  N   UNL     1      -3.337   0.264  24.781  0.00  0.00    -0.299 N 
ATOM     23  C   UNL     1      -3.234  -0.381  24.633  0.00  0.00    +0.110 C 
ENDROOT
BRANCH   3   4
ATOM      4  C   UNL     1      -5.063   2.109  24.937  0.00  0.00    +0.075 A 
ATOM      5  C   UNL     1      -4.856   2.683  24.381  0.00  0.00    +0.017 A 
ATOM      6  C   UNL     1      -4.881   3.482  24.584  0.00  0.00    +0.001 A 
ATOM      7  C   UNL     1      -5.113   3.708  25.343  0.00  0.00    +0.000 A 
ATOM      8  C   UNL     1      -5.320   3.135  25.899  0.00  0.00    +0.001 A 
ATOM      9  C   UNL     1      -5.295   2.336  25.696  0.00  0.00    +0.017 A 
ENDBRANCH   3   4
BRANCH  17  24
ATOM     24  C   UNL     1      -1.341  -0.607  24.928  0.00  0.00    +0.020 A 
ATOM     25  C   UNL     1      -1.181  -1.080  25.584  0.00  0.00    +0.003 A 
ATOM     26  C   UNL     1      -0.566  -1.630  25.556  0.00  0.00    +0.021 A 
ATOM     27  C   UNL     1      -0.111  -1.707  24.872  0.00  0.00    +0.099 A 
ATOM     28  N   UNL     1      -0.272  -1.234  24.216  0.00  0.00    -0.242 NA
ATOM     29  C   UNL     1      -0.886  -0.684  24.243  0.00  0.00    +0.099 A 
ENDBRANCH  17  24
TORSDOF 2
ENDMDL
