MODEL 1
REMARK VINA RESULT:     -12.7      0.000      0.000
REMARK  Name = 
REMARK  7 active torsions:
REMARK  status: ('A' for Active; 'I' for Inactive)
REMARK    1  A    between atoms: C_2  and  C_3
REMARK    2  A    between atoms: C_3  and  S_4
REMARK    3  A    between atoms: S_4  and  N_7
REMARK    4  A    between atoms: N_7  and  C_8
REMARK    5  A    between atoms: C_18  and  C_20
REMARK    6  A    between atoms: C_20  and  O_21
REMARK    7  A    between atoms: O_21  and  C_22
REMARK                            x       y       z     vdW  Elec       q    Type
REMARK                         _______ _______ _______ _____ _____    ______ ____
ROOT
ATOM      8  C   UNL     1      -2.924   1.841  24.737  0.00  0.00    +0.147 A 
ATOM      9  C   UNL     1      -2.813   2.646  24.880  0.00  0.00    +0.024 A 
ATOM     10  C   UNL     1      -3.454   3.120  25.091  0.00  0.00    +0.014 A 
ATOM     11  C   UNL     1      -4.206   2.788  25.159  0.00  0.00    +0.041 A 
ATOM     12  C   UNL     1      -5.072   3.020  25.362  0.00  0.00    +0.058 C 
ATOM     13  C   UNL     1      -5.467   3.571  25.544  0.00  0.00    +0.011 C 
ATOM     14  C   UNL     1      -5.572   2.776  25.402  0.00  0.00    +0.043 C 
ATOM     15  C   UNL     1      -5.898   1.852  25.273  0.00  0.00    +0.095 C 
ATOM     16  N   UNL     1      -5.180   1.478  25.068  0.00  0.00    -0.276 N 
ATOM     17  C   UNL     1      -5.403   2.132  25.241  0.00  0.00    +0.099 C 
ATOM     18  C   UNL     1      -4.662   0.873  24.853  0.00  0.00    +0.270 C 
ATOM     19  O   UNL     1      -4.944   0.105  24.748  0.00  0.00    -0.271 OA
ATOM     28  C   UNL     1      -4.671   2.525  25.189  0.00  0.00    +0.110 C 
ATOM     29  N   UNL     1      -4.317   1.983  25.016  0.00  0.00    -0.298 N 
ATOM     30  C   UNL     1      -3.676   1.510  24.805  0.00  0.00    +0.277 A 
ATOM     31  O   UNL     1      -3.293   0.811  24.594  0.00  0.00    -0.266 OA
ENDROOT
BRANCH   8   7
ATOM      7  N   UNL     1      -2.282   1.368  24.526  0.00  0.00    -0.096 NA
BRANCH   7   4
ATOM      4  S   UNL     1      -1.532   1.701  24.446  0.00  0.00    +0.073 S 
ATOM      5  O   UNL     1      -1.678   1.839  23.646  0.00  0.00    -0.153 OA
ATOM      6  O   UNL     1      -1.385   1.564  25.246  0.00  0.00    -0.153 OA
BRANCH   4   3
ATOM      3  C   UNL     1      -0.781   2.035  24.365  0.00  0.00    +0.174 C 
BRANCH   3   2
ATOM      1  C   UNL     1       0.631   1.883  24.207  0.00  0.00    +0.002 C 
ATOM      2  C   UNL     1      -0.121   1.550  24.269  0.00  0.00    +0.027 C 
ENDBRANCH   3   2
ENDBRANCH   4   3
ENDBRANCH   7   4
ENDBRANCH   8   7
BRANCH  18  20
ATOM     20  C   UNL     1      -3.860   1.036  24.742  0.00  0.00    +0.290 C 
BRANCH  20  21
ATOM     21  O   UNL     1      -3.364   0.463  24.416  0.00  0.00    -0.466 OA
BRANCH  21  22
ATOM     22  C   UNL     1      -3.514  -0.337  24.548  0.00  0.00    +0.139 A 
ATOM     23  C   UNL     1      -3.825  -0.803  23.942  0.00  0.00    +0.037 A 
ATOM     24  C   UNL     1      -3.976  -1.604  24.073  0.00  0.00    +0.003 A 
ATOM     25  C   UNL     1      -3.816  -1.938  24.810  0.00  0.00    +0.000 A 
ATOM     26  C   UNL     1      -3.505  -1.472  25.416  0.00  0.00    +0.003 A 
ATOM     27  C   UNL     1      -3.354  -0.672  25.284  0.00  0.00    +0.037 A 
ENDBRANCH  21  22
ENDBRANCH  20  21
ENDBRANCH  18  20
TORSDOF 7
ENDMDL
MODEL 2
REMARK VINA RESULT:     -12.3      1.007      2.979
REMARK  Name = 
REMARK  7 active torsions:
REMARK  status: ('A' for Active; 'I' for Inactive)
REMARK    1  A    between atoms: C_2  and  C_3
REMARK    2  A    between atoms: C_3  and  S_4
REMARK    3  A    between atoms: S_4  and  N_7
REMARK    4  A    between atoms: N_7  and  C_8
REMARK    5  A    between atoms: C_18  and  C_20
REMARK    6  A    between atoms: C_20  and  O_21
REMARK    7  A    between atoms: O_21  and  C_22
REMARK                            x       y       z     vdW  Elec       q    Type
REMARK                         _______ _______ _______ _____ _____    ______ ____
ROOT
ATOM      8  C   UNL     1      -3.857   0.842  24.791  0.00  0.00    +0.147 A 
ATOM      9  C   UNL     1      -4.658   0.717  24.946  0.00  0.00    +0.024 A 
ATOM     10  C   UNL     1      -5.145   1.353  25.144  0.00  0.00    +0.014 A 
ATOM     11  C   UNL     1      -4.830   2.114  25.188  0.00  0.00    +0.041 A 
ATOM     12  C   UNL     1      -5.079   2.980  25.369  0.00  0.00    +0.058 C 
ATOM     13  C   UNL     1      -5.638   3.366  25.546  0.00  0.00    +0.011 C 
ATOM     14  C   UNL     1      -4.847   3.486  25.393  0.00  0.00    +0.043 C 
ATOM     15  C   UNL     1      -3.932   3.829  25.246  0.00  0.00    +0.095 C 
ATOM     16  N   UNL     1      -3.543   3.114  25.057  0.00  0.00    -0.276 N 
ATOM     17  C   UNL     1      -4.201   3.326  25.230  0.00  0.00    +0.099 C 
ATOM     18  C   UNL     1      -2.929   2.604  24.849  0.00  0.00    +0.270 C 
ATOM     19  O   UNL     1      -2.169   2.901  24.729  0.00  0.00    -0.271 OA
ATOM     28  C   UNL     1      -4.577   2.584  25.203  0.00  0.00    +0.110 C 
ATOM     29  N   UNL     1      -4.029   2.239  25.033  0.00  0.00    -0.298 N 
ATOM     30  C   UNL     1      -3.543   1.603  24.835  0.00  0.00    +0.277 A 
ATOM     31  O   UNL     1      -2.837   1.230  24.628  0.00  0.00    -0.266 OA
ENDROOT
BRANCH   8   7
ATOM      7  N   UNL     1      -3.372   0.205  24.593  0.00  0.00    -0.096 NA
BRANCH   7   4
ATOM      4  S   UNL     1      -3.692  -0.551  24.521  0.00  0.00    +0.073 S 
ATOM      5  O   UNL     1      -3.821  -0.421  23.717  0.00  0.00    -0.153 OA
ATOM      6  O   UNL     1      -3.563  -0.682  25.325  0.00  0.00    -0.153 OA
BRANCH   4   3
ATOM      3  C   UNL     1      -4.012  -1.309  24.449  0.00  0.00    +0.174 C 
BRANCH   3   2
ATOM      1  C   UNL     1      -3.836  -2.715  24.260  0.00  0.00    +0.002 C 
ATOM      2  C   UNL     1      -3.517  -1.956  24.317  0.00  0.00    +0.027 C 
ENDBRANCH   3   2
ENDBRANCH   4   3
ENDBRANCH   7   4
ENDBRANCH   8   7
BRANCH  18  20
ATOM     20  C   UNL     1      -3.075   1.796  24.762  0.00  0.00    +0.290 C 
BRANCH  20  21
ATOM     21  O   UNL     1      -2.477   1.296  24.491  0.00  0.00    -0.466 OA
BRANCH  21  22
ATOM     22  C   UNL     1      -1.687   1.474  24.645  0.00  0.00    +0.139 A 
ATOM     23  C   UNL     1      -1.201   1.753  24.039  0.00  0.00    +0.037 A 
ATOM     24  C   UNL     1      -0.410   1.931  24.192  0.00  0.00    +0.003 A 
ATOM     25  C   UNL     1      -0.106   1.831  24.952  0.00  0.00    +0.000 A 
ATOM     26  C   UNL     1      -0.592   1.553  25.559  0.00  0.00    +0.003 A 
ATOM     27  C   UNL     1      -1.382   1.375  25.404  0.00  0.00    +0.037 A 
ENDBRANCH  21  22
ENDBRANCH  20  21
ENDBRANCH  18  20
TORSDOF 7
ENDMDL
MODEL 3
REMARK VINA RESULT:     -12.0      1.336      4.034
REMARK  Name = 
REMARK  7 active torsions:
REMARK  status: ('A' for Active; 'I' for Inactive)
REMARK    1  A    between atoms: C_2  and  C_3
REMARK    2  A    between atoms: C_3  and  S_4
REMARK    3  A    between atoms: S_4  and  N_7
REMARK    4  A    between atoms: N_7  and  C_8
REMARK    5  A    between atoms: C_18  and  C_20
REMARK    6  A    between atoms: C_20  and  O_21
REMARK    7  A    between atoms: O_21  and  C_22
REMARK                            x       y       z     vdW  Elec       q    Type
REMARK                         _______ _______ _______ _____ _____    ______ ____
ROOT
ATOM      8  C   UNL     1      -3.484   0.460  24.679  0.00  0.00    +0.147 A 
ATOM      9  C   UNL     1      -4.208   0.065  24.693  0.00  0.00    +0.024 A 
ATOM     10  C   UNL     1      -4.230  -0.759  24.679  0.00  0.00    +0.014 A 
ATOM     11  C   UNL     1      -3.526  -1.190  24.652  0.00  0.00    +0.041 A 
ATOM     12  C   UNL     1      -3.220  -2.056  24.628  0.00  0.00    +0.058 C 
ATOM     13  C   UNL     1      -3.447  -2.720  24.623  0.00  0.00    +0.011 C 
ATOM     14  C   UNL     1      -2.733  -2.327  24.609  0.00  0.00    +0.043 C 
ATOM     15  C   UNL     1      -1.788  -2.041  24.587  0.00  0.00    +0.095 C 
ATOM     16  N   UNL     1      -1.892  -1.212  24.604  0.00  0.00    -0.276 N 
ATOM     17  C   UNL     1      -2.302  -1.795  24.606  0.00  0.00    +0.099 C 
ATOM     18  C   UNL     1      -1.693  -0.411  24.612  0.00  0.00    +0.270 C 
ATOM     19  O   UNL     1      -0.900  -0.184  24.593  0.00  0.00    -0.271 OA
ATOM     28  C   UNL     1      -3.044  -1.419  24.634  0.00  0.00    +0.110 C 
ATOM     29  N   UNL     1      -2.802  -0.795  24.638  0.00  0.00    -0.298 N 
ATOM     30  C   UNL     1      -2.780   0.029  24.651  0.00  0.00    +0.277 A 
ATOM     31  O   UNL     1      -2.426   0.774  24.654  0.00  0.00    -0.266 OA
ENDROOT
BRANCH   8   7
ATOM      7  N   UNL     1      -3.463   1.284  24.692  0.00  0.00    -0.096 NA
BRANCH   7   4
ATOM      4  S   UNL     1      -4.164   1.713  24.758  0.00  0.00    +0.073 S 
ATOM      5  O   UNL     1      -4.198   1.784  23.937  0.00  0.00    -0.153 OA
ATOM      6  O   UNL     1      -4.130   1.643  25.579  0.00  0.00    -0.153 OA
BRANCH   4   3
ATOM      3  C   UNL     1      -4.866   2.143  24.823  0.00  0.00    +0.174 C 
BRANCH   3   2
ATOM      1  C   UNL     1      -5.540   3.290  25.345  0.00  0.00    +0.002 C 
ATOM      2  C   UNL     1      -4.848   2.926  25.083  0.00  0.00    +0.027 C 
ENDBRANCH   3   2
ENDBRANCH   4   3
ENDBRANCH   7   4
ENDBRANCH   8   7
BRANCH  18  20
ATOM     20  C   UNL     1      -2.286   0.162  24.639  0.00  0.00    +0.290 C 
BRANCH  20  21
ATOM     21  O   UNL     1      -2.104   0.951  24.484  0.00  0.00    -0.466 OA
BRANCH  21  22
ATOM     22  C   UNL     1      -1.371   1.257  24.704  0.00  0.00    +0.139 A 
ATOM     23  C   UNL     1      -0.811   1.442  24.126  0.00  0.00    +0.037 A 
ATOM     24  C   UNL     1      -0.077   1.749  24.345  0.00  0.00    +0.003 A 
ATOM     25  C   UNL     1       0.097   1.870  25.142  0.00  0.00    +0.000 A 
ATOM     26  C   UNL     1      -0.463   1.685  25.720  0.00  0.00    +0.003 A 
ATOM     27  C   UNL     1      -1.196   1.378  25.500  0.00  0.00    +0.037 A 
ENDBRANCH  21  22
ENDBRANCH  20  21
ENDBRANCH  18  20
TORSDOF 7
ENDMDL
MODEL 4
REMARK VINA RESULT:     -11.5      1.356      3.636
REMARK  Name = 
REMARK  7 active torsions:
REMARK  status: ('A' for Active; 'I' for Inactive)
REMARK    1  A    between atoms: C_2  and  C_3
REMARK    2  A    between atoms: C_3  and  S_4
REMARK    3  A    between atoms: S_4  and  N_7
REMARK    4  A    between atoms: N_7  and  C_8
REMARK    5  A    between atoms: C_18  and  C_20
REMARK    6  A    between atoms: C_20  and  O_21
REMARK    7  A    between atoms: O_21  and  C_22
REMARK                            x       y       z     vdW  Elec       q    Type
REMARK                         _______ _______ _______ _____ _____    ______ ____
ROOT
ATOM      8  C   UNL     1      -2.315   0.575  25.073  0.00  0.00    +0.147 A 
ATOM      9  C   UNL     1      -1.614   0.192  25.281  0.00  0.00    +0.024 A 
ATOM     10  C   UNL     1      -0.958   0.632  25.521  0.00  0.00    +0.014 A 
ATOM     11  C   UNL     1      -1.004   1.455  25.553  0.00  0.00    +0.041 A 
ATOM     12  C   UNL     1      -0.493   2.190  25.763  0.00  0.00    +0.058 C 
ATOM     13  C   UNL     1       0.148   2.370  25.983  0.00  0.00    +0.011 C 
ATOM     14  C   UNL     1      -0.545   2.745  25.778  0.00  0.00    +0.043 C 
ATOM     15  C   UNL     1      -1.281   3.371  25.573  0.00  0.00    +0.095 C 
ATOM     16  N   UNL     1      -1.872   2.825  25.348  0.00  0.00    -0.276 N 
ATOM     17  C   UNL     1      -1.195   2.808  25.569  0.00  0.00    +0.099 C 
ATOM     18  C   UNL     1      -2.605   2.546  25.092  0.00  0.00    +0.270 C 
ATOM     19  O   UNL     1      -3.212   3.078  24.924  0.00  0.00    -0.271 OA
ATOM     28  C   UNL     1      -1.086   1.983  25.557  0.00  0.00    +0.110 C 
ATOM     29  N   UNL     1      -1.704   1.838  25.346  0.00  0.00    -0.298 N 
ATOM     30  C   UNL     1      -2.360   1.398  25.106  0.00  0.00    +0.277 A 
ATOM     31  O   UNL     1      -3.133   1.279  24.846  0.00  0.00    -0.266 OA
ENDROOT
BRANCH   8   7
ATOM      7  N   UNL     1      -2.969   0.135  24.834  0.00  0.00    -0.096 NA
BRANCH   7   4
ATOM      4  S   UNL     1      -2.921  -0.688  24.793  0.00  0.00    +0.073 S 
ATOM      5  O   UNL     1      -3.153  -0.740  25.583  0.00  0.00    -0.153 OA
ATOM      6  O   UNL     1      -2.690  -0.635  24.003  0.00  0.00    -0.153 OA
BRANCH   4   3
ATOM      3  C   UNL     1      -2.873  -1.511  24.752  0.00  0.00    +0.174 C 
BRANCH   3   2
ATOM      1  C   UNL     1      -3.497  -2.778  24.532  0.00  0.00    +0.002 C 
ATOM      2  C   UNL     1      -3.544  -1.955  24.567  0.00  0.00    +0.027 C 
ENDBRANCH   3   2
ENDBRANCH   4   3
ENDBRANCH   7   4
ENDBRANCH   8   7
BRANCH  18  20
ATOM     20  C   UNL     1      -2.731   1.735  25.004  0.00  0.00    +0.290 C 
BRANCH  20  21
ATOM     21  O   UNL     1      -3.433   1.461  24.671  0.00  0.00    -0.466 OA
BRANCH  21  22
ATOM     22  C   UNL     1      -4.136   1.876  24.788  0.00  0.00    +0.139 A 
ATOM     23  C   UNL     1      -4.438   2.355  24.187  0.00  0.00    +0.037 A 
ATOM     24  C   UNL     1      -5.141   2.770  24.303  0.00  0.00    +0.003 A 
ATOM     25  C   UNL     1      -5.543   2.707  25.021  0.00  0.00    +0.000 A 
ATOM     26  C   UNL     1      -5.241   2.228  25.622  0.00  0.00    +0.003 A 
ATOM     27  C   UNL     1      -4.539   1.813  25.505  0.00  0.00    +0.037 A 
ENDBRANCH  21  22
ENDBRANCH  20  21
ENDBRANCH  18  20
TORSDOF 7
ENDMDL
MODEL 5
REMARK VINA RESULT:     -11.5      1.164      3.226
REMARK  Name = 
REMARK  7 active torsions:
REMARK  status: ('A' for Active; 'I' for Inactive)
REMARK    1  A    between atoms: C_2  and  C_3
REMARK    2  A    between atoms: C_3  and  S_4
REMARK    3  A    between atoms: S_4  and  N_7
REMARK    4  A    between atoms: N_7  and  C_8
REMARK    5  A    between atoms: C_18  and  C_20
REMARK    6  A    between atoms: C_20  and  O_21
REMARK    7  A    between atoms: O_21  and  C_22
REMARK                            x       y       z     vdW  Elec       q    Type
REMARK                         _______ _______ _______ _____ _____    ______ ____
ROOT
ATOM      8  C   UNL     1      -2.206   0.237  24.903  0.00  0.00    +0.147 A 
ATOM      9  C   UNL     1      -1.621  -0.330  25.034  0.00  0.00    +0.024 A 
ATOM     10  C   UNL     1      -1.789  -1.130  24.924  0.00  0.00    +0.014 A 
ATOM     11  C   UNL     1      -2.543  -1.363  24.683  0.00  0.00    +0.041 A 
ATOM     12  C   UNL     1      -3.026  -2.119  24.483  0.00  0.00    +0.058 C 
ATOM     13  C   UNL     1      -2.966  -2.817  24.449  0.00  0.00    +0.011 C 
ATOM     14  C   UNL     1      -3.541  -2.255  24.320  0.00  0.00    +0.043 C 
ATOM     15  C   UNL     1      -4.357  -1.736  24.117  0.00  0.00    +0.095 C 
ATOM     16  N   UNL     1      -4.071  -0.964  24.260  0.00  0.00    -0.276 N 
ATOM     17  C   UNL     1      -3.822  -1.631  24.284  0.00  0.00    +0.099 C 
ATOM     18  C   UNL     1      -4.074  -0.141  24.321  0.00  0.00    +0.270 C 
ATOM     19  O   UNL     1      -4.760   0.282  24.149  0.00  0.00    -0.271 OA
ATOM     28  C   UNL     1      -3.045  -1.460  24.527  0.00  0.00    +0.110 C 
ATOM     29  N   UNL     1      -3.128  -0.796  24.552  0.00  0.00    -0.298 N 
ATOM     30  C   UNL     1      -2.960   0.004  24.662  0.00  0.00    +0.277 A 
ATOM     31  O   UNL     1      -3.120   0.812  24.676  0.00  0.00    -0.266 OA
ENDROOT
BRANCH   8   7
ATOM      7  N   UNL     1      -2.037   1.036  25.014  0.00  0.00    -0.096 NA
BRANCH   7   4
ATOM      4  S   UNL     1      -1.275   1.272  25.224  0.00  0.00    +0.073 S 
ATOM      5  O   UNL     1      -1.086   1.373  24.427  0.00  0.00    -0.153 OA
ATOM      6  O   UNL     1      -1.464   1.171  26.020  0.00  0.00    -0.153 OA
BRANCH   4   3
ATOM      3  C   UNL     1      -0.512   1.508  25.434  0.00  0.00    +0.174 C 
BRANCH   3   2
ATOM      1  C   UNL     1       0.349   2.493  26.008  0.00  0.00    +0.002 C 
ATOM      2  C   UNL     1      -0.369   2.290  25.656  0.00  0.00    +0.027 C 
ENDBRANCH   3   2
ENDBRANCH   4   3
ENDBRANCH   7   4
ENDBRANCH   8   7
BRANCH  18  20
ATOM     20  C   UNL     1      -3.390   0.258  24.554  0.00  0.00    +0.290 C 
BRANCH  20  21
ATOM     21  O   UNL     1      -3.368   1.082  24.536  0.00  0.00    -0.466 OA
BRANCH  21  22
ATOM     22  C   UNL     1      -4.053   1.517  24.680  0.00  0.00    +0.139 A 
ATOM     23  C   UNL     1      -4.364   2.003  24.089  0.00  0.00    +0.037 A 
ATOM     24  C   UNL     1      -5.051   2.439  24.232  0.00  0.00    +0.003 A 
ATOM     25  C   UNL     1      -5.425   2.389  24.965  0.00  0.00    +0.000 A 
ATOM     26  C   UNL     1      -5.114   1.903  25.555  0.00  0.00    +0.003 A 
ATOM     27  C   UNL     1      -4.429   1.468  25.412  0.00  0.00    +0.037 A 
ENDBRANCH  21  22
ENDBRANCH  20  21
ENDBRANCH  18  20
TORSDOF 7
ENDMDL
MODEL 6
REMARK VINA RESULT:     -11.5      1.108      3.504
REMARK  Name = 
REMARK  7 active torsions:
REMARK  status: ('A' for Active; 'I' for Inactive)
REMARK    1  A    between atoms: C_2  and  C_3
REMARK    2  A    between atoms: C_3  and  S_4
REMARK    3  A    between atoms: S_4  and  N_7
REMARK    4  A    between atoms: N_7  and  C_8
REMARK    5  A    between atoms: C_18  and  C_20
REMARK    6  A    between atoms: C_20  and  O_21
REMARK    7  A    between atoms: O_21  and  C_22
REMARK                            x       y       z     vdW  Elec       q    Type
REMARK                         _______ _______ _______ _____ _____    ______ ____
ROOT
ATOM      8  C   UNL     1      -2.844   1.393  24.611  0.00  0.00    +0.147 A 
ATOM      9  C   UNL     1      -2.527   2.147  24.508  0.00  0.00    +0.024 A 
ATOM     10  C   UNL     1      -1.722   2.239  24.350  0.00  0.00    +0.014 A 
ATOM     11  C   UNL     1      -1.235   1.575  24.295  0.00  0.00    +0.041 A 
ATOM     12  C   UNL     1      -0.359   1.344  24.141  0.00  0.00    +0.058 C 
ATOM     13  C   UNL     1       0.269   1.626  24.006  0.00  0.00    +0.011 C 
ATOM     14  C   UNL     1      -0.048   0.882  24.108  0.00  0.00    +0.043 C 
ATOM     15  C   UNL     1      -0.239  -0.083  24.199  0.00  0.00    +0.095 C 
ATOM     16  N   UNL     1      -1.059  -0.049  24.353  0.00  0.00    -0.276 N 
ATOM     17  C   UNL     1      -0.528   0.408  24.226  0.00  0.00    +0.099 C 
ATOM     18  C   UNL     1      -1.824  -0.316  24.514  0.00  0.00    +0.270 C 
ATOM     19  O   UNL     1      -1.972  -1.124  24.587  0.00  0.00    -0.271 OA
ATOM     28  C   UNL     1      -0.965   1.114  24.270  0.00  0.00    +0.110 C 
ATOM     29  N   UNL     1      -1.553   0.821  24.398  0.00  0.00    -0.298 N 
ATOM     30  C   UNL     1      -2.357   0.729  24.556  0.00  0.00    +0.277 A 
ATOM     31  O   UNL     1      -3.052   0.314  24.712  0.00  0.00    -0.266 OA
ENDROOT
BRANCH   8   7
ATOM      7  N   UNL     1      -3.648   1.302  24.770  0.00  0.00    -0.096 NA
BRANCH   7   4
ATOM      4  S   UNL     1      -4.130   1.967  24.855  0.00  0.00    +0.073 S 
ATOM      5  O   UNL     1      -3.961   1.985  25.662  0.00  0.00    -0.153 OA
ATOM      6  O   UNL     1      -4.298   1.949  24.048  0.00  0.00    -0.153 OA
BRANCH   4   3
ATOM      3  C   UNL     1      -4.611   2.632  24.942  0.00  0.00    +0.174 C 
BRANCH   3   2
ATOM      1  C   UNL     1      -5.760   3.237  25.539  0.00  0.00    +0.002 C 
ATOM      2  C   UNL     1      -5.352   2.562  25.297  0.00  0.00    +0.027 C 
ENDBRANCH   3   2
ENDBRANCH   4   3
ENDBRANCH   7   4
ENDBRANCH   8   7
BRANCH  18  20
ATOM     20  C   UNL     1      -2.440   0.226  24.600  0.00  0.00    +0.290 C 
BRANCH  20  21
ATOM     21  O   UNL     1      -3.176  -0.027  24.872  0.00  0.00    -0.466 OA
BRANCH  21  22
ATOM     22  C   UNL     1      -3.427  -0.799  24.728  0.00  0.00    +0.139 A 
ATOM     23  C   UNL     1      -3.367  -1.370  25.321  0.00  0.00    +0.037 A 
ATOM     24  C   UNL     1      -3.619  -2.143  25.177  0.00  0.00    +0.003 A 
ATOM     25  C   UNL     1      -3.929  -2.344  24.440  0.00  0.00    +0.000 A 
ATOM     26  C   UNL     1      -3.988  -1.774  23.847  0.00  0.00    +0.003 A 
ATOM     27  C   UNL     1      -3.737  -1.002  23.991  0.00  0.00    +0.037 A 
ENDBRANCH  21  22
ENDBRANCH  20  21
ENDBRANCH  18  20
TORSDOF 7
ENDMDL
