MODEL 1
REMARK VINA RESULT:     -11.8      0.000      0.000
REMARK  Name = 
REMARK  6 active torsions:
REMARK  status: ('A' for Active; 'I' for Inactive)
REMARK    1  A    between atoms: O_2  and  C_3
REMARK    2  A    between atoms: C_9  and  C_10
REMARK    3  A    between atoms: C_10  and  C_11
REMARK    4  A    between atoms: C_16  and  C_17
REMARK    5  A    between atoms: C_17  and  C_18
REMARK    6  A    between atoms: C_21  and  C_23
REMARK                            x       y       z     vdW  Elec       q    Type
REMARK                         _______ _______ _______ _____ _____    ______ ____
ROOT
ATOM     11  C   UNL     1      -3.714   1.245  24.868  0.00  0.00    +0.026 C 
ATOM     12  C   UNL     1      -3.202   0.601  24.828  0.00  0.00    +0.094 C 
ATOM     13  N   UNL     1      -3.504  -0.166  24.802  0.00  0.00    -0.280 N 
ATOM     14  C   UNL     1      -4.320  -0.288  24.817  0.00  0.00    +0.093 C 
ATOM     15  C   UNL     1      -4.833   0.356  24.858  0.00  0.00    +0.022 C 
ATOM     16  C   UNL     1      -4.531   1.123  24.884  0.00  0.00    +0.015 C 
ATOM     21  C   UNL     1      -2.991  -0.811  24.761  0.00  0.00    +0.225 C 
ATOM     22  O   UNL     1      -2.175  -0.688  24.746  0.00  0.00    -0.275 OA
ENDROOT
BRANCH  21  23
ATOM     23  C   UNL     1      -3.294  -1.578  24.736  0.00  0.00    +0.077 C 
ATOM     24  C   UNL     1      -3.349  -2.099  25.373  0.00  0.00    +0.009 C 
ATOM     25  C   UNL     1      -3.684  -2.802  25.101  0.00  0.00    +0.001 C 
ATOM     26  C   UNL     1      -3.836  -2.715  24.294  0.00  0.00    +0.001 C 
ATOM     27  C   UNL     1      -3.595  -1.959  24.069  0.00  0.00    +0.009 C 
ENDBRANCH  21  23
BRANCH  11  10
ATOM     10  C   UNL     1      -3.413   2.012  24.894  0.00  0.00    +0.047 C 
BRANCH  10   9
ATOM      3  C   UNL     1      -1.182   3.979  24.984  0.00  0.00    +0.138 A 
ATOM      4  C   UNL     1      -1.155   3.636  24.234  0.00  0.00    +0.033 A 
ATOM      5  C   UNL     1      -1.706   3.059  24.023  0.00  0.00    -0.016 A 
ATOM      6  C   UNL     1      -2.284   2.824  24.564  0.00  0.00    +0.009 A 
ATOM      7  C   UNL     1      -2.311   3.167  25.314  0.00  0.00    +0.004 A 
ATOM      8  C   UNL     1      -1.760   3.744  25.525  0.00  0.00    +0.037 A 
ATOM      9  C   UNL     1      -2.835   2.247  24.354  0.00  0.00    +0.053 C 
ATOM     28  N   UNL     1      -2.808   1.905  23.604  0.00  0.00    -0.274 NA
ATOM     29  C   UNL     1      -2.230   2.140  23.064  0.00  0.00    +0.130 C 
ATOM     30  C   UNL     1      -1.679   2.717  23.274  0.00  0.00    +0.053 C 
BRANCH   3   2
ATOM      1  C   UNL     1      -0.753   5.341  24.976  0.00  0.00    +0.252 C 
ATOM      2  O   UNL     1      -0.631   4.556  25.194  0.00  0.00    -0.471 OA
ENDBRANCH   3   2
ENDBRANCH  10   9
ENDBRANCH  11  10
BRANCH  16  17
ATOM     17  C   UNL     1      -5.044   1.768  24.924  0.00  0.00    +0.114 C 
BRANCH  17  18
ATOM     18  C   UNL     1      -5.813   1.665  25.202  0.00  0.00    +0.365 C 
ATOM     19  O   UNL     1      -6.429   1.524  24.671  0.00  0.00    -0.246 OA
ATOM     20  O   UNL     1      -5.968   1.703  26.013  0.00  0.00    -0.246 OA
ENDBRANCH  17  18
ENDBRANCH  16  17
TORSDOF 6
ENDMDL
MODEL 2
REMARK VINA RESULT:     -11.7      1.165      4.612
REMARK  Name = 
REMARK  6 active torsions:
REMARK  status: ('A' for Active; 'I' for Inactive)
REMARK    1  A    between atoms: O_2  and  C_3
REMARK    2  A    between atoms: C_9  and  C_10
REMARK    3  A    between atoms: C_10  and  C_11
REMARK    4  A    between atoms: C_16  and  C_17
REMARK    5  A    between atoms: C_17  and  C_18
REMARK    6  A    between atoms: C_21  and  C_23
REMARK                            x       y       z     vdW  Elec       q    Type
REMARK                         _______ _______ _______ _____ _____    ______ ____
ROOT
ATOM     11  C   UNL     1      -3.746   2.007  25.134  0.00  0.00    +0.026 C 
ATOM     12  C   UNL     1      -2.933   2.125  25.079  0.00  0.00    +0.094 C 
ATOM     13  N   UNL     1      -2.628   2.893  25.059  0.00  0.00    -0.280 N 
ATOM     14  C   UNL     1      -3.138   3.539  25.093  0.00  0.00    +0.093 C 
ATOM     15  C   UNL     1      -3.952   3.421  25.148  0.00  0.00    +0.022 C 
ATOM     16  C   UNL     1      -4.257   2.655  25.168  0.00  0.00    +0.015 C 
ATOM     21  C   UNL     1      -1.813   3.012  25.004  0.00  0.00    +0.225 C 
ATOM     22  O   UNL     1      -1.304   2.363  24.970  0.00  0.00    -0.275 OA
ENDROOT
BRANCH  21  23
ATOM     23  C   UNL     1      -1.509   3.777  24.984  0.00  0.00    +0.077 C 
ATOM     24  C   UNL     1      -1.057   4.104  24.375  0.00  0.00    +0.009 C 
ATOM     25  C   UNL     1      -0.871   4.881  24.583  0.00  0.00    +0.001 C 
ATOM     26  C   UNL     1      -1.209   5.034  25.320  0.00  0.00    +0.001 C 
ATOM     27  C   UNL     1      -1.603   4.353  25.567  0.00  0.00    +0.009 C 
ENDBRANCH  21  23
BRANCH  11  10
ATOM     10  C   UNL     1      -4.051   1.240  25.154  0.00  0.00    +0.047 C 
BRANCH  10   9
ATOM      3  C   UNL     1      -3.538  -1.690  25.145  0.00  0.00    +0.138 A 
ATOM      4  C   UNL     1      -3.434  -1.436  24.366  0.00  0.00    +0.033 A 
ATOM      5  C   UNL     1      -3.536  -0.641  24.174  0.00  0.00    -0.016 A 
ATOM      6  C   UNL     1      -3.743  -0.097  24.760  0.00  0.00    +0.009 A 
ATOM      7  C   UNL     1      -3.847  -0.351  25.539  0.00  0.00    +0.004 A 
ATOM      8  C   UNL     1      -3.745  -1.147  25.731  0.00  0.00    +0.037 A 
ATOM      9  C   UNL     1      -3.845   0.698  24.568  0.00  0.00    +0.053 C 
ATOM     28  N   UNL     1      -3.740   0.951  23.791  0.00  0.00    -0.274 NA
ATOM     29  C   UNL     1      -3.533   0.408  23.204  0.00  0.00    +0.130 C 
ATOM     30  C   UNL     1      -3.431  -0.387  23.396  0.00  0.00    +0.053 C 
BRANCH   3   2
ATOM      1  C   UNL     1      -3.505  -3.063  24.753  0.00  0.00    +0.252 C 
ATOM      2  O   UNL     1      -3.436  -2.485  25.337  0.00  0.00    -0.471 OA
ENDBRANCH   3   2
ENDBRANCH  10   9
ENDBRANCH  11  10
BRANCH  16  17
ATOM     17  C   UNL     1      -5.071   2.536  25.223  0.00  0.00    +0.114 C 
BRANCH  17  18
ATOM     18  C   UNL     1      -5.534   3.052  25.668  0.00  0.00    +0.365 C 
ATOM     19  O   UNL     1      -5.721   2.870  26.451  0.00  0.00    -0.246 OA
ATOM     20  O   UNL     1      -5.812   3.753  25.331  0.00  0.00    -0.246 OA
ENDBRANCH  17  18
ENDBRANCH  16  17
TORSDOF 6
ENDMDL
MODEL 3
REMARK VINA RESULT:     -11.3      1.803      2.982
REMARK  Name = 
REMARK  6 active torsions:
REMARK  status: ('A' for Active; 'I' for Inactive)
REMARK    1  A    between atoms: O_2  and  C_3
REMARK    2  A    between atoms: C_9  and  C_10
REMARK    3  A    between atoms: C_10  and  C_11
REMARK    4  A    between atoms: C_16  and  C_17
REMARK    5  A    between atoms: C_17  and  C_18
REMARK    6  A    between atoms: C_21  and  C_23
REMARK                            x       y       z     vdW  Elec       q    Type
REMARK                         _______ _______ _______ _____ _____    ______ ____
ROOT
ATOM     11  C   UNL     1      -2.315   0.779  24.535  0.00  0.00    +0.026 C 
ATOM     12  C   UNL     1      -3.011   0.347  24.622  0.00  0.00    +0.094 C 
ATOM     13  N   UNL     1      -2.995  -0.477  24.571  0.00  0.00    -0.280 N 
ATOM     14  C   UNL     1      -2.282  -0.867  24.433  0.00  0.00    +0.093 C 
ATOM     15  C   UNL     1      -1.585  -0.435  24.347  0.00  0.00    +0.022 C 
ATOM     16  C   UNL     1      -1.601   0.388  24.398  0.00  0.00    +0.015 C 
ATOM     21  C   UNL     1      -3.692  -0.910  24.657  0.00  0.00    +0.225 C 
ATOM     22  O   UNL     1      -4.406  -0.518  24.795  0.00  0.00    -0.275 OA
ENDROOT
BRANCH  21  23
ATOM     23  C   UNL     1      -3.676  -1.732  24.607  0.00  0.00    +0.077 C 
ATOM     24  C   UNL     1      -3.892  -2.182  23.949  0.00  0.00    +0.009 C 
ATOM     25  C   UNL     1      -3.790  -2.979  24.140  0.00  0.00    +0.001 C 
ATOM     26  C   UNL     1      -3.511  -3.021  24.915  0.00  0.00    +0.001 C 
ATOM     27  C   UNL     1      -3.441  -2.251  25.203  0.00  0.00    +0.009 C 
ENDBRANCH  21  23
BRANCH  11  10
ATOM     10  C   UNL     1      -2.330   1.602  24.586  0.00  0.00    +0.047 C 
BRANCH  10   9
ATOM      3  C   UNL     1      -4.352   3.731  25.066  0.00  0.00    +0.138 A 
ATOM      4  C   UNL     1      -4.345   3.601  24.251  0.00  0.00    +0.033 A 
ATOM      5  C   UNL     1      -3.838   3.036  23.927  0.00  0.00    -0.016 A 
ATOM      6  C   UNL     1      -3.337   2.601  24.419  0.00  0.00    +0.009 A 
ATOM      7  C   UNL     1      -3.344   2.731  25.234  0.00  0.00    +0.004 A 
ATOM      8  C   UNL     1      -3.851   3.296  25.558  0.00  0.00    +0.037 A 
ATOM      9  C   UNL     1      -2.831   2.037  24.095  0.00  0.00    +0.053 C 
ATOM     28  N   UNL     1      -2.824   1.907  23.281  0.00  0.00    -0.274 NA
ATOM     29  C   UNL     1      -3.325   2.342  22.789  0.00  0.00    +0.130 C 
ATOM     30  C   UNL     1      -3.832   2.906  23.113  0.00  0.00    +0.053 C 
BRANCH   3   2
ATOM      1  C   UNL     1      -5.593   4.068  25.689  0.00  0.00    +0.252 C 
ATOM      2  O   UNL     1      -4.859   4.296  25.390  0.00  0.00    -0.471 OA
ENDBRANCH   3   2
ENDBRANCH  10   9
ENDBRANCH  11  10
BRANCH  16  17
ATOM     17  C   UNL     1      -0.904   0.820  24.311  0.00  0.00    +0.114 C 
BRANCH  17  18
ATOM     18  C   UNL     1      -0.191   0.430  24.174  0.00  0.00    +0.365 C 
ATOM     19  O   UNL     1       0.228   0.100  24.804  0.00  0.00    -0.246 OA
ATOM     20  O   UNL     1       0.105   0.368  23.405  0.00  0.00    -0.246 OA
ENDBRANCH  17  18
ENDBRANCH  16  17
TORSDOF 6
ENDMDL
MODEL 4
REMARK VINA RESULT:     -10.7      1.899      3.313
REMARK  Name = 
REMARK  6 active torsions:
REMARK  status: ('A' for Active; 'I' for Inactive)
REMARK    1  A    between atoms: O_2  and  C_3
REMARK    2  A    between atoms: C_9  and  C_10
REMARK    3  A    between atoms: C_10  and  C_11
REMARK    4  A    between atoms: C_16  and  C_17
REMARK    5  A    between atoms: C_17  and  C_18
REMARK    6  A    between atoms: C_21  and  C_23
REMARK                            x       y       z     vdW  Elec       q    Type
REMARK                         _______ _______ _______ _____ _____    ______ ____
ROOT
ATOM     11  C   UNL     1      -0.996   0.794  24.250  0.00  0.00    +0.026 C 
ATOM     12  C   UNL     1      -1.760   0.657  24.527  0.00  0.00    +0.094 C 
ATOM     13  N   UNL     1      -2.070  -0.108  24.522  0.00  0.00    -0.280 N 
ATOM     14  C   UNL     1      -1.614  -0.735  24.240  0.00  0.00    +0.093 C 
ATOM     15  C   UNL     1      -0.850  -0.598  23.963  0.00  0.00    +0.022 C 
ATOM     16  C   UNL     1      -0.540   0.166  23.968  0.00  0.00    +0.015 C 
ATOM     21  C   UNL     1      -2.835  -0.245  24.799  0.00  0.00    +0.225 C 
ATOM     22  O   UNL     1      -3.290   0.383  25.080  0.00  0.00    -0.275 OA
ENDROOT
BRANCH  21  23
ATOM     23  C   UNL     1      -3.144  -1.010  24.793  0.00  0.00    +0.077 C 
ATOM     24  C   UNL     1      -3.588  -1.350  24.186  0.00  0.00    +0.009 C 
ATOM     25  C   UNL     1      -3.783  -2.119  24.411  0.00  0.00    +0.001 C 
ATOM     26  C   UNL     1      -3.459  -2.255  25.158  0.00  0.00    +0.001 C 
ATOM     27  C   UNL     1      -3.065  -1.570  25.394  0.00  0.00    +0.009 C 
ENDBRANCH  21  23
BRANCH  11  10
ATOM     10  C   UNL     1      -0.686   1.559  24.255  0.00  0.00    +0.047 C 
BRANCH  10   9
ATOM      3  C   UNL     1      -0.978   4.419  25.019  0.00  0.00    +0.138 A 
ATOM      4  C   UNL     1      -0.786   4.015  25.712  0.00  0.00    +0.033 A 
ATOM      5  C   UNL     1      -0.665   3.199  25.695  0.00  0.00    -0.016 A 
ATOM      6  C   UNL     1      -0.736   2.786  24.984  0.00  0.00    +0.009 A 
ATOM      7  C   UNL     1      -0.928   3.190  24.290  0.00  0.00    +0.004 A 
ATOM      8  C   UNL     1      -1.049   4.007  24.307  0.00  0.00    +0.037 A 
ATOM      9  C   UNL     1      -0.615   1.971  24.966  0.00  0.00    +0.053 C 
ATOM     28  N   UNL     1      -0.423   1.568  25.659  0.00  0.00    -0.274 NA
ATOM     29  C   UNL     1      -0.352   1.981  26.371  0.00  0.00    +0.130 C 
ATOM     30  C   UNL     1      -0.473   2.796  26.388  0.00  0.00    +0.053 C 
BRANCH   3   2
ATOM      1  C   UNL     1      -1.863   5.537  25.107  0.00  0.00    +0.252 C 
ATOM      2  O   UNL     1      -1.099   5.235  25.036  0.00  0.00    -0.471 OA
ENDBRANCH   3   2
ENDBRANCH  10   9
ENDBRANCH  11  10
BRANCH  16  17
ATOM     17  C   UNL     1       0.225   0.304  23.691  0.00  0.00    +0.114 C 
BRANCH  17  18
ATOM     18  C   UNL     1       0.619  -0.280  23.263  0.00  0.00    +0.365 C 
ATOM     19  O   UNL     1       0.607  -0.267  22.438  0.00  0.00    -0.246 OA
ATOM     20  O   UNL     1       1.027  -0.879  23.660  0.00  0.00    -0.246 OA
ENDBRANCH  17  18
ENDBRANCH  16  17
TORSDOF 6
ENDMDL
MODEL 5
REMARK VINA RESULT:     -10.6      2.108      3.679
REMARK  Name = 
REMARK  6 active torsions:
REMARK  status: ('A' for Active; 'I' for Inactive)
REMARK    1  A    between atoms: O_2  and  C_3
REMARK    2  A    between atoms: C_9  and  C_10
REMARK    3  A    between atoms: C_10  and  C_11
REMARK    4  A    between atoms: C_16  and  C_17
REMARK    5  A    between atoms: C_17  and  C_18
REMARK    6  A    between atoms: C_21  and  C_23
REMARK                            x       y       z     vdW  Elec       q    Type
REMARK                         _______ _______ _______ _____ _____    ______ ____
ROOT
ATOM     11  C   UNL     1      -2.762   0.142  24.722  0.00  0.00    +0.026 C 
ATOM     12  C   UNL     1      -3.091   0.891  24.622  0.00  0.00    +0.094 C 
ATOM     13  N   UNL     1      -3.873   1.032  24.847  0.00  0.00    -0.280 N 
ATOM     14  C   UNL     1      -4.324   0.423  25.173  0.00  0.00    +0.093 C 
ATOM     15  C   UNL     1      -3.995  -0.326  25.273  0.00  0.00    +0.022 C 
ATOM     16  C   UNL     1      -3.214  -0.467  25.048  0.00  0.00    +0.015 C 
ATOM     21  C   UNL     1      -4.203   1.781  24.746  0.00  0.00    +0.225 C 
ATOM     22  O   UNL     1      -3.750   2.390  24.420  0.00  0.00    -0.275 OA
ENDROOT
BRANCH  21  23
ATOM     23  C   UNL     1      -4.983   1.922  24.971  0.00  0.00    +0.077 C 
ATOM     24  C   UNL     1      -5.657   1.731  24.534  0.00  0.00    +0.009 C 
ATOM     25  C   UNL     1      -6.318   1.969  24.965  0.00  0.00    +0.001 C 
ATOM     26  C   UNL     1      -6.054   2.307  25.670  0.00  0.00    +0.001 C 
ATOM     27  C   UNL     1      -5.229   2.277  25.674  0.00  0.00    +0.009 C 
ENDBRANCH  21  23
BRANCH  11  10
ATOM     10  C   UNL     1      -1.981   0.001  24.497  0.00  0.00    +0.047 C 
BRANCH  10   9
ATOM      3  C   UNL     1       0.737   0.643  23.473  0.00  0.00    +0.138 A 
ATOM      4  C   UNL     1       0.631   1.105  24.148  0.00  0.00    +0.033 A 
ATOM      5  C   UNL     1      -0.075   1.061  24.573  0.00  0.00    -0.016 A 
ATOM      6  C   UNL     1      -0.676   0.553  24.323  0.00  0.00    +0.009 A 
ATOM      7  C   UNL     1      -0.569   0.090  23.648  0.00  0.00    +0.004 A 
ATOM      8  C   UNL     1       0.136   0.135  23.223  0.00  0.00    +0.037 A 
ATOM      9  C   UNL     1      -1.381   0.508  24.747  0.00  0.00    +0.053 C 
ATOM     28  N   UNL     1      -1.487   0.971  25.421  0.00  0.00    -0.274 NA
ATOM     29  C   UNL     1      -0.886   1.479  25.672  0.00  0.00    +0.130 C 
ATOM     30  C   UNL     1      -0.180   1.523  25.247  0.00  0.00    +0.053 C 
BRANCH   3   2
ATOM      1  C   UNL     1       1.734   0.021  22.662  0.00  0.00    +0.252 C 
ATOM      2  O   UNL     1       1.443   0.688  23.048  0.00  0.00    -0.471 OA
ENDBRANCH   3   2
ENDBRANCH  10   9
ENDBRANCH  11  10
BRANCH  16  17
ATOM     17  C   UNL     1      -2.884  -1.217  25.149  0.00  0.00    +0.114 C 
BRANCH  17  18
ATOM     18  C   UNL     1      -3.373  -1.866  25.288  0.00  0.00    +0.365 C 
ATOM     19  O   UNL     1      -3.545  -2.096  26.062  0.00  0.00    -0.246 OA
ATOM     20  O   UNL     1      -3.689  -2.289  24.653  0.00  0.00    -0.246 OA
ENDBRANCH  17  18
ENDBRANCH  16  17
TORSDOF 6
ENDMDL
MODEL 6
REMARK VINA RESULT:     -10.5      1.806      3.345
REMARK  Name = 
REMARK  6 active torsions:
REMARK  status: ('A' for Active; 'I' for Inactive)
REMARK    1  A    between atoms: O_2  and  C_3
REMARK    2  A    between atoms: C_9  and  C_10
REMARK    3  A    between atoms: C_10  and  C_11
REMARK    4  A    between atoms: C_16  and  C_17
REMARK    5  A    between atoms: C_17  and  C_18
REMARK    6  A    between atoms: C_21  and  C_23
REMARK                            x       y       z     vdW  Elec       q    Type
REMARK                         _______ _______ _______ _____ _____    ______ ____
ROOT
ATOM     11  C   UNL     1      -1.689   1.516  24.813  0.00  0.00    +0.026 C 
ATOM     12  C   UNL     1      -2.151   0.836  24.866  0.00  0.00    +0.094 C 
ATOM     13  N   UNL     1      -1.796   0.091  24.827  0.00  0.00    -0.280 N 
ATOM     14  C   UNL     1      -0.979   0.030  24.734  0.00  0.00    +0.093 C 
ATOM     15  C   UNL     1      -0.517   0.710  24.681  0.00  0.00    +0.022 C 
ATOM     16  C   UNL     1      -0.871   1.454  24.720  0.00  0.00    +0.015 C 
ATOM     21  C   UNL     1      -2.258  -0.590  24.880  0.00  0.00    +0.225 C 
ATOM     22  O   UNL     1      -3.076  -0.527  24.973  0.00  0.00    -0.275 OA
ENDROOT
BRANCH  21  23
ATOM     23  C   UNL     1      -1.903  -1.333  24.840  0.00  0.00    +0.077 C 
ATOM     24  C   UNL     1      -1.926  -1.848  24.196  0.00  0.00    +0.009 C 
ATOM     25  C   UNL     1      -1.500  -2.526  24.395  0.00  0.00    +0.001 C 
ATOM     26  C   UNL     1      -1.214  -2.430  25.163  0.00  0.00    +0.001 C 
ATOM     27  C   UNL     1      -1.463  -1.693  25.438  0.00  0.00    +0.009 C 
ENDBRANCH  21  23
BRANCH  11  10
ATOM     10  C   UNL     1      -2.043   2.260  24.852  0.00  0.00    +0.047 C 
BRANCH  10   9
ATOM      3  C   UNL     1      -4.651   3.653  25.189  0.00  0.00    +0.138 A 
ATOM      4  C   UNL     1      -4.603   3.444  24.392  0.00  0.00    +0.033 A 
ATOM      5  C   UNL     1      -3.940   3.044  24.108  0.00  0.00    -0.016 A 
ATOM      6  C   UNL     1      -3.323   2.852  24.622  0.00  0.00    +0.009 A 
ATOM      7  C   UNL     1      -3.370   3.061  25.419  0.00  0.00    +0.004 A 
ATOM      8  C   UNL     1      -4.033   3.461  25.703  0.00  0.00    +0.037 A 
ATOM      9  C   UNL     1      -2.660   2.452  24.339  0.00  0.00    +0.053 C 
ATOM     28  N   UNL     1      -2.613   2.243  23.543  0.00  0.00    -0.274 NA
ATOM     29  C   UNL     1      -3.230   2.435  23.029  0.00  0.00    +0.130 C 
ATOM     30  C   UNL     1      -3.893   2.835  23.312  0.00  0.00    +0.053 C 
BRANCH   3   2
ATOM      1  C   UNL     1      -5.950   3.630  25.780  0.00  0.00    +0.252 C 
ATOM      2  O   UNL     1      -5.314   4.053  25.472  0.00  0.00    -0.471 OA
ENDBRANCH   3   2
ENDBRANCH  10   9
ENDBRANCH  11  10
BRANCH  16  17
ATOM     17  C   UNL     1      -0.409   2.135  24.667  0.00  0.00    +0.114 C 
BRANCH  17  18
ATOM     18  C   UNL     1       0.397   2.100  24.838  0.00  0.00    +0.365 C 
ATOM     19  O   UNL     1       0.940   1.938  24.238  0.00  0.00    -0.246 OA
ATOM     20  O   UNL     1       0.661   2.229  25.610  0.00  0.00    -0.246 OA
ENDBRANCH  17  18
ENDBRANCH  16  17
TORSDOF 6
ENDMDL
MODEL 7
REMARK VINA RESULT:     -10.5      1.738      5.004
REMARK  Name = 
REMARK  6 active torsions:
REMARK  status: ('A' for Active; 'I' for Inactive)
REMARK    1  A    between atoms: O_2  and  C_3
REMARK    2  A    between atoms: C_9  and  C_10
REMARK    3  A    between atoms: C_10  and  C_11
REMARK    4  A    between atoms: C_16  and  C_17
REMARK    5  A    between atoms: C_17  and  C_18
REMARK    6  A    between atoms: C_21  and  C_23
REMARK                            x       y       z     vdW  Elec       q    Type
REMARK                         _______ _______ _______ _____ _____    ______ ____
ROOT
ATOM     11  C   UNL     1      -3.580   1.057  23.997  0.00  0.00    +0.026 C 
ATOM     12  C   UNL     1      -4.131   1.235  24.583  0.00  0.00    +0.094 C 
ATOM     13  N   UNL     1      -4.342   2.021  24.726  0.00  0.00    -0.280 N 
ATOM     14  C   UNL     1      -4.001   2.626  24.283  0.00  0.00    +0.093 C 
ATOM     15  C   UNL     1      -3.449   2.448  23.697  0.00  0.00    +0.022 C 
ATOM     16  C   UNL     1      -3.238   1.664  23.554  0.00  0.00    +0.015 C 
ATOM     21  C   UNL     1      -4.894   2.199  25.313  0.00  0.00    +0.225 C 
ATOM     22  O   UNL     1      -5.235   1.592  25.756  0.00  0.00    -0.275 OA
ENDROOT
BRANCH  21  23
ATOM     23  C   UNL     1      -5.105   2.983  25.455  0.00  0.00    +0.077 C 
ATOM     24  C   UNL     1      -4.627   3.558  25.805  0.00  0.00    +0.009 C 
ATOM     25  C   UNL     1      -5.057   4.262  25.840  0.00  0.00    +0.001 C 
ATOM     26  C   UNL     1      -5.801   4.121  25.511  0.00  0.00    +0.001 C 
ATOM     27  C   UNL     1      -5.830   3.332  25.274  0.00  0.00    +0.009 C 
ENDBRANCH  21  23
BRANCH  11  10
ATOM     10  C   UNL     1      -3.368   0.273  23.854  0.00  0.00    +0.047 C 
BRANCH  10   9
ATOM      3  C   UNL     1      -3.655  -2.597  24.586  0.00  0.00    +0.138 A 
ATOM      4  C   UNL     1      -3.164  -2.262  25.158  0.00  0.00    +0.033 A 
ATOM      5  C   UNL     1      -2.969  -1.461  25.119  0.00  0.00    -0.016 A 
ATOM      6  C   UNL     1      -3.266  -0.994  24.506  0.00  0.00    +0.009 A 
ATOM      7  C   UNL     1      -3.757  -1.329  23.934  0.00  0.00    +0.004 A 
ATOM      8  C   UNL     1      -3.952  -2.130  23.973  0.00  0.00    +0.037 A 
ATOM      9  C   UNL     1      -3.072  -0.194  24.466  0.00  0.00    +0.053 C 
ATOM     28  N   UNL     1      -2.581   0.140  25.039  0.00  0.00    -0.274 NA
ATOM     29  C   UNL     1      -2.285  -0.327  25.652  0.00  0.00    +0.130 C 
ATOM     30  C   UNL     1      -2.479  -1.127  25.691  0.00  0.00    +0.053 C 
BRANCH   3   2
ATOM      1  C   UNL     1      -3.939  -3.834  23.933  0.00  0.00    +0.252 C 
ATOM      2  O   UNL     1      -3.850  -3.397  24.625  0.00  0.00    -0.471 OA
ENDBRANCH   3   2
ENDBRANCH  10   9
ENDBRANCH  11  10
BRANCH  16  17
ATOM     17  C   UNL     1      -2.686   1.485  22.967  0.00  0.00    +0.114 C 
BRANCH  17  18
ATOM     18  C   UNL     1      -2.344   2.091  22.524  0.00  0.00    +0.365 C 
ATOM     19  O   UNL     1      -1.683   2.492  22.813  0.00  0.00    -0.246 OA
ATOM     20  O   UNL     1      -2.664   2.297  21.791  0.00  0.00    -0.246 OA
ENDBRANCH  17  18
ENDBRANCH  16  17
TORSDOF 6
ENDMDL
MODEL 8
REMARK VINA RESULT:     -10.4      1.986      3.875
REMARK  Name = 
REMARK  6 active torsions:
REMARK  status: ('A' for Active; 'I' for Inactive)
REMARK    1  A    between atoms: O_2  and  C_3
REMARK    2  A    between atoms: C_9  and  C_10
REMARK    3  A    between atoms: C_10  and  C_11
REMARK    4  A    between atoms: C_16  and  C_17
REMARK    5  A    between atoms: C_17  and  C_18
REMARK    6  A    between atoms: C_21  and  C_23
REMARK                            x       y       z     vdW  Elec       q    Type
REMARK                         _______ _______ _______ _____ _____    ______ ____
ROOT
ATOM     11  C   UNL     1      -2.239   2.060  24.863  0.00  0.00    +0.026 C 
ATOM     12  C   UNL     1      -2.885   1.574  24.702  0.00  0.00    +0.094 C 
ATOM     13  N   UNL     1      -3.647   1.822  24.900  0.00  0.00    -0.280 N 
ATOM     14  C   UNL     1      -3.761   2.557  25.258  0.00  0.00    +0.093 C 
ATOM     15  C   UNL     1      -3.115   3.042  25.419  0.00  0.00    +0.022 C 
ATOM     16  C   UNL     1      -2.353   2.795  25.221  0.00  0.00    +0.015 C 
ATOM     21  C   UNL     1      -4.294   1.336  24.740  0.00  0.00    +0.225 C 
ATOM     22  O   UNL     1      -4.179   0.602  24.381  0.00  0.00    -0.275 OA
ENDROOT
BRANCH  21  23
ATOM     23  C   UNL     1      -5.055   1.584  24.937  0.00  0.00    +0.077 C 
ATOM     24  C   UNL     1      -5.455   1.411  25.638  0.00  0.00    +0.009 C 
ATOM     25  C   UNL     1      -6.198   1.769  25.604  0.00  0.00    +0.001 C 
ATOM     26  C   UNL     1      -6.257   2.163  24.882  0.00  0.00    +0.001 C 
ATOM     27  C   UNL     1      -5.551   2.049  24.470  0.00  0.00    +0.009 C 
ENDBRANCH  21  23
BRANCH  11  10
ATOM     10  C   UNL     1      -1.477   1.812  24.665  0.00  0.00    +0.047 C 
BRANCH  10   9
ATOM      3  C   UNL     1       0.397  -0.124  23.403  0.00  0.00    +0.138 A 
ATOM      4  C   UNL     1       0.104  -0.495  24.080  0.00  0.00    +0.033 A 
ATOM      5  C   UNL     1      -0.437  -0.105  24.565  0.00  0.00    -0.016 A 
ATOM      6  C   UNL     1      -0.687   0.659  24.373  0.00  0.00    +0.009 A 
ATOM      7  C   UNL     1      -0.394   1.030  23.696  0.00  0.00    +0.004 A 
ATOM      8  C   UNL     1       0.148   0.640  23.211  0.00  0.00    +0.037 A 
ATOM      9  C   UNL     1      -1.228   1.050  24.857  0.00  0.00    +0.053 C 
ATOM     28  N   UNL     1      -1.520   0.678  25.532  0.00  0.00    -0.274 NA
ATOM     29  C   UNL     1      -1.270  -0.085  25.724  0.00  0.00    +0.130 C 
ATOM     30  C   UNL     1      -0.729  -0.476  25.240  0.00  0.00    +0.053 C 
BRANCH   3   2
ATOM      1  C   UNL     1       1.571  -0.101  22.591  0.00  0.00    +0.252 C 
ATOM      2  O   UNL     1       0.938  -0.514  22.919  0.00  0.00    -0.471 OA
ENDBRANCH   3   2
ENDBRANCH  10   9
ENDBRANCH  11  10
BRANCH  16  17
ATOM     17  C   UNL     1      -1.706   3.281  25.382  0.00  0.00    +0.114 C 
BRANCH  17  18
ATOM     18  C   UNL     1      -1.820   4.085  25.522  0.00  0.00    +0.365 C 
ATOM     19  O   UNL     1      -1.668   4.635  24.926  0.00  0.00    -0.246 OA
ATOM     20  O   UNL     1      -2.087   4.341  26.261  0.00  0.00    -0.246 OA
ENDBRANCH  17  18
ENDBRANCH  16  17
TORSDOF 6
ENDMDL
MODEL 9
REMARK VINA RESULT:     -10.3      1.512      5.067
REMARK  Name = 
REMARK  6 active torsions:
REMARK  status: ('A' for Active; 'I' for Inactive)
REMARK    1  A    between atoms: O_2  and  C_3
REMARK    2  A    between atoms: C_9  and  C_10
REMARK    3  A    between atoms: C_10  and  C_11
REMARK    4  A    between atoms: C_16  and  C_17
REMARK    5  A    between atoms: C_17  and  C_18
REMARK    6  A    between atoms: C_21  and  C_23
REMARK                            x       y       z     vdW  Elec       q    Type
REMARK                         _______ _______ _______ _____ _____    ______ ____
ROOT
ATOM     11  C   UNL     1      -2.518   1.644  23.844  0.00  0.00    +0.026 C 
ATOM     12  C   UNL     1      -2.240   2.004  24.531  0.00  0.00    +0.094 C 
ATOM     13  N   UNL     1      -2.018   2.799  24.520  0.00  0.00    -0.280 N 
ATOM     14  C   UNL     1      -2.074   3.232  23.820  0.00  0.00    +0.093 C 
ATOM     15  C   UNL     1      -2.352   2.872  23.133  0.00  0.00    +0.022 C 
ATOM     16  C   UNL     1      -2.574   2.078  23.143  0.00  0.00    +0.015 C 
ATOM     21  C   UNL     1      -1.740   3.160  25.208  0.00  0.00    +0.225 C 
ATOM     22  O   UNL     1      -1.685   2.725  25.907  0.00  0.00    -0.275 OA
ENDROOT
BRANCH  21  23
ATOM     23  C   UNL     1      -1.518   3.953  25.196  0.00  0.00    +0.077 C 
ATOM     24  C   UNL     1      -2.005   4.596  25.372  0.00  0.00    +0.009 C 
ATOM     25  C   UNL     1      -1.558   5.285  25.291  0.00  0.00    +0.001 C 
ATOM     26  C   UNL     1      -0.795   5.068  25.065  0.00  0.00    +0.001 C 
ATOM     27  C   UNL     1      -0.770   4.246  25.006  0.00  0.00    +0.009 C 
ENDBRANCH  21  23
BRANCH  11  10
ATOM     10  C   UNL     1      -2.741   0.850  23.854  0.00  0.00    +0.047 C 
BRANCH  10   9
ATOM      3  C   UNL     1      -3.409  -1.751  25.136  0.00  0.00    +0.138 A 
ATOM      4  C   UNL     1      -3.995  -1.220  25.374  0.00  0.00    +0.033 A 
ATOM      5  C   UNL     1      -3.974  -0.437  25.114  0.00  0.00    -0.016 A 
ATOM      6  C   UNL     1      -3.367  -0.185  24.614  0.00  0.00    +0.009 A 
ATOM      7  C   UNL     1      -2.782  -0.715  24.376  0.00  0.00    +0.004 A 
ATOM      8  C   UNL     1      -2.802  -1.498  24.637  0.00  0.00    +0.037 A 
ATOM      9  C   UNL     1      -3.347   0.597  24.354  0.00  0.00    +0.053 C 
ATOM     28  N   UNL     1      -3.932   1.127  24.592  0.00  0.00    -0.274 NA
ATOM     29  C   UNL     1      -4.539   0.874  25.092  0.00  0.00    +0.130 C 
ATOM     30  C   UNL     1      -4.560   0.092  25.352  0.00  0.00    +0.053 C 
BRANCH   3   2
ATOM      1  C   UNL     1      -3.345  -3.150  24.857  0.00  0.00    +0.252 C 
ATOM      2  O   UNL     1      -3.430  -2.532  25.397  0.00  0.00    -0.471 OA
ENDBRANCH   3   2
ENDBRANCH  10   9
ENDBRANCH  11  10
BRANCH  16  17
ATOM     17  C   UNL     1      -2.852   1.718  22.455  0.00  0.00    +0.114 C 
BRANCH  17  18
ATOM     18  C   UNL     1      -2.755   2.091  21.727  0.00  0.00    +0.365 C 
ATOM     19  O   UNL     1      -2.136   1.869  21.228  0.00  0.00    -0.246 OA
ATOM     20  O   UNL     1      -3.277   2.687  21.495  0.00  0.00    -0.246 OA
ENDBRANCH  17  18
ENDBRANCH  16  17
TORSDOF 6
ENDMDL
MODEL 10
REMARK VINA RESULT:     -10.1      1.958      3.293
REMARK  Name = 
REMARK  6 active torsions:
REMARK  status: ('A' for Active; 'I' for Inactive)
REMARK    1  A    between atoms: O_2  and  C_3
REMARK    2  A    between atoms: C_9  and  C_10
REMARK    3  A    between atoms: C_10  and  C_11
REMARK    4  A    between atoms: C_16  and  C_17
REMARK    5  A    between atoms: C_17  and  C_18
REMARK    6  A    between atoms: C_21  and  C_23
REMARK                            x       y       z     vdW  Elec       q    Type
REMARK                         _______ _______ _______ _____ _____    ______ ____
ROOT
ATOM     11  C   UNL     1      -3.512  -0.431  24.612  0.00  0.00    +0.026 C 
ATOM     12  C   UNL     1      -2.776  -0.189  24.891  0.00  0.00    +0.094 C 
ATOM     13  N   UNL     1      -2.135  -0.710  24.871  0.00  0.00    -0.280 N 
ATOM     14  C   UNL     1      -2.234  -1.472  24.572  0.00  0.00    +0.093 C 
ATOM     15  C   UNL     1      -2.970  -1.714  24.293  0.00  0.00    +0.022 C 
ATOM     16  C   UNL     1      -3.610  -1.194  24.313  0.00  0.00    +0.015 C 
ATOM     21  C   UNL     1      -1.398  -0.467  25.150  0.00  0.00    +0.225 C 
ATOM     22  O   UNL     1      -1.301   0.296  25.449  0.00  0.00    -0.275 OA
ENDROOT
BRANCH  21  23
ATOM     23  C   UNL     1      -0.759  -0.988  25.131  0.00  0.00    +0.077 C 
ATOM     24  C   UNL     1      -0.174  -1.016  24.549  0.00  0.00    +0.009 C 
ATOM     25  C   UNL     1       0.356  -1.617  24.747  0.00  0.00    +0.001 C 
ATOM     26  C   UNL     1       0.098  -1.960  25.452  0.00  0.00    +0.001 C 
ATOM     27  C   UNL     1      -0.590  -1.571  25.689  0.00  0.00    +0.009 C 
ENDBRANCH  21  23
BRANCH  11  10
ATOM     10  C   UNL     1      -4.153   0.089  24.631  0.00  0.00    +0.047 C 
BRANCH  10   9
ATOM      3  C   UNL     1      -5.392   2.707  25.308  0.00  0.00    +0.138 A 
ATOM      4  C   UNL     1      -4.873   2.854  24.684  0.00  0.00    +0.033 A 
ATOM      5  C   UNL     1      -4.432   2.237  24.358  0.00  0.00    -0.016 A 
ATOM      6  C   UNL     1      -4.512   1.471  24.657  0.00  0.00    +0.009 A 
ATOM      7  C   UNL     1      -5.032   1.324  25.281  0.00  0.00    +0.004 A 
ATOM      8  C   UNL     1      -5.472   1.942  25.607  0.00  0.00    +0.037 A 
ATOM      9  C   UNL     1      -4.073   0.854  24.332  0.00  0.00    +0.053 C 
ATOM     28  N   UNL     1      -3.554   1.000  23.709  0.00  0.00    -0.274 NA
ATOM     29  C   UNL     1      -3.474   1.766  23.410  0.00  0.00    +0.130 C 
ATOM     30  C   UNL     1      -3.913   2.383  23.735  0.00  0.00    +0.053 C 
BRANCH   3   2
ATOM      1  C   UNL     1      -5.513   4.084  25.668  0.00  0.00    +0.252 C 
ATOM      2  O   UNL     1      -5.832   3.325  25.632  0.00  0.00    -0.471 OA
ENDBRANCH   3   2
ENDBRANCH  10   9
ENDBRANCH  11  10
BRANCH  16  17
ATOM     17  C   UNL     1      -4.348  -1.437  24.033  0.00  0.00    +0.114 C 
BRANCH  17  18
ATOM     18  C   UNL     1      -4.451  -2.206  23.756  0.00  0.00    +0.365 C 
ATOM     19  O   UNL     1      -4.486  -2.836  24.287  0.00  0.00    -0.246 OA
ATOM     20  O   UNL     1      -4.518  -2.347  22.944  0.00  0.00    -0.246 OA
ENDBRANCH  17  18
ENDBRANCH  16  17
TORSDOF 6
ENDMDL
