MODEL 1
REMARK VINA RESULT:     -12.1      0.000      0.000
REMARK  Name = 
REMARK  9 active torsions:
REMARK  status: ('A' for Active; 'I' for Inactive)
REMARK    1  A    between atoms: O_2  and  C_3
REMARK    2  A    between atoms: C_6  and  C_7
REMARK    3  A    between atoms: C_7  and  N_8
REMARK    4  A    between atoms: C_9  and  C_11
REMARK    5  A    between atoms: C_11  and  C_12
REMARK    6  A    between atoms: C_12  and  C_13
REMARK    7  A    between atoms: C_20  and  N_23
REMARK    8  A    between atoms: N_23  and  C_24
REMARK    9  A    between atoms: C_24  and  C_25
REMARK                            x       y       z     vdW  Elec       q    Type
REMARK                         _______ _______ _______ _____ _____    ______ ____
ROOT
ATOM     13  C   UNL     1      -1.892  -1.457  24.672  0.00  0.00    +0.080 C 
ATOM     14  C   UNL     1      -1.714  -2.235  24.463  0.00  0.00    +0.131 C 
ATOM     15  N   UNL     1      -2.322  -2.780  24.343  0.00  0.00    -0.203 NA
ATOM     16  C   UNL     1      -3.108  -2.547  24.434  0.00  0.00    +0.256 C 
ATOM     17  O   UNL     1      -3.717  -3.091  24.315  0.00  0.00    -0.272 OA
ATOM     18  C   UNL     1      -3.287  -1.769  24.644  0.00  0.00    +0.138 C 
ATOM     19  C   UNL     1      -4.004  -1.383  24.772  0.00  0.00    +0.044 C 
ATOM     20  C   UNL     1      -3.840  -0.598  24.970  0.00  0.00    +0.091 C 
ATOM     21  C   UNL     1      -3.020  -0.501  24.965  0.00  0.00    +0.090 C 
ATOM     22  N   UNL     1      -2.678  -1.224  24.763  0.00  0.00    -0.265 NA
ENDROOT
BRANCH  13  12
ATOM     12  C   UNL     1      -1.284  -0.912  24.791  0.00  0.00    +0.027 C 
BRANCH  12  11
ATOM     11  C   UNL     1      -0.801  -0.689  24.161  0.00  0.00    +0.088 C 
BRANCH  11   9
ATOM      8  N   UNL     1      -0.502   0.675  24.464  0.00  0.00    -0.201 NA
ATOM      9  C   UNL     1      -0.250  -0.084  24.259  0.00  0.00    +0.242 C 
ATOM     10  O   UNL     1       0.554  -0.235  24.151  0.00  0.00    -0.273 OA
BRANCH   8   7
ATOM      7  C   UNL     1       0.048   1.281  24.562  0.00  0.00    +0.141 C 
BRANCH   7   6
ATOM      3  C   UNL     1      -0.705   3.544  25.223  0.00  0.00    +0.139 A 
ATOM      4  C   UNL     1      -0.540   3.379  24.432  0.00  0.00    +0.037 A 
ATOM      5  C   UNL     1      -0.289   2.624  24.212  0.00  0.00    +0.001 A 
ATOM      6  C   UNL     1      -0.203   2.035  24.782  0.00  0.00    -0.000 A 
ATOM     35  C   UNL     1      -0.368   2.201  25.574  0.00  0.00    +0.001 A 
ATOM     36  C   UNL     1      -0.619   2.955  25.794  0.00  0.00    +0.037 A 
BRANCH   3   2
ATOM      1  C   UNL     1      -0.914   4.921  24.903  0.00  0.00    +0.252 C 
ATOM      2  O   UNL     1      -0.956   4.298  25.443  0.00  0.00    -0.471 OA
ENDBRANCH   3   2
ENDBRANCH   7   6
ENDBRANCH   8   7
ENDBRANCH  11   9
ENDBRANCH  12  11
ENDBRANCH  13  12
BRANCH  20  23
ATOM     23  N   UNL     1      -4.396  -0.015  25.143  0.00  0.00    -0.213 NA
BRANCH  23  24
ATOM     24  C   UNL     1      -4.429   0.673  24.689  0.00  0.00    +0.116 C 
BRANCH  24  25
ATOM     25  C   UNL     1      -4.790   1.350  24.991  0.00  0.00    +0.014 A 
ATOM     26  C   UNL     1      -5.387   1.368  25.560  0.00  0.00    +0.073 A 
ATOM     27  N   UNL     1      -5.585   2.157  25.697  0.00  0.00    -0.324 N 
ATOM     28  C   UNL     1      -6.157   2.429  26.227  0.00  0.00    +0.130 C 
ATOM     29  C   UNL     1      -5.111   2.626  25.213  0.00  0.00    +0.060 A 
ATOM     30  C   UNL     1      -4.620   2.127  24.776  0.00  0.00    +0.015 A 
ATOM     31  C   UNL     1      -4.081   2.446  24.239  0.00  0.00    +0.001 A 
ATOM     32  C   UNL     1      -4.032   3.263  24.139  0.00  0.00    +0.000 A 
ATOM     33  C   UNL     1      -4.523   3.762  24.575  0.00  0.00    +0.001 A 
ATOM     34  C   UNL     1      -5.063   3.444  25.112  0.00  0.00    +0.017 A 
ENDBRANCH  24  25
ENDBRANCH  23  24
ENDBRANCH  20  23
TORSDOF 9
ENDMDL
MODEL 2
REMARK VINA RESULT:     -12.0      1.462      4.375
REMARK  Name = 
REMARK  9 active torsions:
REMARK  status: ('A' for Active; 'I' for Inactive)
REMARK    1  A    between atoms: O_2  and  C_3
REMARK    2  A    between atoms: C_6  and  C_7
REMARK    3  A    between atoms: C_7  and  N_8
REMARK    4  A    between atoms: C_9  and  C_11
REMARK    5  A    between atoms: C_11  and  C_12
REMARK    6  A    between atoms: C_12  and  C_13
REMARK    7  A    between atoms: C_20  and  N_23
REMARK    8  A    between atoms: N_23  and  C_24
REMARK    9  A    between atoms: C_24  and  C_25
REMARK                            x       y       z     vdW  Elec       q    Type
REMARK                         _______ _______ _______ _____ _____    ______ ____
ROOT
ATOM     13  C   UNL     1      -4.373   3.233  25.378  0.00  0.00    +0.080 C 
ATOM     14  C   UNL     1      -4.919   3.728  25.749  0.00  0.00    +0.131 C 
ATOM     15  N   UNL     1      -5.659   3.436  25.967  0.00  0.00    -0.203 NA
ATOM     16  C   UNL     1      -5.853   2.649  25.814  0.00  0.00    +0.256 C 
ATOM     17  O   UNL     1      -6.594   2.357  26.031  0.00  0.00    -0.272 OA
ATOM     18  C   UNL     1      -5.308   2.153  25.443  0.00  0.00    +0.138 C 
ATOM     19  C   UNL     1      -5.344   1.359  25.223  0.00  0.00    +0.044 C 
ATOM     20  C   UNL     1      -4.625   1.160  24.869  0.00  0.00    +0.091 C 
ATOM     21  C   UNL     1      -4.145   1.832  24.870  0.00  0.00    +0.090 C 
ATOM     22  N   UNL     1      -4.567   2.446  25.225  0.00  0.00    -0.265 NA
ENDROOT
BRANCH  13  12
ATOM     12  C   UNL     1      -3.632   3.525  25.161  0.00  0.00    +0.027 C 
BRANCH  12  11
ATOM     11  C   UNL     1      -3.179   3.947  25.705  0.00  0.00    +0.088 C 
BRANCH  11   9
ATOM      8  N   UNL     1      -1.849   3.481  25.471  0.00  0.00    -0.201 NA
ATOM      9  C   UNL     1      -2.385   4.104  25.547  0.00  0.00    +0.242 C 
ATOM     10  O   UNL     1      -2.126   4.883  25.465  0.00  0.00    -0.273 OA
BRANCH   8   7
ATOM      7  C   UNL     1      -1.055   3.636  25.314  0.00  0.00    +0.141 C 
BRANCH   7   6
ATOM      3  C   UNL     1       0.414   1.837  24.460  0.00  0.00    +0.139 A 
ATOM      4  C   UNL     1       0.107   2.399  23.941  0.00  0.00    +0.037 A 
ATOM      5  C   UNL     1      -0.383   2.999  24.226  0.00  0.00    +0.001 A 
ATOM      6  C   UNL     1      -0.565   3.036  25.029  0.00  0.00    -0.000 A 
ATOM     35  C   UNL     1      -0.257   2.474  25.549  0.00  0.00    +0.001 A 
ATOM     36  C   UNL     1       0.232   1.874  25.264  0.00  0.00    +0.037 A 
BRANCH   3   2
ATOM      1  C   UNL     1       0.660   0.772  23.539  0.00  0.00    +0.252 C 
ATOM      2  O   UNL     1       0.904   1.237  24.176  0.00  0.00    -0.471 OA
ENDBRANCH   3   2
ENDBRANCH   7   6
ENDBRANCH   8   7
ENDBRANCH  11   9
ENDBRANCH  12  11
ENDBRANCH  13  12
BRANCH  20  23
ATOM     23  N   UNL     1      -4.422   0.420  24.567  0.00  0.00    -0.213 NA
BRANCH  23  24
ATOM     24  C   UNL     1      -3.798  -0.004  24.899  0.00  0.00    +0.116 C 
BRANCH  24  25
ATOM     25  C   UNL     1      -3.650  -0.778  24.656  0.00  0.00    +0.014 A 
ATOM     26  C   UNL     1      -4.190  -1.283  24.288  0.00  0.00    +0.073 A 
ATOM     27  N   UNL     1      -3.810  -2.001  24.144  0.00  0.00    -0.324 N 
ATOM     28  C   UNL     1      -4.146  -2.663  23.784  0.00  0.00    +0.130 C 
ATOM     29  C   UNL     1      -3.036  -1.940  24.421  0.00  0.00    +0.060 A 
ATOM     30  C   UNL     1      -2.937  -1.185  24.738  0.00  0.00    +0.015 A 
ATOM     31  C   UNL     1      -2.210  -0.965  25.060  0.00  0.00    +0.001 A 
ATOM     32  C   UNL     1      -1.582  -1.499  25.065  0.00  0.00    +0.000 A 
ATOM     33  C   UNL     1      -1.681  -2.255  24.749  0.00  0.00    +0.001 A 
ATOM     34  C   UNL     1      -2.408  -2.476  24.427  0.00  0.00    +0.017 A 
ENDBRANCH  24  25
ENDBRANCH  23  24
ENDBRANCH  20  23
TORSDOF 9
ENDMDL
MODEL 3
REMARK VINA RESULT:     -11.7      1.520      4.911
REMARK  Name = 
REMARK  9 active torsions:
REMARK  status: ('A' for Active; 'I' for Inactive)
REMARK    1  A    between atoms: O_2  and  C_3
REMARK    2  A    between atoms: C_6  and  C_7
REMARK    3  A    between atoms: C_7  and  N_8
REMARK    4  A    between atoms: C_9  and  C_11
REMARK    5  A    between atoms: C_11  and  C_12
REMARK    6  A    between atoms: C_12  and  C_13
REMARK    7  A    between atoms: C_20  and  N_23
REMARK    8  A    between atoms: N_23  and  C_24
REMARK    9  A    between atoms: C_24  and  C_25
REMARK                            x       y       z     vdW  Elec       q    Type
REMARK                         _______ _______ _______ _____ _____    ______ ____
ROOT
ATOM     13  C   UNL     1      -0.610   2.717  25.177  0.00  0.00    +0.080 C 
ATOM     14  C   UNL     1       0.007   3.174  24.877  0.00  0.00    +0.131 C 
ATOM     15  N   UNL     1       0.621   2.814  24.458  0.00  0.00    -0.203 NA
ATOM     16  C   UNL     1       0.616   1.998  24.339  0.00  0.00    +0.256 C 
ATOM     17  O   UNL     1       1.229   1.638  23.920  0.00  0.00    -0.272 OA
ATOM     18  C   UNL     1      -0.002   1.541  24.639  0.00  0.00    +0.138 C 
ATOM     19  C   UNL     1      -0.154   0.731  24.610  0.00  0.00    +0.044 C 
ATOM     20  C   UNL     1      -0.861   0.589  25.010  0.00  0.00    +0.091 C 
ATOM     21  C   UNL     1      -1.146   1.312  25.288  0.00  0.00    +0.090 C 
ATOM     22  N   UNL     1      -0.615   1.900  25.059  0.00  0.00    -0.265 NA
ENDROOT
BRANCH  13  12
ATOM     12  C   UNL     1      -1.223   3.076  25.596  0.00  0.00    +0.027 C 
BRANCH  12  11
ATOM     11  C   UNL     1      -1.539   3.791  25.333  0.00  0.00    +0.088 C 
BRANCH  11   9
ATOM      8  N   UNL     1      -2.960   3.665  25.242  0.00  0.00    -0.201 NA
ATOM      9  C   UNL     1      -2.293   4.022  25.573  0.00  0.00    +0.242 C 
ATOM     10  O   UNL     1      -2.383   4.610  26.145  0.00  0.00    -0.273 OA
BRANCH   8   7
ATOM      7  C   UNL     1      -3.714   3.895  25.482  0.00  0.00    +0.141 C 
BRANCH   7   6
ATOM      3  C   UNL     1      -5.658   2.431  25.031  0.00  0.00    +0.139 A 
ATOM      4  C   UNL     1      -5.050   2.490  24.478  0.00  0.00    +0.037 A 
ATOM      5  C   UNL     1      -4.401   2.979  24.629  0.00  0.00    +0.001 A 
ATOM      6  C   UNL     1      -4.362   3.407  25.332  0.00  0.00    -0.000 A 
ATOM     35  C   UNL     1      -4.972   3.348  25.885  0.00  0.00    +0.001 A 
ATOM     36  C   UNL     1      -5.620   2.860  25.735  0.00  0.00    +0.037 A 
BRANCH   3   2
ATOM      1  C   UNL     1      -6.480   1.319  25.392  0.00  0.00    +0.252 C 
ATOM      2  O   UNL     1      -6.306   1.943  24.881  0.00  0.00    -0.471 OA
ENDBRANCH   3   2
ENDBRANCH   7   6
ENDBRANCH   8   7
ENDBRANCH  11   9
ENDBRANCH  12  11
ENDBRANCH  13  12
BRANCH  20  23
ATOM     23  N   UNL     1      -1.220  -0.146  25.115  0.00  0.00    -0.213 NA
BRANCH  23  24
ATOM     24  C   UNL     1      -1.987  -0.274  24.840  0.00  0.00    +0.116 C 
BRANCH  24  25
ATOM     25  C   UNL     1      -2.256  -1.042  24.710  0.00  0.00    +0.014 A 
ATOM     26  C   UNL     1      -1.818  -1.734  24.814  0.00  0.00    +0.073 A 
ATOM     27  N   UNL     1      -2.302  -2.374  24.622  0.00  0.00    -0.324 N 
ATOM     28  C   UNL     1      -2.086  -3.170  24.648  0.00  0.00    +0.130 C 
ATOM     29  C   UNL     1      -3.038  -2.078  24.399  0.00  0.00    +0.060 A 
ATOM     30  C   UNL     1      -3.010  -1.255  24.453  0.00  0.00    +0.015 A 
ATOM     31  C   UNL     1      -3.676  -0.807  24.262  0.00  0.00    +0.001 A 
ATOM     32  C   UNL     1      -4.369  -1.180  24.016  0.00  0.00    +0.000 A 
ATOM     33  C   UNL     1      -4.397  -2.003  23.961  0.00  0.00    +0.001 A 
ATOM     34  C   UNL     1      -3.732  -2.452  24.153  0.00  0.00    +0.017 A 
ENDBRANCH  24  25
ENDBRANCH  23  24
ENDBRANCH  20  23
TORSDOF 9
ENDMDL
MODEL 4
REMARK VINA RESULT:     -11.6      1.614      5.856
REMARK  Name = 
REMARK  9 active torsions:
REMARK  status: ('A' for Active; 'I' for Inactive)
REMARK    1  A    between atoms: O_2  and  C_3
REMARK    2  A    between atoms: C_6  and  C_7
REMARK    3  A    between atoms: C_7  and  N_8
REMARK    4  A    between atoms: C_9  and  C_11
REMARK    5  A    between atoms: C_11  and  C_12
REMARK    6  A    between atoms: C_12  and  C_13
REMARK    7  A    between atoms: C_20  and  N_23
REMARK    8  A    between atoms: N_23  and  C_24
REMARK    9  A    between atoms: C_24  and  C_25
REMARK                            x       y       z     vdW  Elec       q    Type
REMARK                         _______ _______ _______ _____ _____    ______ ____
ROOT
ATOM     13  C   UNL     1      -2.451   4.099  25.567  0.00  0.00    +0.080 C 
ATOM     14  C   UNL     1      -2.517   4.922  25.558  0.00  0.00    +0.131 C 
ATOM     15  N   UNL     1      -1.881   5.383  25.305  0.00  0.00    -0.203 NA
ATOM     16  C   UNL     1      -1.180   5.022  25.062  0.00  0.00    +0.256 C 
ATOM     17  O   UNL     1      -0.544   5.484  24.810  0.00  0.00    -0.272 OA
ATOM     18  C   UNL     1      -1.114   4.200  25.072  0.00  0.00    +0.138 C 
ATOM     19  C   UNL     1      -0.497   3.694  24.866  0.00  0.00    +0.044 C 
ATOM     20  C   UNL     1      -0.751   2.918  24.991  0.00  0.00    +0.091 C 
ATOM     21  C   UNL     1      -1.525   2.946  25.275  0.00  0.00    +0.090 C 
ATOM     22  N   UNL     1      -1.750   3.739  25.325  0.00  0.00    -0.265 NA
ENDROOT
BRANCH  13  12
ATOM     12  C   UNL     1      -3.087   3.638  25.820  0.00  0.00    +0.027 C 
BRANCH  12  11
ATOM     11  C   UNL     1      -3.801   3.659  25.408  0.00  0.00    +0.088 C 
BRANCH  11   9
ATOM      8  N   UNL     1      -4.181   2.339  25.012  0.00  0.00    -0.201 NA
ATOM      9  C   UNL     1      -4.322   3.022  25.454  0.00  0.00    +0.242 C 
ATOM     10  O   UNL     1      -4.986   3.066  25.943  0.00  0.00    -0.273 OA
BRANCH   8   7
ATOM      7  C   UNL     1      -4.702   1.702  25.058  0.00  0.00    +0.141 C 
BRANCH   7   6
ATOM      3  C   UNL     1      -4.056  -0.496  24.121  0.00  0.00    +0.139 A 
ATOM      4  C   UNL     1      -4.400  -0.452  24.869  0.00  0.00    +0.037 A 
ATOM      5  C   UNL     1      -4.615   0.282  25.181  0.00  0.00    +0.001 A 
ATOM      6  C   UNL     1      -4.486   0.969  24.746  0.00  0.00    -0.000 A 
ATOM     35  C   UNL     1      -4.142   0.925  23.997  0.00  0.00    +0.001 A 
ATOM     36  C   UNL     1      -3.927   0.192  23.684  0.00  0.00    +0.037 A 
BRANCH   3   2
ATOM      1  C   UNL     1      -4.320  -1.888  23.936  0.00  0.00    +0.252 C 
ATOM      2  O   UNL     1      -3.840  -1.228  23.809  0.00  0.00    -0.471 OA
ENDBRANCH   3   2
ENDBRANCH   7   6
ENDBRANCH   8   7
ENDBRANCH  11   9
ENDBRANCH  12  11
ENDBRANCH  13  12
BRANCH  20  23
ATOM     23  N   UNL     1      -0.308   2.236  24.857  0.00  0.00    -0.213 NA
BRANCH  23  24
ATOM     24  C   UNL     1      -0.584   1.505  25.125  0.00  0.00    +0.116 C 
BRANCH  24  25
ATOM     25  C   UNL     1      -0.387   0.816  24.718  0.00  0.00    +0.014 A 
ATOM     26  C   UNL     1      -0.009   0.775  23.985  0.00  0.00    +0.073 A 
ATOM     27  N   UNL     1       0.078  -0.020  23.787  0.00  0.00    -0.324 N 
ATOM     28  C   UNL     1       0.428  -0.313  23.099  0.00  0.00    +0.130 C 
ATOM     29  C   UNL     1      -0.246  -0.472  24.396  0.00  0.00    +0.060 A 
ATOM     30  C   UNL     1      -0.533   0.045  24.971  0.00  0.00    +0.015 A 
ATOM     31  C   UNL     1      -0.892  -0.255  25.652  0.00  0.00    +0.001 A 
ATOM     32  C   UNL     1      -0.962  -1.069  25.757  0.00  0.00    +0.000 A 
ATOM     33  C   UNL     1      -0.675  -1.586  25.181  0.00  0.00    +0.001 A 
ATOM     34  C   UNL     1      -0.317  -1.288  24.501  0.00  0.00    +0.017 A 
ENDBRANCH  24  25
ENDBRANCH  23  24
ENDBRANCH  20  23
TORSDOF 9
ENDMDL
MODEL 5
REMARK VINA RESULT:     -11.3      1.339      4.074
REMARK  Name = 
REMARK  9 active torsions:
REMARK  status: ('A' for Active; 'I' for Inactive)
REMARK    1  A    between atoms: O_2  and  C_3
REMARK    2  A    between atoms: C_6  and  C_7
REMARK    3  A    between atoms: C_7  and  N_8
REMARK    4  A    between atoms: C_9  and  C_11
REMARK    5  A    between atoms: C_11  and  C_12
REMARK    6  A    between atoms: C_12  and  C_13
REMARK    7  A    between atoms: C_20  and  N_23
REMARK    8  A    between atoms: N_23  and  C_24
REMARK    9  A    between atoms: C_24  and  C_25
REMARK                            x       y       z     vdW  Elec       q    Type
REMARK                         _______ _______ _______ _____ _____    ______ ____
ROOT
ATOM     13  C   UNL     1      -2.212  -1.189  24.589  0.00  0.00    +0.080 C 
ATOM     14  C   UNL     1      -2.086  -1.978  24.793  0.00  0.00    +0.131 C 
ATOM     15  N   UNL     1      -1.347  -2.219  25.071  0.00  0.00    -0.203 NA
ATOM     16  C   UNL     1      -0.735  -1.671  25.145  0.00  0.00    +0.256 C 
ATOM     17  O   UNL     1       0.004  -1.911  25.423  0.00  0.00    -0.272 OA
ATOM     18  C   UNL     1      -0.861  -0.881  24.940  0.00  0.00    +0.138 C 
ATOM     19  C   UNL     1      -0.366  -0.222  24.954  0.00  0.00    +0.044 C 
ATOM     20  C   UNL     1      -0.799   0.427  24.684  0.00  0.00    +0.091 C 
ATOM     21  C   UNL     1      -1.562   0.168  24.504  0.00  0.00    +0.090 C 
ATOM     22  N   UNL     1      -1.600  -0.641  24.662  0.00  0.00    -0.265 NA
ENDROOT
BRANCH  13  12
ATOM     12  C   UNL     1      -2.951  -0.948  24.311  0.00  0.00    +0.027 C 
BRANCH  12  11
ATOM     11  C   UNL     1      -3.608  -0.976  24.808  0.00  0.00    +0.088 C 
BRANCH  11   9
ATOM      8  N   UNL     1      -4.465   0.159  24.945  0.00  0.00    -0.201 NA
ATOM      9  C   UNL     1      -4.297  -0.573  24.603  0.00  0.00    +0.242 C 
ATOM     10  O   UNL     1      -4.821  -0.902  24.057  0.00  0.00    -0.273 OA
BRANCH   8   7
ATOM      7  C   UNL     1      -5.154   0.563  24.741  0.00  0.00    +0.141 C 
BRANCH   7   6
ATOM      3  C   UNL     1      -5.551   2.850  25.599  0.00  0.00    +0.139 A 
ATOM      4  C   UNL     1      -5.846   2.199  26.009  0.00  0.00    +0.037 A 
ATOM      5  C   UNL     1      -5.714   1.436  25.723  0.00  0.00    +0.001 A 
ATOM      6  C   UNL     1      -5.286   1.325  25.027  0.00  0.00    -0.000 A 
ATOM     35  C   UNL     1      -4.990   1.977  24.617  0.00  0.00    +0.001 A 
ATOM     36  C   UNL     1      -5.122   2.740  24.903  0.00  0.00    +0.037 A 
BRANCH   3   2
ATOM      1  C   UNL     1      -5.600   4.262  25.383  0.00  0.00    +0.252 C 
ATOM      2  O   UNL     1      -5.683   3.612  25.885  0.00  0.00    -0.471 OA
ENDBRANCH   3   2
ENDBRANCH   7   6
ENDBRANCH   8   7
ENDBRANCH  11   9
ENDBRANCH  12  11
ENDBRANCH  13  12
BRANCH  20  23
ATOM     23  N   UNL     1      -0.519   1.199  24.609  0.00  0.00    -0.213 NA
BRANCH  23  24
ATOM     24  C   UNL     1      -0.767   1.783  25.136  0.00  0.00    +0.116 C 
BRANCH  24  25
ATOM     25  C   UNL     1      -0.740   2.577  24.917  0.00  0.00    +0.014 A 
ATOM     26  C   UNL     1      -0.264   2.900  24.324  0.00  0.00    +0.073 A 
ATOM     27  N   UNL     1      -0.413   3.711  24.292  0.00  0.00    -0.324 N 
ATOM     28  C   UNL     1      -0.057   4.249  23.778  0.00  0.00    +0.130 C 
ATOM     29  C   UNL     1      -0.980   3.889  24.864  0.00  0.00    +0.060 A 
ATOM     30  C   UNL     1      -1.181   3.188  25.250  0.00  0.00    +0.015 A 
ATOM     31  C   UNL     1      -1.742   3.198  25.856  0.00  0.00    +0.001 A 
ATOM     32  C   UNL     1      -2.100   3.907  26.075  0.00  0.00    +0.000 A 
ATOM     33  C   UNL     1      -1.898   4.608  25.689  0.00  0.00    +0.001 A 
ATOM     34  C   UNL     1      -1.338   4.599  25.084  0.00  0.00    +0.017 A 
ENDBRANCH  24  25
ENDBRANCH  23  24
ENDBRANCH  20  23
TORSDOF 9
ENDMDL
MODEL 6
REMARK VINA RESULT:     -10.6      1.148      4.332
REMARK  Name = 
REMARK  9 active torsions:
REMARK  status: ('A' for Active; 'I' for Inactive)
REMARK    1  A    between atoms: O_2  and  C_3
REMARK    2  A    between atoms: C_6  and  C_7
REMARK    3  A    between atoms: C_7  and  N_8
REMARK    4  A    between atoms: C_9  and  C_11
REMARK    5  A    between atoms: C_11  and  C_12
REMARK    6  A    between atoms: C_12  and  C_13
REMARK    7  A    between atoms: C_20  and  N_23
REMARK    8  A    between atoms: N_23  and  C_24
REMARK    9  A    between atoms: C_24  and  C_25
REMARK                            x       y       z     vdW  Elec       q    Type
REMARK                         _______ _______ _______ _____ _____    ______ ____
ROOT
ATOM     13  C   UNL     1      -0.322   1.538  24.800  0.00  0.00    +0.080 C 
ATOM     14  C   UNL     1       0.426   1.733  24.511  0.00  0.00    +0.131 C 
ATOM     15  N   UNL     1       0.581   2.501  24.253  0.00  0.00    -0.203 NA
ATOM     16  C   UNL     1      -0.011   3.074  24.285  0.00  0.00    +0.256 C 
ATOM     17  O   UNL     1       0.144   3.843  24.028  0.00  0.00    -0.272 OA
ATOM     18  C   UNL     1      -0.759   2.880  24.575  0.00  0.00    +0.138 C 
ATOM     19  C   UNL     1      -1.446   3.325  24.672  0.00  0.00    +0.044 C 
ATOM     20  C   UNL     1      -2.027   2.832  24.990  0.00  0.00    +0.091 C 
ATOM     21  C   UNL     1      -1.697   2.082  25.089  0.00  0.00    +0.090 C 
ATOM     22  N   UNL     1      -0.914   2.111  24.833  0.00  0.00    -0.265 NA
ENDROOT
BRANCH  13  12
ATOM     12  C   UNL     1      -0.477   0.769  25.058  0.00  0.00    +0.027 C 
BRANCH  12  11
ATOM     11  C   UNL     1      -0.248   0.126  24.596  0.00  0.00    +0.088 C 
BRANCH  11   9
ATOM      8  N   UNL     1      -1.235  -0.900  24.727  0.00  0.00    -0.201 NA
ATOM      9  C   UNL     1      -0.457  -0.639  24.822  0.00  0.00    +0.242 C 
ATOM     10  O   UNL     1       0.110  -1.145  25.143  0.00  0.00    -0.273 OA
BRANCH   8   7
ATOM      7  C   UNL     1      -1.445  -1.664  24.953  0.00  0.00    +0.141 C 
BRANCH   7   6
ATOM      3  C   UNL     1      -3.689  -2.548  24.397  0.00  0.00    +0.139 A 
ATOM      4  C   UNL     1      -3.018  -2.878  24.049  0.00  0.00    +0.037 A 
ATOM      5  C   UNL     1      -2.270  -2.582  24.235  0.00  0.00    +0.001 A 
ATOM      6  C   UNL     1      -2.193  -1.959  24.768  0.00  0.00    -0.000 A 
ATOM     35  C   UNL     1      -2.865  -1.629  25.116  0.00  0.00    +0.001 A 
ATOM     36  C   UNL     1      -3.612  -1.924  24.931  0.00  0.00    +0.037 A 
BRANCH   3   2
ATOM      1  C   UNL     1      -4.827  -2.581  23.533  0.00  0.00    +0.252 C 
ATOM      2  O   UNL     1      -4.436  -2.843  24.212  0.00  0.00    -0.471 OA
ENDBRANCH   3   2
ENDBRANCH   7   6
ENDBRANCH   8   7
ENDBRANCH  11   9
ENDBRANCH  12  11
ENDBRANCH  13  12
BRANCH  20  23
ATOM     23  N   UNL     1      -2.800   3.050  25.176  0.00  0.00    -0.213 NA
BRANCH  23  24
ATOM     24  C   UNL     1      -3.436   2.650  24.835  0.00  0.00    +0.116 C 
BRANCH  24  25
ATOM     25  C   UNL     1      -4.207   2.837  25.056  0.00  0.00    +0.014 A 
ATOM     26  C   UNL     1      -4.473   3.574  25.315  0.00  0.00    +0.073 A 
ATOM     27  N   UNL     1      -5.279   3.512  25.477  0.00  0.00    -0.324 N 
ATOM     28  C   UNL     1      -5.767   4.120  25.749  0.00  0.00    +0.130 C 
ATOM     29  C   UNL     1      -5.512   2.738  25.318  0.00  0.00    +0.060 A 
ATOM     30  C   UNL     1      -4.850   2.320  25.058  0.00  0.00    +0.015 A 
ATOM     31  C   UNL     1      -4.918   1.523  24.857  0.00  0.00    +0.001 A 
ATOM     32  C   UNL     1      -5.648   1.143  24.915  0.00  0.00    +0.000 A 
ATOM     33  C   UNL     1      -6.310   1.561  25.175  0.00  0.00    +0.001 A 
ATOM     34  C   UNL     1      -6.243   2.358  25.377  0.00  0.00    +0.017 A 
ENDBRANCH  24  25
ENDBRANCH  23  24
ENDBRANCH  20  23
TORSDOF 9
ENDMDL
