MODEL 1
REMARK VINA RESULT:     -14.3      0.000      0.000
REMARK  Name = 
REMARK  5 active torsions:
REMARK  status: ('A' for Active; 'I' for Inactive)
REMARK    1  A    between atoms: C_2  and  C_3
REMARK    2  A    between atoms: C_3  and  O_4
REMARK    3  A    between atoms: O_4  and  C_5
REMARK    4  A    between atoms: C_20  and  N_21
REMARK    5  A    between atoms: C_22  and  C_24
REMARK                            x       y       z     vdW  Elec       q    Type
REMARK                         _______ _______ _______ _____ _____    ______ ____
ROOT
ATOM      1  O   UNL     1      -1.077  -0.397  25.065  0.00  0.00    -0.271 OA
ATOM      2  C   UNL     1      -1.856  -0.612  24.900  0.00  0.00    +0.270 C 
ATOM     11  N   UNL     1      -2.051  -1.406  24.791  0.00  0.00    -0.276 N 
ATOM     12  C   UNL     1      -1.947  -2.233  24.734  0.00  0.00    +0.095 C 
ATOM     13  C   UNL     1      -2.877  -2.504  24.536  0.00  0.00    +0.043 C 
ATOM     14  C   UNL     1      -3.578  -2.884  24.371  0.00  0.00    +0.011 C 
ATOM     15  C   UNL     1      -3.356  -2.226  24.473  0.00  0.00    +0.058 C 
ATOM     16  C   UNL     1      -2.453  -1.980  24.663  0.00  0.00    +0.099 C 
ATOM     17  C   UNL     1      -3.659  -1.359  24.496  0.00  0.00    +0.041 A 
ATOM     18  C   UNL     1      -4.351  -0.919  24.408  0.00  0.00    +0.014 A 
ATOM     19  C   UNL     1      -4.332  -0.098  24.487  0.00  0.00    +0.023 A 
ATOM     20  C   UNL     1      -3.619   0.283  24.655  0.00  0.00    +0.130 A 
ATOM     30  C   UNL     1      -2.927  -0.156  24.743  0.00  0.00    +0.276 A 
ATOM     31  O   UNL     1      -2.580   0.580  24.875  0.00  0.00    -0.266 OA
ATOM     32  N   UNL     1      -2.947  -0.977  24.664  0.00  0.00    -0.298 N 
ATOM     33  C   UNL     1      -3.184  -1.595  24.563  0.00  0.00    +0.110 C 
ENDROOT
BRANCH  20  21
ATOM     21  N   UNL     1      -3.601   1.104  24.734  0.00  0.00    -0.171 NA
ATOM     22  C   UNL     1      -4.300   1.539  24.688  0.00  0.00    +0.269 C 
ATOM     23  O   UNL     1      -5.019   1.153  24.564  0.00  0.00    -0.268 OA
BRANCH  22  24
ATOM     24  C   UNL     1      -4.281   2.361  24.768  0.00  0.00    +0.058 A 
ATOM     25  C   UNL     1      -4.416   2.707  25.504  0.00  0.00    +0.025 A 
ATOM     26  C   UNL     1      -4.397   3.528  25.583  0.00  0.00    +0.099 A 
ATOM     27  N   UNL     1      -4.242   4.002  24.926  0.00  0.00    -0.242 NA
ATOM     28  C   UNL     1      -4.107   3.656  24.190  0.00  0.00    +0.099 A 
ATOM     29  C   UNL     1      -4.126   2.835  24.111  0.00  0.00    +0.025 A 
ENDBRANCH  22  24
ENDBRANCH  20  21
BRANCH   2   3
ATOM      3  C   UNL     1      -2.441  -0.032  24.845  0.00  0.00    +0.290 C 
BRANCH   3   4
ATOM      4  O   UNL     1      -2.268   0.748  25.047  0.00  0.00    -0.466 OA
BRANCH   4   5
ATOM      5  C   UNL     1      -1.517   1.056  24.901  0.00  0.00    +0.139 A 
ATOM      6  C   UNL     1      -1.022   1.251  25.532  0.00  0.00    +0.037 A 
ATOM      7  C   UNL     1      -0.270   1.559  25.388  0.00  0.00    +0.003 A 
ATOM      8  C   UNL     1      -0.013   1.672  24.612  0.00  0.00    +0.000 A 
ATOM      9  C   UNL     1      -0.508   1.477  23.980  0.00  0.00    +0.003 A 
ATOM     10  C   UNL     1      -1.259   1.169  24.126  0.00  0.00    +0.037 A 
ENDBRANCH   4   5
ENDBRANCH   3   4
ENDBRANCH   2   3
TORSDOF 5
ENDMDL
MODEL 2
REMARK VINA RESULT:     -14.1      1.050      2.943
REMARK  Name = 
REMARK  5 active torsions:
REMARK  status: ('A' for Active; 'I' for Inactive)
REMARK    1  A    between atoms: C_2  and  C_3
REMARK    2  A    between atoms: C_3  and  O_4
REMARK    3  A    between atoms: O_4  and  C_5
REMARK    4  A    between atoms: C_20  and  N_21
REMARK    5  A    between atoms: C_22  and  C_24
REMARK                            x       y       z     vdW  Elec       q    Type
REMARK                         _______ _______ _______ _____ _____    ______ ____
ROOT
ATOM      1  O   UNL     1      -4.496   0.605  24.257  0.00  0.00    -0.271 OA
ATOM      2  C   UNL     1      -3.927   0.017  24.366  0.00  0.00    +0.270 C 
ATOM     11  N   UNL     1      -4.130  -0.776  24.266  0.00  0.00    -0.276 N 
ATOM     12  C   UNL     1      -4.604  -1.445  24.104  0.00  0.00    +0.095 C 
ATOM     13  C   UNL     1      -3.932  -2.159  24.231  0.00  0.00    +0.043 C 
ATOM     14  C   UNL     1      -3.507  -2.851  24.296  0.00  0.00    +0.011 C 
ATOM     15  C   UNL     1      -3.391  -2.162  24.368  0.00  0.00    +0.058 C 
ATOM     16  C   UNL     1      -4.052  -1.484  24.242  0.00  0.00    +0.099 C 
ATOM     17  C   UNL     1      -2.728  -1.560  24.573  0.00  0.00    +0.041 A 
ATOM     18  C   UNL     1      -1.929  -1.532  24.778  0.00  0.00    +0.014 A 
ATOM     19  C   UNL     1      -1.564  -0.805  24.915  0.00  0.00    +0.023 A 
ATOM     20  C   UNL     1      -1.998  -0.106  24.848  0.00  0.00    +0.130 A 
ATOM     30  C   UNL     1      -2.796  -0.134  24.643  0.00  0.00    +0.276 A 
ATOM     31  O   UNL     1      -2.752   0.687  24.705  0.00  0.00    -0.266 OA
ATOM     32  N   UNL     1      -3.161  -0.861  24.506  0.00  0.00    -0.298 N 
ATOM     33  C   UNL     1      -3.245  -1.522  24.444  0.00  0.00    +0.110 C 
ENDROOT
BRANCH  20  21
ATOM     21  N   UNL     1      -1.632   0.620  24.985  0.00  0.00    -0.171 NA
ATOM     22  C   UNL     1      -0.829   0.649  25.169  0.00  0.00    +0.269 C 
ATOM     23  O   UNL     1      -0.390  -0.048  25.216  0.00  0.00    -0.268 OA
BRANCH  22  24
ATOM     24  C   UNL     1      -0.463   1.377  25.307  0.00  0.00    +0.058 A 
ATOM     25  C   UNL     1      -0.078   1.767  24.690  0.00  0.00    +0.025 A 
ATOM     26  C   UNL     1       0.288   2.495  24.828  0.00  0.00    +0.099 A 
ATOM     27  N   UNL     1       0.268   2.830  25.582  0.00  0.00    -0.242 NA
ATOM     28  C   UNL     1      -0.117   2.439  26.197  0.00  0.00    +0.099 A 
ATOM     29  C   UNL     1      -0.482   1.712  26.060  0.00  0.00    +0.025 A 
ENDBRANCH  22  24
ENDBRANCH  20  21
BRANCH   2   3
ATOM      3  C   UNL     1      -3.155   0.223  24.574  0.00  0.00    +0.290 C 
BRANCH   3   4
ATOM      4  O   UNL     1      -2.983   0.996  24.804  0.00  0.00    -0.466 OA
BRANCH   4   5
ATOM      5  C   UNL     1      -3.394   1.628  24.470  0.00  0.00    +0.139 A 
ATOM      6  C   UNL     1      -3.945   2.046  24.921  0.00  0.00    +0.037 A 
ATOM      7  C   UNL     1      -4.357   2.679  24.588  0.00  0.00    +0.003 A 
ATOM      8  C   UNL     1      -4.218   2.893  23.804  0.00  0.00    +0.000 A 
ATOM      9  C   UNL     1      -3.667   2.475  23.352  0.00  0.00    +0.003 A 
ATOM     10  C   UNL     1      -3.256   1.843  23.686  0.00  0.00    +0.037 A 
ENDBRANCH   4   5
ENDBRANCH   3   4
ENDBRANCH   2   3
TORSDOF 5
ENDMDL
MODEL 3
REMARK VINA RESULT:     -13.8      1.286      4.188
REMARK  Name = 
REMARK  5 active torsions:
REMARK  status: ('A' for Active; 'I' for Inactive)
REMARK    1  A    between atoms: C_2  and  C_3
REMARK    2  A    between atoms: C_3  and  O_4
REMARK    3  A    between atoms: O_4  and  C_5
REMARK    4  A    between atoms: C_20  and  N_21
REMARK    5  A    between atoms: C_22  and  C_24
REMARK                            x       y       z     vdW  Elec       q    Type
REMARK                         _______ _______ _______ _____ _____    ______ ____
ROOT
ATOM      1  O   UNL     1      -5.051   0.181  24.716  0.00  0.00    -0.271 OA
ATOM      2  C   UNL     1      -4.764   0.944  24.845  0.00  0.00    +0.270 C 
ATOM     11  N   UNL     1      -5.279   1.545  25.078  0.00  0.00    -0.276 N 
ATOM     12  C   UNL     1      -5.996   1.917  25.293  0.00  0.00    +0.095 C 
ATOM     13  C   UNL     1      -5.665   2.834  25.450  0.00  0.00    +0.043 C 
ATOM     14  C   UNL     1      -5.555   3.624  25.617  0.00  0.00    +0.011 C 
ATOM     15  C   UNL     1      -5.163   3.076  25.418  0.00  0.00    +0.058 C 
ATOM     16  C   UNL     1      -5.498   2.195  25.270  0.00  0.00    +0.099 C 
ATOM     17  C   UNL     1      -4.298   2.846  25.210  0.00  0.00    +0.041 A 
ATOM     18  C   UNL     1      -3.544   3.175  25.154  0.00  0.00    +0.014 A 
ATOM     19  C   UNL     1      -2.905   2.704  24.929  0.00  0.00    +0.023 A 
ATOM     20  C   UNL     1      -3.020   1.905  24.762  0.00  0.00    +0.130 A 
ATOM     30  C   UNL     1      -3.774   1.576  24.818  0.00  0.00    +0.276 A 
ATOM     31  O   UNL     1      -3.395   0.882  24.587  0.00  0.00    -0.266 OA
ATOM     32  N   UNL     1      -4.413   2.047  25.043  0.00  0.00    -0.298 N 
ATOM     33  C   UNL     1      -4.764   2.585  25.232  0.00  0.00    +0.110 C 
ENDROOT
BRANCH  20  21
ATOM     21  N   UNL     1      -2.381   1.435  24.537  0.00  0.00    -0.171 NA
ATOM     22  C   UNL     1      -1.630   1.769  24.459  0.00  0.00    +0.269 C 
ATOM     23  O   UNL     1      -1.519   2.573  24.605  0.00  0.00    -0.268 OA
BRANCH  22  24
ATOM     24  C   UNL     1      -0.990   1.298  24.234  0.00  0.00    +0.058 A 
ATOM     25  C   UNL     1      -0.541   0.912  24.809  0.00  0.00    +0.025 A 
ATOM     26  C   UNL     1       0.099   0.441  24.584  0.00  0.00    +0.099 A 
ATOM     27  N   UNL     1       0.288   0.357  23.785  0.00  0.00    -0.242 NA
ATOM     28  C   UNL     1      -0.161   0.742  23.212  0.00  0.00    +0.099 A 
ATOM     29  C   UNL     1      -0.801   1.213  23.436  0.00  0.00    +0.025 A 
ENDBRANCH  22  24
ENDBRANCH  20  21
BRANCH   2   3
ATOM      3  C   UNL     1      -3.961   1.106  24.741  0.00  0.00    +0.290 C 
BRANCH   3   4
ATOM      4  O   UNL     1      -3.467   0.540  24.400  0.00  0.00    -0.466 OA
BRANCH   4   5
ATOM      5  C   UNL     1      -3.610  -0.262  24.526  0.00  0.00    +0.139 A 
ATOM      6  C   UNL     1      -3.900  -0.731  23.912  0.00  0.00    +0.037 A 
ATOM      7  C   UNL     1      -4.042  -1.535  24.037  0.00  0.00    +0.003 A 
ATOM      8  C   UNL     1      -3.895  -1.868  24.777  0.00  0.00    +0.000 A 
ATOM      9  C   UNL     1      -3.605  -1.400  25.391  0.00  0.00    +0.003 A 
ATOM     10  C   UNL     1      -3.462  -0.597  25.265  0.00  0.00    +0.037 A 
ENDBRANCH   4   5
ENDBRANCH   3   4
ENDBRANCH   2   3
TORSDOF 5
ENDMDL
MODEL 4
REMARK VINA RESULT:     -13.7      1.028      3.902
REMARK  Name = 
REMARK  5 active torsions:
REMARK  status: ('A' for Active; 'I' for Inactive)
REMARK    1  A    between atoms: C_2  and  C_3
REMARK    2  A    between atoms: C_3  and  O_4
REMARK    3  A    between atoms: O_4  and  C_5
REMARK    4  A    between atoms: C_20  and  N_21
REMARK    5  A    between atoms: C_22  and  C_24
REMARK                            x       y       z     vdW  Elec       q    Type
REMARK                         _______ _______ _______ _____ _____    ______ ____
ROOT
ATOM      1  O   UNL     1      -1.938   2.485  24.297  0.00  0.00    -0.271 OA
ATOM      2  C   UNL     1      -2.726   2.415  24.530  0.00  0.00    +0.270 C 
ATOM     11  N   UNL     1      -3.167   3.091  24.701  0.00  0.00    -0.276 N 
ATOM     12  C   UNL     1      -3.345   3.901  24.799  0.00  0.00    +0.095 C 
ATOM     13  C   UNL     1      -4.289   3.832  25.080  0.00  0.00    +0.043 C 
ATOM     14  C   UNL     1      -5.060   3.944  25.318  0.00  0.00    +0.011 C 
ATOM     15  C   UNL     1      -4.639   3.405  25.161  0.00  0.00    +0.058 C 
ATOM     16  C   UNL     1      -3.727   3.489  24.891  0.00  0.00    +0.099 C 
ATOM     17  C   UNL     1      -4.631   2.487  25.108  0.00  0.00    +0.041 A 
ATOM     18  C   UNL     1      -5.124   1.835  25.220  0.00  0.00    +0.014 A 
ATOM     19  C   UNL     1      -4.835   1.073  25.091  0.00  0.00    +0.023 A 
ATOM     20  C   UNL     1      -4.054   0.964  24.850  0.00  0.00    +0.130 A 
ATOM     30  C   UNL     1      -3.561   1.616  24.738  0.00  0.00    +0.276 A 
ATOM     31  O   UNL     1      -2.999   1.047  24.537  0.00  0.00    -0.266 OA
ATOM     32  N   UNL     1      -3.850   2.377  24.867  0.00  0.00    -0.298 N 
ATOM     33  C   UNL     1      -4.272   2.873  25.021  0.00  0.00    +0.110 C 
ENDROOT
BRANCH  20  21
ATOM     21  N   UNL     1      -3.766   0.202  24.721  0.00  0.00    -0.171 NA
ATOM     22  C   UNL     1      -4.269  -0.448  24.793  0.00  0.00    +0.269 C 
ATOM     23  O   UNL     1      -5.062  -0.335  24.994  0.00  0.00    -0.268 OA
BRANCH  22  24
ATOM     24  C   UNL     1      -3.980  -1.210  24.664  0.00  0.00    +0.058 A 
ATOM     25  C   UNL     1      -4.075  -1.567  23.926  0.00  0.00    +0.025 A 
ATOM     26  C   UNL     1      -3.786  -2.330  23.796  0.00  0.00    +0.099 A 
ATOM     27  N   UNL     1      -3.404  -2.734  24.406  0.00  0.00    -0.242 NA
ATOM     28  C   UNL     1      -3.310  -2.377  25.143  0.00  0.00    +0.099 A 
ATOM     29  C   UNL     1      -3.598  -1.615  25.272  0.00  0.00    +0.025 A 
ENDBRANCH  22  24
ENDBRANCH  20  21
BRANCH   2   3
ATOM      3  C   UNL     1      -3.073   1.668  24.594  0.00  0.00    +0.290 C 
BRANCH   3   4
ATOM      4  O   UNL     1      -2.655   0.998  24.356  0.00  0.00    -0.466 OA
BRANCH   4   5
ATOM      5  C   UNL     1      -1.833   0.983  24.410  0.00  0.00    +0.139 A 
ATOM      6  C   UNL     1      -1.374   1.026  23.725  0.00  0.00    +0.037 A 
ATOM      7  C   UNL     1      -0.550   1.011  23.779  0.00  0.00    +0.003 A 
ATOM      8  C   UNL     1      -0.186   0.953  24.517  0.00  0.00    +0.000 A 
ATOM      9  C   UNL     1      -0.646   0.910  25.202  0.00  0.00    +0.003 A 
ATOM     10  C   UNL     1      -1.468   0.925  25.147  0.00  0.00    +0.037 A 
ENDBRANCH   4   5
ENDBRANCH   3   4
ENDBRANCH   2   3
TORSDOF 5
ENDMDL
MODEL 5
REMARK VINA RESULT:     -13.3      1.553      4.676
REMARK  Name = 
REMARK  5 active torsions:
REMARK  status: ('A' for Active; 'I' for Inactive)
REMARK    1  A    between atoms: C_2  and  C_3
REMARK    2  A    between atoms: C_3  and  O_4
REMARK    3  A    between atoms: O_4  and  C_5
REMARK    4  A    between atoms: C_20  and  N_21
REMARK    5  A    between atoms: C_22  and  C_24
REMARK                            x       y       z     vdW  Elec       q    Type
REMARK                         _______ _______ _______ _____ _____    ______ ____
ROOT
ATOM      1  O   UNL     1      -4.242   3.425  24.926  0.00  0.00    -0.271 OA
ATOM      2  C   UNL     1      -3.449   3.207  24.986  0.00  0.00    +0.270 C 
ATOM     11  N   UNL     1      -2.865   3.787  25.049  0.00  0.00    -0.276 N 
ATOM     12  C   UNL     1      -2.526   4.549  25.095  0.00  0.00    +0.095 C 
ATOM     13  C   UNL     1      -1.572   4.301  25.168  0.00  0.00    +0.043 C 
ATOM     14  C   UNL     1      -0.761   4.266  25.235  0.00  0.00    +0.011 C 
ATOM     15  C   UNL     1      -1.298   3.816  25.180  0.00  0.00    +0.058 C 
ATOM     16  C   UNL     1      -2.215   4.071  25.110  0.00  0.00    +0.099 C 
ATOM     17  C   UNL     1      -1.484   2.917  25.143  0.00  0.00    +0.041 A 
ATOM     18  C   UNL     1      -1.107   2.184  25.158  0.00  0.00    +0.014 A 
ATOM     19  C   UNL     1      -1.551   1.491  25.104  0.00  0.00    +0.023 A 
ATOM     20  C   UNL     1      -2.372   1.531  25.037  0.00  0.00    +0.130 A 
ATOM     30  C   UNL     1      -2.749   2.264  25.023  0.00  0.00    +0.276 A 
ATOM     31  O   UNL     1      -3.436   1.812  24.955  0.00  0.00    -0.266 OA
ATOM     32  N   UNL     1      -2.305   2.957  25.076  0.00  0.00    -0.298 N 
ATOM     33  C   UNL     1      -1.777   3.364  25.130  0.00  0.00    +0.110 C 
ENDROOT
BRANCH  20  21
ATOM     21  N   UNL     1      -2.815   0.837  24.984  0.00  0.00    -0.171 NA
ATOM     22  C   UNL     1      -2.437   0.104  24.988  0.00  0.00    +0.269 C 
ATOM     23  O   UNL     1      -1.615   0.065  25.046  0.00  0.00    -0.268 OA
BRANCH  22  24
ATOM     24  C   UNL     1      -2.881  -0.590  24.935  0.00  0.00    +0.058 A 
ATOM     25  C   UNL     1      -3.081  -1.004  25.620  0.00  0.00    +0.025 A 
ATOM     26  C   UNL     1      -3.526  -1.698  25.567  0.00  0.00    +0.099 A 
ATOM     27  N   UNL     1      -3.769  -1.976  24.829  0.00  0.00    -0.242 NA
ATOM     28  C   UNL     1      -3.569  -1.561  24.145  0.00  0.00    +0.099 A 
ATOM     29  C   UNL     1      -3.125  -0.868  24.198  0.00  0.00    +0.025 A 
ENDBRANCH  22  24
ENDBRANCH  20  21
BRANCH   2   3
ATOM      3  C   UNL     1      -3.239   2.408  24.985  0.00  0.00    +0.290 C 
BRANCH   3   4
ATOM      4  O   UNL     1      -3.805   1.834  24.813  0.00  0.00    -0.466 OA
BRANCH   4   5
ATOM      5  C   UNL     1      -4.594   1.955  25.019  0.00  0.00    +0.139 A 
ATOM      6  C   UNL     1      -5.161   2.067  24.430  0.00  0.00    +0.037 A 
ATOM      7  C   UNL     1      -5.951   2.189  24.636  0.00  0.00    +0.003 A 
ATOM      8  C   UNL     1      -6.173   2.198  25.431  0.00  0.00    +0.000 A 
ATOM      9  C   UNL     1      -5.605   2.086  26.020  0.00  0.00    +0.003 A 
ATOM     10  C   UNL     1      -4.816   1.965  25.813  0.00  0.00    +0.037 A 
ENDBRANCH   4   5
ENDBRANCH   3   4
ENDBRANCH   2   3
TORSDOF 5
ENDMDL
