MODEL 1
REMARK VINA RESULT:     -13.7      0.000      0.000
REMARK  Name = 
REMARK  8 active torsions:
REMARK  status: ('A' for Active; 'I' for Inactive)
REMARK    1  A    between atoms: C_2  and  C_3
REMARK    2  A    between atoms: C_5  and  C_6
REMARK    3  A    between atoms: C_6  and  N_7
REMARK    4  A    between atoms: N_7  and  C_8
REMARK    5  A    between atoms: N_7  and  C_16
REMARK    6  A    between atoms: C_8  and  C_9
REMARK    7  A    between atoms: C_16  and  C_17
REMARK    8  A    between atoms: C_24  and  N_27
REMARK                            x       y       z     vdW  Elec       q    Type
REMARK                         _______ _______ _______ _____ _____    ______ ____
ROOT
ATOM      3  C   UNL     1      -0.170   0.983  24.078  0.00  0.00    +0.180 C 
ATOM      4  O   UNL     1      -0.711   1.563  24.303  0.00  0.00    -0.350 OA
ATOM      5  C   UNL     1      -1.377   1.187  24.612  0.00  0.00    +0.148 C 
ATOM     24  C   UNL     1      -1.248   0.373  24.578  0.00  0.00    +0.120 C 
ATOM     25  C   UNL     1      -0.502   0.246  24.249  0.00  0.00    +0.198 C 
ATOM     26  O   UNL     1      -0.150  -0.488  24.113  0.00  0.00    -0.219 OA
ENDROOT
BRANCH  24  27
ATOM     27  N   UNL     1      -1.772  -0.212  24.830  0.00  0.00    -0.266 NA
ATOM     28  C   UNL     1      -1.771  -0.455  25.620  0.00  0.00    +0.077 C 
ATOM     29  C   UNL     1      -2.296  -1.040  25.871  0.00  0.00    +0.043 C 
ATOM     30  C   UNL     1      -2.821  -1.382  25.335  0.00  0.00    -0.023 A 
ATOM     31  C   UNL     1      -2.822  -1.139  24.546  0.00  0.00    -0.010 A 
ATOM     32  C   UNL     1      -2.297  -0.554  24.294  0.00  0.00    +0.099 C 
ATOM     33  C   UNL     1      -3.347  -1.481  24.010  0.00  0.00    -0.003 A 
ATOM     34  C   UNL     1      -3.871  -2.066  24.262  0.00  0.00    -0.000 A 
ATOM     35  C   UNL     1      -3.870  -2.309  25.051  0.00  0.00    -0.000 A 
ATOM     36  C   UNL     1      -3.345  -1.967  25.587  0.00  0.00    -0.004 A 
ENDBRANCH  24  27
BRANCH   3   2
ATOM      1  O   UNL     1       1.109   1.620  24.111  0.00  0.00    -0.218 OA
ATOM      2  C   UNL     1       0.572   1.113  23.743  0.00  0.00    +0.214 C 
ENDBRANCH   3   2
BRANCH   5   6
ATOM      6  C   UNL     1      -2.054   1.559  24.903  0.00  0.00    +0.104 C 
BRANCH   6   7
ATOM      7  N   UNL     1      -2.092   2.382  24.928  0.00  0.00    -0.263 NA
BRANCH   7   8
ATOM      8  C   UNL     1      -1.572   2.805  25.411  0.00  0.00    +0.099 C 
BRANCH   8   9
ATOM      9  C   UNL     1      -1.507   3.624  25.329  0.00  0.00    -0.006 A 
ATOM     10  C   UNL     1      -0.980   3.942  24.780  0.00  0.00    -0.001 A 
ATOM     11  C   UNL     1      -0.915   4.761  24.697  0.00  0.00    +0.029 A 
ATOM     12  C   UNL     1      -1.377   5.260  25.164  0.00  0.00    +0.140 A 
ATOM     13  F   UNL     1      -1.312   6.079  25.082  0.00  0.00    -0.204 F 
ATOM     14  C   UNL     1      -1.904   4.941  25.713  0.00  0.00    +0.029 A 
ATOM     15  C   UNL     1      -1.969   4.124  25.795  0.00  0.00    -0.001 A 
ENDBRANCH   8   9
ENDBRANCH   7   8
BRANCH   7  16
ATOM     16  C   UNL     1      -2.649   2.784  24.472  0.00  0.00    +0.099 C 
BRANCH  16  17
ATOM     17  C   UNL     1      -3.440   2.550  24.484  0.00  0.00    -0.006 A 
ATOM     18  C   UNL     1      -3.824   2.432  25.204  0.00  0.00    -0.001 A 
ATOM     19  C   UNL     1      -4.615   2.198  25.216  0.00  0.00    +0.029 A 
ATOM     20  C   UNL     1      -5.021   2.081  24.508  0.00  0.00    +0.140 A 
ATOM     21  F   UNL     1      -5.812   1.846  24.519  0.00  0.00    -0.204 F 
ATOM     22  C   UNL     1      -4.637   2.198  23.787  0.00  0.00    +0.029 A 
ATOM     23  C   UNL     1      -3.846   2.433  23.776  0.00  0.00    -0.001 A 
ENDBRANCH  16  17
ENDBRANCH   7  16
ENDBRANCH   6   7
ENDBRANCH   5   6
TORSDOF 8
ENDMDL
MODEL 2
REMARK VINA RESULT:     -13.7      0.014      2.661
REMARK  Name = 
REMARK  8 active torsions:
REMARK  status: ('A' for Active; 'I' for Inactive)
REMARK    1  A    between atoms: C_2  and  C_3
REMARK    2  A    between atoms: C_5  and  C_6
REMARK    3  A    between atoms: C_6  and  N_7
REMARK    4  A    between atoms: N_7  and  C_8
REMARK    5  A    between atoms: N_7  and  C_16
REMARK    6  A    between atoms: C_8  and  C_9
REMARK    7  A    between atoms: C_16  and  C_17
REMARK    8  A    between atoms: C_24  and  N_27
REMARK                            x       y       z     vdW  Elec       q    Type
REMARK                         _______ _______ _______ _____ _____    ______ ____
ROOT
ATOM      3  C   UNL     1      -0.179   0.983  24.075  0.00  0.00    +0.180 C 
ATOM      4  O   UNL     1      -0.721   1.562  24.299  0.00  0.00    -0.350 OA
ATOM      5  C   UNL     1      -1.386   1.184  24.609  0.00  0.00    +0.148 C 
ATOM     24  C   UNL     1      -1.254   0.370  24.576  0.00  0.00    +0.120 C 
ATOM     25  C   UNL     1      -0.508   0.245  24.246  0.00  0.00    +0.198 C 
ATOM     26  O   UNL     1      -0.154  -0.488  24.112  0.00  0.00    -0.219 OA
ENDROOT
BRANCH  24  27
ATOM     27  N   UNL     1      -1.776  -0.216  24.829  0.00  0.00    -0.266 NA
ATOM     28  C   UNL     1      -1.774  -0.458  25.618  0.00  0.00    +0.077 C 
ATOM     29  C   UNL     1      -2.297  -1.045  25.871  0.00  0.00    +0.043 C 
ATOM     30  C   UNL     1      -2.822  -1.389  25.335  0.00  0.00    -0.023 A 
ATOM     31  C   UNL     1      -2.824  -1.147  24.546  0.00  0.00    -0.010 A 
ATOM     32  C   UNL     1      -2.302  -0.560  24.293  0.00  0.00    +0.099 C 
ATOM     33  C   UNL     1      -3.349  -1.490  24.011  0.00  0.00    -0.003 A 
ATOM     34  C   UNL     1      -3.871  -2.076  24.263  0.00  0.00    -0.000 A 
ATOM     35  C   UNL     1      -3.869  -2.319  25.053  0.00  0.00    -0.000 A 
ATOM     36  C   UNL     1      -3.345  -1.975  25.588  0.00  0.00    -0.004 A 
ENDBRANCH  24  27
BRANCH   3   2
ATOM      1  O   UNL     1       1.101   1.617  24.111  0.00  0.00    -0.218 OA
ATOM      2  C   UNL     1       0.563   1.115  23.739  0.00  0.00    +0.214 C 
ENDBRANCH   3   2
BRANCH   5   6
ATOM      6  C   UNL     1      -2.063   1.554  24.900  0.00  0.00    +0.104 C 
BRANCH   6   7
ATOM      7  N   UNL     1      -2.103   2.377  24.928  0.00  0.00    -0.263 NA
BRANCH   7   8
ATOM      8  C   UNL     1      -2.663   2.780  24.474  0.00  0.00    +0.099 C 
BRANCH   8   9
ATOM      9  C   UNL     1      -3.453   2.540  24.487  0.00  0.00    -0.006 A 
ATOM     10  C   UNL     1      -3.859   2.420  23.780  0.00  0.00    -0.001 A 
ATOM     11  C   UNL     1      -4.649   2.181  23.793  0.00  0.00    +0.029 A 
ATOM     12  C   UNL     1      -5.031   2.061  24.514  0.00  0.00    +0.140 A 
ATOM     13  F   UNL     1      -5.821   1.822  24.527  0.00  0.00    -0.204 F 
ATOM     14  C   UNL     1      -4.625   2.181  25.222  0.00  0.00    +0.029 A 
ATOM     15  C   UNL     1      -3.836   2.420  25.208  0.00  0.00    -0.001 A 
ENDBRANCH   8   9
ENDBRANCH   7   8
BRANCH   7  16
ATOM     16  C   UNL     1      -1.583   2.799  25.409  0.00  0.00    +0.099 C 
BRANCH  16  17
ATOM     17  C   UNL     1      -1.519   3.618  25.329  0.00  0.00    -0.006 A 
ATOM     18  C   UNL     1      -0.992   3.940  24.783  0.00  0.00    -0.001 A 
ATOM     19  C   UNL     1      -0.928   4.759  24.704  0.00  0.00    +0.029 A 
ATOM     20  C   UNL     1      -1.392   5.256  25.172  0.00  0.00    +0.140 A 
ATOM     21  F   UNL     1      -1.329   6.074  25.093  0.00  0.00    -0.204 F 
ATOM     22  C   UNL     1      -1.919   4.933  25.719  0.00  0.00    +0.029 A 
ATOM     23  C   UNL     1      -1.982   4.115  25.797  0.00  0.00    -0.001 A 
ENDBRANCH  16  17
ENDBRANCH   7  16
ENDBRANCH   6   7
ENDBRANCH   5   6
TORSDOF 8
ENDMDL
MODEL 3
REMARK VINA RESULT:     -13.5      1.936      3.643
REMARK  Name = 
REMARK  8 active torsions:
REMARK  status: ('A' for Active; 'I' for Inactive)
REMARK    1  A    between atoms: C_2  and  C_3
REMARK    2  A    between atoms: C_5  and  C_6
REMARK    3  A    between atoms: C_6  and  N_7
REMARK    4  A    between atoms: N_7  and  C_8
REMARK    5  A    between atoms: N_7  and  C_16
REMARK    6  A    between atoms: C_8  and  C_9
REMARK    7  A    between atoms: C_16  and  C_17
REMARK    8  A    between atoms: C_24  and  N_27
REMARK                            x       y       z     vdW  Elec       q    Type
REMARK                         _______ _______ _______ _____ _____    ______ ____
ROOT
ATOM      3  C   UNL     1      -4.860   2.011  24.940  0.00  0.00    +0.180 C 
ATOM      4  O   UNL     1      -4.055   2.182  24.875  0.00  0.00    -0.350 OA
ATOM      5  C   UNL     1      -3.639   1.470  24.906  0.00  0.00    +0.148 C 
ATOM     24  C   UNL     1      -4.188   0.858  24.991  0.00  0.00    +0.120 C 
ATOM     25  C   UNL     1      -4.942   1.193  25.011  0.00  0.00    +0.198 C 
ATOM     26  O   UNL     1      -5.653   0.781  25.090  0.00  0.00    -0.219 OA
ENDROOT
BRANCH  24  27
ATOM     27  N   UNL     1      -4.012   0.055  25.045  0.00  0.00    -0.266 NA
ATOM     28  C   UNL     1      -3.751  -0.263  25.761  0.00  0.00    +0.077 C 
ATOM     29  C   UNL     1      -3.575  -1.068  25.814  0.00  0.00    +0.043 C 
ATOM     30  C   UNL     1      -3.661  -1.555  25.154  0.00  0.00    -0.023 A 
ATOM     31  C   UNL     1      -3.923  -1.237  24.438  0.00  0.00    -0.010 A 
ATOM     32  C   UNL     1      -4.098  -0.432  24.384  0.00  0.00    +0.099 C 
ATOM     33  C   UNL     1      -4.009  -1.723  23.778  0.00  0.00    -0.003 A 
ATOM     34  C   UNL     1      -3.833  -2.527  23.832  0.00  0.00    -0.000 A 
ATOM     35  C   UNL     1      -3.571  -2.845  24.548  0.00  0.00    -0.000 A 
ATOM     36  C   UNL     1      -3.486  -2.359  25.208  0.00  0.00    -0.004 A 
ENDBRANCH  24  27
BRANCH   3   2
ATOM      1  O   UNL     1      -5.535   3.120  25.537  0.00  0.00    -0.218 OA
ATOM      2  C   UNL     1      -5.474   2.561  24.934  0.00  0.00    +0.214 C 
ENDBRANCH   3   2
BRANCH   5   6
ATOM      6  C   UNL     1      -2.820   1.384  24.861  0.00  0.00    +0.104 C 
BRANCH   6   7
ATOM      7  N   UNL     1      -2.337   2.051  24.847  0.00  0.00    -0.263 NA
BRANCH   7   8
ATOM      8  C   UNL     1      -1.724   2.105  24.296  0.00  0.00    +0.099 C 
BRANCH   8   9
ATOM      9  C   UNL     1      -1.247   1.449  24.145  0.00  0.00    -0.006 A 
ATOM     10  C   UNL     1      -1.202   1.138  23.382  0.00  0.00    -0.001 A 
ATOM     11  C   UNL     1      -0.725   0.482  23.231  0.00  0.00    +0.029 A 
ATOM     12  C   UNL     1      -0.292   0.138  23.843  0.00  0.00    +0.140 A 
ATOM     13  F   UNL     1       0.186  -0.518  23.692  0.00  0.00    -0.204 F 
ATOM     14  C   UNL     1      -0.336   0.449  24.606  0.00  0.00    +0.029 A 
ATOM     15  C   UNL     1      -0.813   1.105  24.756  0.00  0.00    -0.001 A 
ENDBRANCH   8   9
ENDBRANCH   7   8
BRANCH   7  16
ATOM     16  C   UNL     1      -2.464   2.665  25.382  0.00  0.00    +0.099 C 
BRANCH  16  17
ATOM     17  C   UNL     1      -2.050   3.375  25.302  0.00  0.00    -0.006 A 
ATOM     18  C   UNL     1      -2.302   3.940  24.757  0.00  0.00    -0.001 A 
ATOM     19  C   UNL     1      -1.889   4.650  24.677  0.00  0.00    +0.029 A 
ATOM     20  C   UNL     1      -1.224   4.794  25.143  0.00  0.00    +0.140 A 
ATOM     21  F   UNL     1      -0.810   5.503  25.064  0.00  0.00    -0.204 F 
ATOM     22  C   UNL     1      -0.972   4.229  25.689  0.00  0.00    +0.029 A 
ATOM     23  C   UNL     1      -1.385   3.519  25.768  0.00  0.00    -0.001 A 
ENDBRANCH  16  17
ENDBRANCH   7  16
ENDBRANCH   6   7
ENDBRANCH   5   6
TORSDOF 8
ENDMDL
MODEL 4
REMARK VINA RESULT:     -13.5      1.937      3.138
REMARK  Name = 
REMARK  8 active torsions:
REMARK  status: ('A' for Active; 'I' for Inactive)
REMARK    1  A    between atoms: C_2  and  C_3
REMARK    2  A    between atoms: C_5  and  C_6
REMARK    3  A    between atoms: C_6  and  N_7
REMARK    4  A    between atoms: N_7  and  C_8
REMARK    5  A    between atoms: N_7  and  C_16
REMARK    6  A    between atoms: C_8  and  C_9
REMARK    7  A    between atoms: C_16  and  C_17
REMARK    8  A    between atoms: C_24  and  N_27
REMARK                            x       y       z     vdW  Elec       q    Type
REMARK                         _______ _______ _______ _____ _____    ______ ____
ROOT
ATOM      3  C   UNL     1      -4.872   2.005  24.950  0.00  0.00    +0.180 C 
ATOM      4  O   UNL     1      -4.067   2.179  24.889  0.00  0.00    -0.350 OA
ATOM      5  C   UNL     1      -3.650   1.468  24.917  0.00  0.00    +0.148 C 
ATOM     24  C   UNL     1      -4.196   0.854  24.997  0.00  0.00    +0.120 C 
ATOM     25  C   UNL     1      -4.952   1.186  25.017  0.00  0.00    +0.198 C 
ATOM     26  O   UNL     1      -5.661   0.772  25.091  0.00  0.00    -0.219 OA
ENDROOT
BRANCH  24  27
ATOM     27  N   UNL     1      -4.019   0.051  25.047  0.00  0.00    -0.266 NA
ATOM     28  C   UNL     1      -3.754  -0.270  25.760  0.00  0.00    +0.077 C 
ATOM     29  C   UNL     1      -3.576  -1.074  25.810  0.00  0.00    +0.043 C 
ATOM     30  C   UNL     1      -3.663  -1.558  25.147  0.00  0.00    -0.023 A 
ATOM     31  C   UNL     1      -3.928  -1.238  24.434  0.00  0.00    -0.010 A 
ATOM     32  C   UNL     1      -4.105  -0.434  24.384  0.00  0.00    +0.099 C 
ATOM     33  C   UNL     1      -4.015  -1.722  23.772  0.00  0.00    -0.003 A 
ATOM     34  C   UNL     1      -3.837  -2.525  23.822  0.00  0.00    -0.000 A 
ATOM     35  C   UNL     1      -3.572  -2.845  24.535  0.00  0.00    -0.000 A 
ATOM     36  C   UNL     1      -3.485  -2.362  25.197  0.00  0.00    -0.004 A 
ENDBRANCH  24  27
BRANCH   3   2
ATOM      1  O   UNL     1      -5.540   3.122  25.540  0.00  0.00    -0.218 OA
ATOM      2  C   UNL     1      -5.488   2.553  24.946  0.00  0.00    +0.214 C 
ENDBRANCH   3   2
BRANCH   5   6
ATOM      6  C   UNL     1      -2.830   1.385  24.874  0.00  0.00    +0.104 C 
BRANCH   6   7
ATOM      7  N   UNL     1      -2.349   2.054  24.852  0.00  0.00    -0.263 NA
BRANCH   7   8
ATOM      8  C   UNL     1      -2.473   2.669  25.388  0.00  0.00    +0.099 C 
BRANCH   8   9
ATOM      9  C   UNL     1      -2.057   3.377  25.306  0.00  0.00    -0.006 A 
ATOM     10  C   UNL     1      -2.312   3.946  24.766  0.00  0.00    -0.001 A 
ATOM     11  C   UNL     1      -1.896   4.653  24.684  0.00  0.00    +0.029 A 
ATOM     12  C   UNL     1      -1.225   4.792  25.142  0.00  0.00    +0.140 A 
ATOM     13  F   UNL     1      -0.808   5.500  25.060  0.00  0.00    -0.204 F 
ATOM     14  C   UNL     1      -0.969   4.224  25.683  0.00  0.00    +0.029 A 
ATOM     15  C   UNL     1      -1.385   3.517  25.765  0.00  0.00    -0.001 A 
ENDBRANCH   8   9
ENDBRANCH   7   8
BRANCH   7  16
ATOM     16  C   UNL     1      -1.744   2.109  24.295  0.00  0.00    +0.099 C 
BRANCH  16  17
ATOM     17  C   UNL     1      -1.265   1.455  24.139  0.00  0.00    -0.006 A 
ATOM     18  C   UNL     1      -0.828   1.110  24.747  0.00  0.00    -0.001 A 
ATOM     19  C   UNL     1      -0.349   0.456  24.591  0.00  0.00    +0.029 A 
ATOM     20  C   UNL     1      -0.308   0.148  23.826  0.00  0.00    +0.140 A 
ATOM     21  F   UNL     1       0.171  -0.505  23.669  0.00  0.00    -0.204 F 
ATOM     22  C   UNL     1      -0.745   0.494  23.218  0.00  0.00    +0.029 A 
ATOM     23  C   UNL     1      -1.224   1.148  23.375  0.00  0.00    -0.001 A 
ENDBRANCH  16  17
ENDBRANCH   7  16
ENDBRANCH   6   7
ENDBRANCH   5   6
TORSDOF 8
ENDMDL
MODEL 5
REMARK VINA RESULT:     -13.1      1.247      4.203
REMARK  Name = 
REMARK  8 active torsions:
REMARK  status: ('A' for Active; 'I' for Inactive)
REMARK    1  A    between atoms: C_2  and  C_3
REMARK    2  A    between atoms: C_5  and  C_6
REMARK    3  A    between atoms: C_6  and  N_7
REMARK    4  A    between atoms: N_7  and  C_8
REMARK    5  A    between atoms: N_7  and  C_16
REMARK    6  A    between atoms: C_8  and  C_9
REMARK    7  A    between atoms: C_16  and  C_17
REMARK    8  A    between atoms: C_24  and  N_27
REMARK                            x       y       z     vdW  Elec       q    Type
REMARK                         _______ _______ _______ _____ _____    ______ ____
ROOT
ATOM      3  C   UNL     1       0.013   0.448  23.874  0.00  0.00    +0.180 C 
ATOM      4  O   UNL     1      -0.769   0.222  24.006  0.00  0.00    -0.350 OA
ATOM      5  C   UNL     1      -1.159   0.852  24.370  0.00  0.00    +0.148 C 
ATOM     24  C   UNL     1      -0.617   1.468  24.462  0.00  0.00    +0.120 C 
ATOM     25  C   UNL     1       0.107   1.218  24.155  0.00  0.00    +0.198 C 
ATOM     26  O   UNL     1       0.803   1.661  24.134  0.00  0.00    -0.219 OA
ENDROOT
BRANCH  24  27
ATOM     27  N   UNL     1      -0.773   2.203  24.801  0.00  0.00    -0.266 NA
ATOM     28  C   UNL     1      -0.763   2.289  25.622  0.00  0.00    +0.077 C 
ATOM     29  C   UNL     1      -0.918   3.026  25.961  0.00  0.00    +0.043 C 
ATOM     30  C   UNL     1      -1.084   3.675  25.480  0.00  0.00    -0.023 A 
ATOM     31  C   UNL     1      -1.094   3.589  24.659  0.00  0.00    -0.010 A 
ATOM     32  C   UNL     1      -0.939   2.853  24.320  0.00  0.00    +0.099 C 
ATOM     33  C   UNL     1      -1.260   4.238  24.178  0.00  0.00    -0.003 A 
ATOM     34  C   UNL     1      -1.415   4.973  24.517  0.00  0.00    -0.000 A 
ATOM     35  C   UNL     1      -1.405   5.060  25.338  0.00  0.00    -0.000 A 
ATOM     36  C   UNL     1      -1.240   4.411  25.819  0.00  0.00    -0.004 A 
ENDBRANCH  24  27
BRANCH   3   2
ATOM      1  O   UNL     1       0.487  -0.316  22.763  0.00  0.00    -0.218 OA
ATOM      2  C   UNL     1       0.599  -0.014  23.522  0.00  0.00    +0.214 C 
ENDBRANCH   3   2
BRANCH   5   6
ATOM      6  C   UNL     1      -1.951   0.864  24.600  0.00  0.00    +0.104 C 
BRANCH   6   7
ATOM      7  N   UNL     1      -2.391   0.167  24.598  0.00  0.00    -0.263 NA
BRANCH   7   8
ATOM      8  C   UNL     1      -3.141   0.153  24.253  0.00  0.00    +0.099 C 
BRANCH   8   9
ATOM      9  C   UNL     1      -3.626   0.820  24.293  0.00  0.00    -0.006 A 
ATOM     10  C   UNL     1      -3.983   1.028  25.007  0.00  0.00    -0.001 A 
ATOM     11  C   UNL     1      -4.468   1.695  25.047  0.00  0.00    +0.029 A 
ATOM     12  C   UNL     1      -4.594   2.153  24.373  0.00  0.00    +0.140 A 
ATOM     13  F   UNL     1      -5.079   2.820  24.413  0.00  0.00    -0.204 F 
ATOM     14  C   UNL     1      -4.237   1.946  23.659  0.00  0.00    +0.029 A 
ATOM     15  C   UNL     1      -3.753   1.280  23.619  0.00  0.00    -0.001 A 
ENDBRANCH   8   9
ENDBRANCH   7   8
BRANCH   7  16
ATOM     16  C   UNL     1      -2.084  -0.517  24.941  0.00  0.00    +0.099 C 
BRANCH  16  17
ATOM     17  C   UNL     1      -2.532  -1.209  24.955  0.00  0.00    -0.006 A 
ATOM     18  C   UNL     1      -2.565  -1.694  24.289  0.00  0.00    -0.001 A 
ATOM     19  C   UNL     1      -3.013  -2.386  24.304  0.00  0.00    +0.029 A 
ATOM     20  C   UNL     1      -3.429  -2.594  24.985  0.00  0.00    +0.140 A 
ATOM     21  F   UNL     1      -3.877  -3.286  25.001  0.00  0.00    -0.204 F 
ATOM     22  C   UNL     1      -3.396  -2.109  25.652  0.00  0.00    +0.029 A 
ATOM     23  C   UNL     1      -2.948  -1.417  25.637  0.00  0.00    -0.001 A 
ENDBRANCH  16  17
ENDBRANCH   7  16
ENDBRANCH   6   7
ENDBRANCH   5   6
TORSDOF 8
ENDMDL
MODEL 6
REMARK VINA RESULT:     -13.1      1.247      4.460
REMARK  Name = 
REMARK  8 active torsions:
REMARK  status: ('A' for Active; 'I' for Inactive)
REMARK    1  A    between atoms: C_2  and  C_3
REMARK    2  A    between atoms: C_5  and  C_6
REMARK    3  A    between atoms: C_6  and  N_7
REMARK    4  A    between atoms: N_7  and  C_8
REMARK    5  A    between atoms: N_7  and  C_16
REMARK    6  A    between atoms: C_8  and  C_9
REMARK    7  A    between atoms: C_16  and  C_17
REMARK    8  A    between atoms: C_24  and  N_27
REMARK                            x       y       z     vdW  Elec       q    Type
REMARK                         _______ _______ _______ _____ _____    ______ ____
ROOT
ATOM      3  C   UNL     1       0.010   0.445  23.882  0.00  0.00    +0.180 C 
ATOM      4  O   UNL     1      -0.774   0.222  24.008  0.00  0.00    -0.350 OA
ATOM      5  C   UNL     1      -1.164   0.851  24.370  0.00  0.00    +0.148 C 
ATOM     24  C   UNL     1      -0.621   1.465  24.468  0.00  0.00    +0.120 C 
ATOM     25  C   UNL     1       0.106   1.214  24.167  0.00  0.00    +0.198 C 
ATOM     26  O   UNL     1       0.803   1.654  24.153  0.00  0.00    -0.219 OA
ENDROOT
BRANCH  24  27
ATOM     27  N   UNL     1      -0.776   2.200  24.808  0.00  0.00    -0.266 NA
ATOM     28  C   UNL     1      -0.770   2.284  25.630  0.00  0.00    +0.077 C 
ATOM     29  C   UNL     1      -0.926   3.019  25.970  0.00  0.00    +0.043 C 
ATOM     30  C   UNL     1      -1.087   3.671  25.490  0.00  0.00    -0.023 A 
ATOM     31  C   UNL     1      -1.093   3.587  24.669  0.00  0.00    -0.010 A 
ATOM     32  C   UNL     1      -0.938   2.851  24.329  0.00  0.00    +0.099 C 
ATOM     33  C   UNL     1      -1.254   4.238  24.189  0.00  0.00    -0.003 A 
ATOM     34  C   UNL     1      -1.410   4.972  24.529  0.00  0.00    -0.000 A 
ATOM     35  C   UNL     1      -1.404   5.056  25.351  0.00  0.00    -0.000 A 
ATOM     36  C   UNL     1      -1.243   4.406  25.830  0.00  0.00    -0.004 A 
ENDBRANCH  24  27
BRANCH   3   2
ATOM      1  O   UNL     1       0.502  -0.294  22.762  0.00  0.00    -0.218 OA
ATOM      2  C   UNL     1       0.597  -0.018  23.533  0.00  0.00    +0.214 C 
ENDBRANCH   3   2
BRANCH   5   6
ATOM      6  C   UNL     1      -1.958   0.866  24.595  0.00  0.00    +0.104 C 
BRANCH   6   7
ATOM      7  N   UNL     1      -2.398   0.169  24.596  0.00  0.00    -0.263 NA
BRANCH   7   8
ATOM      8  C   UNL     1      -2.086  -0.515  24.937  0.00  0.00    +0.099 C 
BRANCH   8   9
ATOM      9  C   UNL     1      -2.535  -1.208  24.955  0.00  0.00    -0.006 A 
ATOM     10  C   UNL     1      -2.943  -1.417  25.640  0.00  0.00    -0.001 A 
ATOM     11  C   UNL     1      -3.392  -2.110  25.658  0.00  0.00    +0.029 A 
ATOM     12  C   UNL     1      -3.432  -2.592  24.990  0.00  0.00    +0.140 A 
ATOM     13  F   UNL     1      -3.881  -3.284  25.008  0.00  0.00    -0.204 F 
ATOM     14  C   UNL     1      -3.024  -2.382  24.304  0.00  0.00    +0.029 A 
ATOM     15  C   UNL     1      -2.576  -1.691  24.287  0.00  0.00    -0.001 A 
ENDBRANCH   8   9
ENDBRANCH   7   8
BRANCH   7  16
ATOM     16  C   UNL     1      -3.149   0.154  24.256  0.00  0.00    +0.099 C 
BRANCH  16  17
ATOM     17  C   UNL     1      -3.632   0.822  24.293  0.00  0.00    -0.006 A 
ATOM     18  C   UNL     1      -3.993   1.032  25.004  0.00  0.00    -0.001 A 
ATOM     19  C   UNL     1      -4.476   1.700  25.041  0.00  0.00    +0.029 A 
ATOM     20  C   UNL     1      -4.598   2.158  24.366  0.00  0.00    +0.140 A 
ATOM     21  F   UNL     1      -5.081   2.826  24.402  0.00  0.00    -0.204 F 
ATOM     22  C   UNL     1      -4.237   1.948  23.654  0.00  0.00    +0.029 A 
ATOM     23  C   UNL     1      -3.754   1.280  23.618  0.00  0.00    -0.001 A 
ENDBRANCH  16  17
ENDBRANCH   7  16
ENDBRANCH   6   7
ENDBRANCH   5   6
TORSDOF 8
ENDMDL
MODEL 7
REMARK VINA RESULT:     -13.1      2.088      5.457
REMARK  Name = 
REMARK  8 active torsions:
REMARK  status: ('A' for Active; 'I' for Inactive)
REMARK    1  A    between atoms: C_2  and  C_3
REMARK    2  A    between atoms: C_5  and  C_6
REMARK    3  A    between atoms: C_6  and  N_7
REMARK    4  A    between atoms: N_7  and  C_8
REMARK    5  A    between atoms: N_7  and  C_16
REMARK    6  A    between atoms: C_8  and  C_9
REMARK    7  A    between atoms: C_16  and  C_17
REMARK    8  A    between atoms: C_24  and  N_27
REMARK                            x       y       z     vdW  Elec       q    Type
REMARK                         _______ _______ _______ _____ _____    ______ ____
ROOT
ATOM      3  C   UNL     1      -5.252   2.033  24.828  0.00  0.00    +0.180 C 
ATOM      4  O   UNL     1      -4.683   1.438  24.768  0.00  0.00    -0.350 OA
ATOM      5  C   UNL     1      -3.945   1.773  24.922  0.00  0.00    +0.148 C 
ATOM     24  C   UNL     1      -4.058   2.575  25.078  0.00  0.00    +0.120 C 
ATOM     25  C   UNL     1      -4.865   2.737  25.020  0.00  0.00    +0.198 C 
ATOM     26  O   UNL     1      -5.222   3.471  25.134  0.00  0.00    -0.219 OA
ENDROOT
BRANCH  24  27
ATOM     27  N   UNL     1      -3.467   3.121  25.260  0.00  0.00    -0.266 NA
ATOM     28  C   UNL     1      -3.245   3.242  26.046  0.00  0.00    +0.077 C 
ATOM     29  C   UNL     1      -2.654   3.788  26.228  0.00  0.00    +0.043 C 
ATOM     30  C   UNL     1      -2.283   4.213  25.625  0.00  0.00    -0.023 A 
ATOM     31  C   UNL     1      -2.504   4.091  24.839  0.00  0.00    -0.010 A 
ATOM     32  C   UNL     1      -3.096   3.545  24.657  0.00  0.00    +0.099 C 
ATOM     33  C   UNL     1      -2.134   4.514  24.236  0.00  0.00    -0.003 A 
ATOM     34  C   UNL     1      -1.544   5.060  24.418  0.00  0.00    -0.000 A 
ATOM     35  C   UNL     1      -1.322   5.181  25.204  0.00  0.00    -0.000 A 
ATOM     36  C   UNL     1      -1.692   4.758  25.807  0.00  0.00    -0.004 A 
ENDBRANCH  24  27
BRANCH   3   2
ATOM      1  O   UNL     1      -6.519   1.555  25.286  0.00  0.00    -0.218 OA
ATOM      2  C   UNL     1      -6.064   1.942  24.717  0.00  0.00    +0.214 C 
ENDBRANCH   3   2
BRANCH   5   6
ATOM      6  C   UNL     1      -3.223   1.375  24.921  0.00  0.00    +0.104 C 
BRANCH   6   7
ATOM      7  N   UNL     1      -3.199   0.564  24.777  0.00  0.00    -0.263 NA
BRANCH   7   8
ATOM      8  C   UNL     1      -3.750   0.065  25.136  0.00  0.00    +0.099 C 
BRANCH   8   9
ATOM      9  C   UNL     1      -3.764  -0.738  24.946  0.00  0.00    -0.006 A 
ATOM     10  C   UNL     1      -3.479  -1.295  25.484  0.00  0.00    -0.001 A 
ATOM     11  C   UNL     1      -3.493  -2.098  25.294  0.00  0.00    +0.029 A 
ATOM     12  C   UNL     1      -3.792  -2.343  24.565  0.00  0.00    +0.140 A 
ATOM     13  F   UNL     1      -3.806  -3.146  24.375  0.00  0.00    -0.204 F 
ATOM     14  C   UNL     1      -4.078  -1.787  24.027  0.00  0.00    +0.029 A 
ATOM     15  C   UNL     1      -4.063  -0.985  24.218  0.00  0.00    -0.001 A 
ENDBRANCH   8   9
ENDBRANCH   7   8
BRANCH   7  16
ATOM     16  C   UNL     1      -2.626   0.250  24.274  0.00  0.00    +0.099 C 
BRANCH  16  17
ATOM     17  C   UNL     1      -1.851   0.532  24.303  0.00  0.00    -0.006 A 
ATOM     18  C   UNL     1      -1.423   0.491  25.007  0.00  0.00    -0.001 A 
ATOM     19  C   UNL     1      -0.648   0.773  25.036  0.00  0.00    +0.029 A 
ATOM     20  C   UNL     1      -0.302   1.097  24.361  0.00  0.00    +0.140 A 
ATOM     21  F   UNL     1       0.472   1.380  24.390  0.00  0.00    -0.204 F 
ATOM     22  C   UNL     1      -0.731   1.139  23.657  0.00  0.00    +0.029 A 
ATOM     23  C   UNL     1      -1.505   0.857  23.629  0.00  0.00    -0.001 A 
ENDBRANCH  16  17
ENDBRANCH   7  16
ENDBRANCH   6   7
ENDBRANCH   5   6
TORSDOF 8
ENDMDL
MODEL 8
REMARK VINA RESULT:     -13.1      2.093      4.851
REMARK  Name = 
REMARK  8 active torsions:
REMARK  status: ('A' for Active; 'I' for Inactive)
REMARK    1  A    between atoms: C_2  and  C_3
REMARK    2  A    between atoms: C_5  and  C_6
REMARK    3  A    between atoms: C_6  and  N_7
REMARK    4  A    between atoms: N_7  and  C_8
REMARK    5  A    between atoms: N_7  and  C_16
REMARK    6  A    between atoms: C_8  and  C_9
REMARK    7  A    between atoms: C_16  and  C_17
REMARK    8  A    between atoms: C_24  and  N_27
REMARK                            x       y       z     vdW  Elec       q    Type
REMARK                         _______ _______ _______ _____ _____    ______ ____
ROOT
ATOM      3  C   UNL     1      -5.264   2.038  24.839  0.00  0.00    +0.180 C 
ATOM      4  O   UNL     1      -4.695   1.443  24.782  0.00  0.00    -0.350 OA
ATOM      5  C   UNL     1      -3.957   1.778  24.936  0.00  0.00    +0.148 C 
ATOM     24  C   UNL     1      -4.070   2.582  25.089  0.00  0.00    +0.120 C 
ATOM     25  C   UNL     1      -4.878   2.742  25.028  0.00  0.00    +0.198 C 
ATOM     26  O   UNL     1      -5.235   3.478  25.138  0.00  0.00    -0.219 OA
ENDROOT
BRANCH  24  27
ATOM     27  N   UNL     1      -3.480   3.128  25.269  0.00  0.00    -0.266 NA
ATOM     28  C   UNL     1      -3.266   3.260  26.056  0.00  0.00    +0.077 C 
ATOM     29  C   UNL     1      -2.675   3.807  26.237  0.00  0.00    +0.043 C 
ATOM     30  C   UNL     1      -2.297   4.222  25.632  0.00  0.00    -0.023 A 
ATOM     31  C   UNL     1      -2.510   4.090  24.845  0.00  0.00    -0.010 A 
ATOM     32  C   UNL     1      -3.101   3.543  24.665  0.00  0.00    +0.099 C 
ATOM     33  C   UNL     1      -2.133   4.504  24.241  0.00  0.00    -0.003 A 
ATOM     34  C   UNL     1      -1.542   5.050  24.421  0.00  0.00    -0.000 A 
ATOM     35  C   UNL     1      -1.329   5.182  25.208  0.00  0.00    -0.000 A 
ATOM     36  C   UNL     1      -1.706   4.768  25.813  0.00  0.00    -0.004 A 
ENDBRANCH  24  27
BRANCH   3   2
ATOM      1  O   UNL     1      -6.529   1.553  25.291  0.00  0.00    -0.218 OA
ATOM      2  C   UNL     1      -6.075   1.946  24.726  0.00  0.00    +0.214 C 
ENDBRANCH   3   2
BRANCH   5   6
ATOM      6  C   UNL     1      -3.234   1.381  24.938  0.00  0.00    +0.104 C 
BRANCH   6   7
ATOM      7  N   UNL     1      -3.209   0.571  24.788  0.00  0.00    -0.263 NA
BRANCH   7   8
ATOM      8  C   UNL     1      -2.647   0.265  24.267  0.00  0.00    +0.099 C 
BRANCH   8   9
ATOM      9  C   UNL     1      -1.870   0.540  24.291  0.00  0.00    -0.006 A 
ATOM     10  C   UNL     1      -1.439   0.497  24.994  0.00  0.00    -0.001 A 
ATOM     11  C   UNL     1      -0.661   0.772  25.018  0.00  0.00    +0.029 A 
ATOM     12  C   UNL     1      -0.315   1.090  24.340  0.00  0.00    +0.140 A 
ATOM     13  F   UNL     1       0.463   1.365  24.365  0.00  0.00    -0.204 F 
ATOM     14  C   UNL     1      -0.745   1.132  23.638  0.00  0.00    +0.029 A 
ATOM     15  C   UNL     1      -1.522   0.858  23.614  0.00  0.00    -0.001 A 
ENDBRANCH   8   9
ENDBRANCH   7   8
BRANCH   7  16
ATOM     16  C   UNL     1      -3.746   0.066  25.158  0.00  0.00    +0.099 C 
BRANCH  16  17
ATOM     17  C   UNL     1      -3.763  -0.735  24.961  0.00  0.00    -0.006 A 
ATOM     18  C   UNL     1      -4.065  -0.974  24.232  0.00  0.00    -0.001 A 
ATOM     19  C   UNL     1      -4.082  -1.775  24.034  0.00  0.00    +0.029 A 
ATOM     20  C   UNL     1      -3.796  -2.337  24.566  0.00  0.00    +0.140 A 
ATOM     21  F   UNL     1      -3.813  -3.138  24.370  0.00  0.00    -0.204 F 
ATOM     22  C   UNL     1      -3.493  -2.098  25.296  0.00  0.00    +0.029 A 
ATOM     23  C   UNL     1      -3.476  -1.297  25.493  0.00  0.00    -0.001 A 
ENDBRANCH  16  17
ENDBRANCH   7  16
ENDBRANCH   6   7
ENDBRANCH   5   6
TORSDOF 8
ENDMDL
