MODEL 1
REMARK VINA RESULT:     -10.5      0.000      0.000
REMARK  Name = 
REMARK  9 active torsions:
REMARK  status: ('A' for Active; 'I' for Inactive)
REMARK    1  A    between atoms: S_2  and  C_3
REMARK    2  A    between atoms: C_3  and  C_4
REMARK    3  A    between atoms: C_8  and  N_28
REMARK    4  A    between atoms: C_10  and  C_11
REMARK    5  A    between atoms: N_13  and  C_14
REMARK    6  A    between atoms: C_14  and  C_15
REMARK    7  A    between atoms: C_14  and  C_25
REMARK    8  A    between atoms: C_15  and  C_16
REMARK    9  A    between atoms: N_31  and  C_32
REMARK                            x       y       z     vdW  Elec       q    Type
REMARK                         _______ _______ _______ _____ _____    ______ ____
ROOT
ATOM      4  C   UNL     1       0.332   0.050  23.703  0.00  0.00    +0.237 C 
ATOM      5  O   UNL     1       0.578  -0.555  23.198  0.00  0.00    -0.274 OA
ATOM      6  N   UNL     1      -0.381  -0.019  24.112  0.00  0.00    -0.270 N 
ATOM      7  C   UNL     1      -0.903  -0.656  24.072  0.00  0.00    +0.116 C 
ATOM      8  C   UNL     1      -1.542  -0.494  24.568  0.00  0.00    +0.119 C 
ATOM      9  C   UNL     1      -1.414   0.244  24.915  0.00  0.00    +0.053 C 
ATOM     10  C   UNL     1      -0.697   0.537  24.634  0.00  0.00    +0.155 C 
ENDROOT
BRANCH   8  28
ATOM     28  N   UNL     1      -2.195  -0.983  24.695  0.00  0.00    -0.187 NA
ATOM     29  C   UNL     1      -2.389  -1.221  25.461  0.00  0.00    +0.339 C 
ATOM     30  O   UNL     1      -1.931  -0.969  26.100  0.00  0.00    -0.249 OA
ATOM     31  N   UNL     1      -3.041  -1.710  25.588  0.00  0.00    -0.189 NA
BRANCH  31  32
ATOM     32  C   UNL     1      -3.499  -1.961  24.949  0.00  0.00    +0.097 C 
ATOM     33  C   UNL     1      -4.049  -1.449  24.609  0.00  0.00    +0.022 C 
ATOM     34  C   UNL     1      -4.508  -1.700  23.970  0.00  0.00    +0.002 C 
ATOM     35  C   UNL     1      -4.414  -2.464  23.671  0.00  0.00    +0.000 C 
ATOM     36  C   UNL     1      -3.864  -2.975  24.011  0.00  0.00    +0.002 C 
ATOM     37  C   UNL     1      -3.406  -2.724  24.650  0.00  0.00    +0.022 C 
ENDBRANCH  31  32
ENDBRANCH   8  28
BRANCH  10  11
ATOM     11  C   UNL     1      -0.355   1.260  24.837  0.00  0.00    +0.260 C 
ATOM     12  O   UNL     1       0.263   1.566  24.384  0.00  0.00    -0.272 OA
ATOM     13  N   UNL     1      -0.630   1.677  25.494  0.00  0.00    -0.196 NA
BRANCH  13  14
ATOM     14  C   UNL     1      -0.288   2.399  25.697  0.00  0.00    +0.179 C 
BRANCH  14  25
ATOM     25  C   UNL     1       0.224   2.444  26.343  0.00  0.00    +0.281 C 
ATOM     26  N   UNL     1       0.001   2.130  27.071  0.00  0.00    -0.086 NA
ATOM     27  O   UNL     1       0.962   2.805  26.258  0.00  0.00    -0.270 OA
ENDBRANCH  14  25
BRANCH  14  15
ATOM     15  C   UNL     1      -0.458   3.075  25.256  0.00  0.00    +0.059 C 
BRANCH  15  16
ATOM     16  C   UNL     1      -1.126   3.526  25.432  0.00  0.00    +0.001 A 
ATOM     17  C   UNL     1      -1.790   3.267  25.849  0.00  0.00    +0.095 A 
ATOM     18  N   UNL     1      -2.321   3.896  25.896  0.00  0.00    -0.244 NA
ATOM     19  C   UNL     1      -1.987   4.542  25.510  0.00  0.00    +0.081 A 
ATOM     20  C   UNL     1      -1.248   4.314  25.223  0.00  0.00    +0.015 A 
ATOM     21  C   UNL     1      -0.782   4.854  24.808  0.00  0.00    +0.001 A 
ATOM     22  C   UNL     1      -1.054   5.621  24.681  0.00  0.00    +0.000 A 
ATOM     23  C   UNL     1      -1.793   5.850  24.968  0.00  0.00    +0.002 A 
ATOM     24  C   UNL     1      -2.259   5.311  25.382  0.00  0.00    +0.019 A 
ENDBRANCH  15  16
ENDBRANCH  14  15
ENDBRANCH  13  14
ENDBRANCH  10  11
BRANCH   4   3
ATOM      3  C   UNL     1       0.799   0.723  23.799  0.00  0.00    +0.143 C 
BRANCH   3   2
ATOM      1  C   UNL     1       2.187   0.892  23.499  0.00  0.00    +0.070 C 
ATOM      2  S   UNL     1       1.398   0.891  23.257  0.00  0.00    -0.130 S 
ENDBRANCH   3   2
ENDBRANCH   4   3
TORSDOF 9
ENDMDL
MODEL 2
REMARK VINA RESULT:      -9.9      1.952      4.496
REMARK  Name = 
REMARK  9 active torsions:
REMARK  status: ('A' for Active; 'I' for Inactive)
REMARK    1  A    between atoms: S_2  and  C_3
REMARK    2  A    between atoms: C_3  and  C_4
REMARK    3  A    between atoms: C_8  and  N_28
REMARK    4  A    between atoms: C_10  and  C_11
REMARK    5  A    between atoms: N_13  and  C_14
REMARK    6  A    between atoms: C_14  and  C_15
REMARK    7  A    between atoms: C_14  and  C_25
REMARK    8  A    between atoms: C_15  and  C_16
REMARK    9  A    between atoms: N_31  and  C_32
REMARK                            x       y       z     vdW  Elec       q    Type
REMARK                         _______ _______ _______ _____ _____    ______ ____
ROOT
ATOM      4  C   UNL     1      -0.638  -0.768  24.751  0.00  0.00    +0.237 C 
ATOM      5  O   UNL     1      -0.334  -1.428  25.143  0.00  0.00    -0.274 OA
ATOM      6  N   UNL     1      -0.166  -0.353  24.217  0.00  0.00    -0.270 N 
ATOM      7  C   UNL     1       0.615  -0.531  24.020  0.00  0.00    +0.116 C 
ATOM      8  C   UNL     1       0.872   0.026  23.467  0.00  0.00    +0.119 C 
ATOM      9  C   UNL     1       0.249   0.547  23.322  0.00  0.00    +0.053 C 
ATOM     10  C   UNL     1      -0.392   0.313  23.785  0.00  0.00    +0.155 C 
ENDROOT
BRANCH   8  28
ATOM     28  N   UNL     1       1.620   0.055  23.121  0.00  0.00    -0.187 NA
ATOM     29  C   UNL     1       1.717  -0.158  22.329  0.00  0.00    +0.339 C 
ATOM     30  O   UNL     1       1.065  -0.401  21.885  0.00  0.00    -0.249 OA
ATOM     31  N   UNL     1       2.465  -0.128  21.983  0.00  0.00    -0.189 NA
BRANCH  31  32
ATOM     32  C   UNL     1       3.116   0.115  22.427  0.00  0.00    +0.097 C 
ATOM     33  C   UNL     1       3.564  -0.442  22.840  0.00  0.00    +0.022 C 
ATOM     34  C   UNL     1       4.216  -0.199  23.285  0.00  0.00    +0.002 C 
ATOM     35  C   UNL     1       4.419   0.600  23.316  0.00  0.00    +0.000 C 
ATOM     36  C   UNL     1       3.971   1.156  22.903  0.00  0.00    +0.002 C 
ATOM     37  C   UNL     1       3.319   0.913  22.458  0.00  0.00    +0.022 C 
ENDBRANCH  31  32
ENDBRANCH   8  28
BRANCH  10  11
ATOM     11  C   UNL     1      -1.131   0.680  23.812  0.00  0.00    +0.260 C 
ATOM     12  O   UNL     1      -1.809   0.233  23.957  0.00  0.00    -0.272 OA
ATOM     13  N   UNL     1      -1.191   1.495  23.695  0.00  0.00    -0.196 NA
BRANCH  13  14
ATOM     14  C   UNL     1      -1.929   1.861  23.722  0.00  0.00    +0.179 C 
BRANCH  14  25
ATOM     25  C   UNL     1      -2.405   1.879  23.048  0.00  0.00    +0.281 C 
ATOM     26  N   UNL     1      -3.191   1.634  23.091  0.00  0.00    -0.086 NA
ATOM     27  O   UNL     1      -2.093   2.142  22.330  0.00  0.00    -0.270 OA
ENDBRANCH  14  25
BRANCH  14  15
ATOM     15  C   UNL     1      -2.191   2.211  24.422  0.00  0.00    +0.059 C 
BRANCH  15  16
ATOM     16  C   UNL     1      -1.919   2.958  24.638  0.00  0.00    +0.001 A 
ATOM     17  C   UNL     1      -1.229   3.320  24.365  0.00  0.00    +0.095 A 
ATOM     18  N   UNL     1      -1.172   4.061  24.723  0.00  0.00    -0.244 NA
ATOM     19  C   UNL     1      -1.825   4.157  25.216  0.00  0.00    +0.081 A 
ATOM     20  C   UNL     1      -2.287   3.475  25.164  0.00  0.00    +0.015 A 
ATOM     21  C   UNL     1      -2.983   3.415  25.602  0.00  0.00    +0.001 A 
ATOM     22  C   UNL     1      -3.218   4.034  26.093  0.00  0.00    +0.000 A 
ATOM     23  C   UNL     1      -2.756   4.716  26.145  0.00  0.00    +0.002 A 
ATOM     24  C   UNL     1      -2.060   4.778  25.707  0.00  0.00    +0.019 A 
ENDBRANCH  15  16
ENDBRANCH  14  15
ENDBRANCH  13  14
ENDBRANCH  10  11
BRANCH   4   3
ATOM      3  C   UNL     1      -1.413  -0.525  24.892  0.00  0.00    +0.143 C 
BRANCH   3   2
ATOM      1  C   UNL     1      -2.557  -1.210  25.408  0.00  0.00    +0.070 C 
ATOM      2  S   UNL     1      -1.832  -0.833  25.532  0.00  0.00    -0.130 S 
ENDBRANCH   3   2
ENDBRANCH   4   3
TORSDOF 9
ENDMDL
MODEL 3
REMARK VINA RESULT:      -9.5      1.643      5.660
REMARK  Name = 
REMARK  9 active torsions:
REMARK  status: ('A' for Active; 'I' for Inactive)
REMARK    1  A    between atoms: S_2  and  C_3
REMARK    2  A    between atoms: C_3  and  C_4
REMARK    3  A    between atoms: C_8  and  N_28
REMARK    4  A    between atoms: C_10  and  C_11
REMARK    5  A    between atoms: N_13  and  C_14
REMARK    6  A    between atoms: C_14  and  C_15
REMARK    7  A    between atoms: C_14  and  C_25
REMARK    8  A    between atoms: C_15  and  C_16
REMARK    9  A    between atoms: N_31  and  C_32
REMARK                            x       y       z     vdW  Elec       q    Type
REMARK                         _______ _______ _______ _____ _____    ______ ____
ROOT
ATOM      4  C   UNL     1      -0.261   2.270  24.384  0.00  0.00    +0.237 C 
ATOM      5  O   UNL     1       0.056   3.026  24.286  0.00  0.00    -0.274 OA
ATOM      6  N   UNL     1       0.165   1.609  24.137  0.00  0.00    -0.270 N 
ATOM      7  C   UNL     1       0.911   1.617  23.784  0.00  0.00    +0.116 C 
ATOM      8  C   UNL     1       1.127   0.836  23.627  0.00  0.00    +0.119 C 
ATOM      9  C   UNL     1       0.515   0.346  23.884  0.00  0.00    +0.053 C 
ATOM     10  C   UNL     1      -0.079   0.823  24.199  0.00  0.00    +0.155 C 
ENDROOT
BRANCH   8  28
ATOM     28  N   UNL     1       1.832   0.589  23.276  0.00  0.00    -0.187 NA
ATOM     29  C   UNL     1       1.813   0.162  22.571  0.00  0.00    +0.339 C 
ATOM     30  O   UNL     1       1.091  -0.018  22.216  0.00  0.00    -0.249 OA
ATOM     31  N   UNL     1       2.518  -0.085  22.220  0.00  0.00    -0.189 NA
BRANCH  31  32
ATOM     32  C   UNL     1       3.241   0.095  22.574  0.00  0.00    +0.097 C 
ATOM     33  C   UNL     1       3.608   0.818  22.418  0.00  0.00    +0.022 C 
ATOM     34  C   UNL     1       4.331   0.999  22.772  0.00  0.00    +0.002 C 
ATOM     35  C   UNL     1       4.687   0.456  23.283  0.00  0.00    +0.000 C 
ATOM     36  C   UNL     1       4.320  -0.265  23.438  0.00  0.00    +0.002 C 
ATOM     37  C   UNL     1       3.596  -0.446  23.084  0.00  0.00    +0.022 C 
ENDBRANCH  31  32
ENDBRANCH   8  28
BRANCH  10  11
ATOM     11  C   UNL     1      -0.793   0.561  24.519  0.00  0.00    +0.260 C 
ATOM     12  O   UNL     1      -1.472   1.024  24.447  0.00  0.00    -0.272 OA
ATOM     13  N   UNL     1      -0.828  -0.164  24.912  0.00  0.00    -0.196 NA
BRANCH  13  14
ATOM     14  C   UNL     1      -1.541  -0.425  25.232  0.00  0.00    +0.179 C 
BRANCH  14  25
ATOM     25  C   UNL     1      -1.630  -0.478  26.051  0.00  0.00    +0.281 C 
ATOM     26  N   UNL     1      -1.017  -0.775  26.515  0.00  0.00    -0.086 NA
ATOM     27  O   UNL     1      -2.335  -0.233  26.405  0.00  0.00    -0.270 OA
ENDBRANCH  14  25
BRANCH  14  15
ATOM     15  C   UNL     1      -2.166  -0.634  24.734  0.00  0.00    +0.059 C 
BRANCH  15  16
ATOM     16  C   UNL     1      -2.325  -1.428  24.583  0.00  0.00    +0.001 A 
ATOM     17  C   UNL     1      -1.793  -2.054  24.663  0.00  0.00    +0.095 A 
ATOM     18  N   UNL     1      -2.184  -2.749  24.454  0.00  0.00    -0.244 NA
ATOM     19  C   UNL     1      -2.957  -2.554  24.246  0.00  0.00    +0.081 A 
ATOM     20  C   UNL     1      -3.044  -1.738  24.325  0.00  0.00    +0.015 A 
ATOM     21  C   UNL     1      -3.769  -1.382  24.152  0.00  0.00    +0.001 A 
ATOM     22  C   UNL     1      -4.405  -1.842  23.900  0.00  0.00    +0.000 A 
ATOM     23  C   UNL     1      -4.317  -2.658  23.821  0.00  0.00    +0.002 A 
ATOM     24  C   UNL     1      -3.594  -3.015  23.993  0.00  0.00    +0.019 A 
ENDBRANCH  15  16
ENDBRANCH  14  15
ENDBRANCH  13  14
ENDBRANCH  10  11
BRANCH   4   3
ATOM      3  C   UNL     1      -1.004   2.176  24.730  0.00  0.00    +0.143 C 
BRANCH   3   2
ATOM      1  C   UNL     1      -1.610   3.121  25.615  0.00  0.00    +0.070 C 
ATOM      2  S   UNL     1      -1.488   2.833  24.851  0.00  0.00    -0.130 S 
ENDBRANCH   3   2
ENDBRANCH   4   3
TORSDOF 9
ENDMDL
MODEL 4
REMARK VINA RESULT:      -9.4      2.705      3.743
REMARK  Name = 
REMARK  9 active torsions:
REMARK  status: ('A' for Active; 'I' for Inactive)
REMARK    1  A    between atoms: S_2  and  C_3
REMARK    2  A    between atoms: C_3  and  C_4
REMARK    3  A    between atoms: C_8  and  N_28
REMARK    4  A    between atoms: C_10  and  C_11
REMARK    5  A    between atoms: N_13  and  C_14
REMARK    6  A    between atoms: C_14  and  C_15
REMARK    7  A    between atoms: C_14  and  C_25
REMARK    8  A    between atoms: C_15  and  C_16
REMARK    9  A    between atoms: N_31  and  C_32
REMARK                            x       y       z     vdW  Elec       q    Type
REMARK                         _______ _______ _______ _____ _____    ______ ____
ROOT
ATOM      4  C   UNL     1      -5.220   1.409  25.422  0.00  0.00    +0.237 C 
ATOM      5  O   UNL     1      -5.769   1.166  25.989  0.00  0.00    -0.274 OA
ATOM      6  N   UNL     1      -4.662   0.874  25.133  0.00  0.00    -0.270 N 
ATOM      7  C   UNL     1      -4.586   0.084  25.359  0.00  0.00    +0.116 C 
ATOM      8  C   UNL     1      -3.959  -0.243  24.933  0.00  0.00    +0.119 C 
ATOM      9  C   UNL     1      -3.648   0.345  24.445  0.00  0.00    +0.053 C 
ATOM     10  C   UNL     1      -4.082   1.035  24.569  0.00  0.00    +0.155 C 
ENDROOT
BRANCH   8  28
ATOM     28  N   UNL     1      -3.690  -1.022  24.986  0.00  0.00    -0.187 NA
ATOM     29  C   UNL     1      -3.526  -1.351  25.725  0.00  0.00    +0.339 C 
ATOM     30  O   UNL     1      -3.631  -0.903  26.409  0.00  0.00    -0.249 OA
ATOM     31  N   UNL     1      -3.258  -2.130  25.778  0.00  0.00    -0.189 NA
BRANCH  31  32
ATOM     32  C   UNL     1      -3.153  -2.578  25.093  0.00  0.00    +0.097 C 
ATOM     33  C   UNL     1      -3.795  -2.972  24.756  0.00  0.00    +0.022 C 
ATOM     34  C   UNL     1      -3.690  -3.420  24.071  0.00  0.00    +0.002 C 
ATOM     35  C   UNL     1      -2.943  -3.474  23.724  0.00  0.00    +0.000 C 
ATOM     36  C   UNL     1      -2.303  -3.080  24.061  0.00  0.00    +0.002 C 
ATOM     37  C   UNL     1      -2.407  -2.632  24.746  0.00  0.00    +0.022 C 
ENDBRANCH  31  32
ENDBRANCH   8  28
BRANCH  10  11
ATOM     11  C   UNL     1      -3.959   1.760  24.194  0.00  0.00    +0.260 C 
ATOM     12  O   UNL     1      -4.595   2.269  24.061  0.00  0.00    -0.272 OA
ATOM     13  N   UNL     1      -3.200   1.976  23.952  0.00  0.00    -0.196 NA
BRANCH  13  14
ATOM     14  C   UNL     1      -3.077   2.700  23.578  0.00  0.00    +0.179 C 
BRANCH  14  25
ATOM     25  C   UNL     1      -3.190   2.766  22.763  0.00  0.00    +0.281 C 
ATOM     26  N   UNL     1      -2.793   2.261  22.248  0.00  0.00    -0.086 NA
ATOM     27  O   UNL     1      -3.703   3.341  22.464  0.00  0.00    -0.270 OA
ENDBRANCH  14  25
BRANCH  14  15
ATOM     15  C   UNL     1      -2.841   3.357  24.017  0.00  0.00    +0.059 C 
BRANCH  15  16
ATOM     16  C   UNL     1      -2.052   3.445  24.237  0.00  0.00    +0.001 A 
ATOM     17  C   UNL     1      -1.461   2.873  24.163  0.00  0.00    +0.095 A 
ATOM     18  N   UNL     1      -0.758   3.195  24.451  0.00  0.00    -0.244 NA
ATOM     19  C   UNL     1      -0.914   3.964  24.702  0.00  0.00    +0.081 A 
ATOM     20  C   UNL     1      -1.713   4.119  24.570  0.00  0.00    +0.015 A 
ATOM     21  C   UNL     1      -2.029   4.855  24.770  0.00  0.00    +0.001 A 
ATOM     22  C   UNL     1      -1.546   5.435  25.102  0.00  0.00    +0.000 A 
ATOM     23  C   UNL     1      -0.747   5.280  25.234  0.00  0.00    +0.002 A 
ATOM     24  C   UNL     1      -0.430   4.545  25.034  0.00  0.00    +0.019 A 
ENDBRANCH  15  16
ENDBRANCH  14  15
ENDBRANCH  13  14
ENDBRANCH  10  11
BRANCH   4   3
ATOM      3  C   UNL     1      -5.230   2.185  25.144  0.00  0.00    +0.143 C 
BRANCH   3   2
ATOM      1  C   UNL     1      -5.657   3.409  25.745  0.00  0.00    +0.070 C 
ATOM      2  S   UNL     1      -5.836   2.696  25.369  0.00  0.00    -0.130 S 
ENDBRANCH   3   2
ENDBRANCH   4   3
TORSDOF 9
ENDMDL
MODEL 5
REMARK VINA RESULT:      -9.3      1.789      5.230
REMARK  Name = 
REMARK  9 active torsions:
REMARK  status: ('A' for Active; 'I' for Inactive)
REMARK    1  A    between atoms: S_2  and  C_3
REMARK    2  A    between atoms: C_3  and  C_4
REMARK    3  A    between atoms: C_8  and  N_28
REMARK    4  A    between atoms: C_10  and  C_11
REMARK    5  A    between atoms: N_13  and  C_14
REMARK    6  A    between atoms: C_14  and  C_15
REMARK    7  A    between atoms: C_14  and  C_25
REMARK    8  A    between atoms: C_15  and  C_16
REMARK    9  A    between atoms: N_31  and  C_32
REMARK                            x       y       z     vdW  Elec       q    Type
REMARK                         _______ _______ _______ _____ _____    ______ ____
ROOT
ATOM      4  C   UNL     1      -0.665   2.734  24.960  0.00  0.00    +0.237 C 
ATOM      5  O   UNL     1      -0.063   3.280  25.109  0.00  0.00    -0.274 OA
ATOM      6  N   UNL     1      -0.495   2.033  24.560  0.00  0.00    -0.270 N 
ATOM      7  C   UNL     1       0.245   1.802  24.278  0.00  0.00    +0.116 C 
ATOM      8  C   UNL     1       0.161   1.065  23.916  0.00  0.00    +0.119 C 
ATOM      9  C   UNL     1      -0.631   0.841  23.975  0.00  0.00    +0.053 C 
ATOM     10  C   UNL     1      -1.036   1.439  24.373  0.00  0.00    +0.155 C 
ENDROOT
BRANCH   8  28
ATOM     28  N   UNL     1       0.764   0.629  23.558  0.00  0.00    -0.187 NA
ATOM     29  C   UNL     1       0.729  -0.195  23.553  0.00  0.00    +0.339 C 
ATOM     30  O   UNL     1       0.091  -0.583  23.904  0.00  0.00    -0.249 OA
ATOM     31  N   UNL     1       1.331  -0.631  23.195  0.00  0.00    -0.189 NA
BRANCH  31  32
ATOM     32  C   UNL     1       1.969  -0.242  22.844  0.00  0.00    +0.097 C 
ATOM     33  C   UNL     1       1.982  -0.128  22.026  0.00  0.00    +0.022 C 
ATOM     34  C   UNL     1       2.619   0.261  21.674  0.00  0.00    +0.002 C 
ATOM     35  C   UNL     1       3.243   0.534  22.140  0.00  0.00    +0.000 C 
ATOM     36  C   UNL     1       3.229   0.420  22.956  0.00  0.00    +0.002 C 
ATOM     37  C   UNL     1       2.592   0.031  23.309  0.00  0.00    +0.022 C 
ENDBRANCH  31  32
ENDBRANCH   8  28
BRANCH  10  11
ATOM     11  C   UNL     1      -1.842   1.443  24.552  0.00  0.00    +0.260 C 
ATOM     12  O   UNL     1      -2.106   1.783  25.255  0.00  0.00    -0.272 OA
ATOM     13  N   UNL     1      -2.383   1.106  24.027  0.00  0.00    -0.196 NA
BRANCH  13  14
ATOM     14  C   UNL     1      -3.187   1.110  24.206  0.00  0.00    +0.179 C 
BRANCH  14  25
ATOM     25  C   UNL     1      -3.675   1.702  23.900  0.00  0.00    +0.281 C 
ATOM     26  N   UNL     1      -4.287   2.010  24.357  0.00  0.00    -0.086 NA
ATOM     27  O   UNL     1      -3.547   1.985  23.135  0.00  0.00    -0.270 OA
ENDBRANCH  14  25
BRANCH  14  15
ATOM     15  C   UNL     1      -3.506   0.523  24.691  0.00  0.00    +0.059 C 
BRANCH  15  16
ATOM     16  C   UNL     1      -3.666  -0.225  24.382  0.00  0.00    +0.001 A 
ATOM     17  C   UNL     1      -3.934  -0.387  23.619  0.00  0.00    +0.095 A 
ATOM     18  N   UNL     1      -4.021  -1.205  23.547  0.00  0.00    -0.244 NA
ATOM     19  C   UNL     1      -3.806  -1.547  24.266  0.00  0.00    +0.081 A 
ATOM     20  C   UNL     1      -3.587  -0.942  24.782  0.00  0.00    +0.015 A 
ATOM     21  C   UNL     1      -3.343  -1.123  25.549  0.00  0.00    +0.001 A 
ATOM     22  C   UNL     1      -3.319  -1.907  25.801  0.00  0.00    +0.000 A 
ATOM     23  C   UNL     1      -3.538  -2.513  25.285  0.00  0.00    +0.002 A 
ATOM     24  C   UNL     1      -3.781  -2.333  24.517  0.00  0.00    +0.019 A 
ENDBRANCH  15  16
ENDBRANCH  14  15
ENDBRANCH  13  14
ENDBRANCH  10  11
BRANCH   4   3
ATOM      3  C   UNL     1      -1.434   2.891  25.210  0.00  0.00    +0.143 C 
BRANCH   3   2
ATOM      1  C   UNL     1      -1.879   4.229  25.445  0.00  0.00    +0.070 C 
ATOM      2  S   UNL     1      -1.581   3.514  25.730  0.00  0.00    -0.130 S 
ENDBRANCH   3   2
ENDBRANCH   4   3
TORSDOF 9
ENDMDL
MODEL 6
REMARK VINA RESULT:      -9.1      1.041      5.091
REMARK  Name = 
REMARK  9 active torsions:
REMARK  status: ('A' for Active; 'I' for Inactive)
REMARK    1  A    between atoms: S_2  and  C_3
REMARK    2  A    between atoms: C_3  and  C_4
REMARK    3  A    between atoms: C_8  and  N_28
REMARK    4  A    between atoms: C_10  and  C_11
REMARK    5  A    between atoms: N_13  and  C_14
REMARK    6  A    between atoms: C_14  and  C_15
REMARK    7  A    between atoms: C_14  and  C_25
REMARK    8  A    between atoms: C_15  and  C_16
REMARK    9  A    between atoms: N_31  and  C_32
REMARK                            x       y       z     vdW  Elec       q    Type
REMARK                         _______ _______ _______ _____ _____    ______ ____
ROOT
ATOM      4  C   UNL     1       0.818   0.835  23.535  0.00  0.00    +0.237 C 
ATOM      5  O   UNL     1       1.378   1.332  23.187  0.00  0.00    -0.274 OA
ATOM      6  N   UNL     1       0.241   1.149  24.034  0.00  0.00    -0.270 N 
ATOM      7  C   UNL     1       0.155   1.945  24.235  0.00  0.00    +0.116 C 
ATOM      8  C   UNL     1      -0.491   2.011  24.745  0.00  0.00    +0.119 C 
ATOM      9  C   UNL     1      -0.804   1.255  24.858  0.00  0.00    +0.053 C 
ATOM     10  C   UNL     1      -0.351   0.723  24.419  0.00  0.00    +0.155 C 
ENDROOT
BRANCH   8  28
ATOM     28  N   UNL     1      -0.774   2.709  25.081  0.00  0.00    -0.187 NA
ATOM     29  C   UNL     1      -0.452   2.985  25.789  0.00  0.00    +0.339 C 
ATOM     30  O   UNL     1       0.152   2.564  26.160  0.00  0.00    -0.249 OA
ATOM     31  N   UNL     1      -0.735   3.684  26.126  0.00  0.00    -0.189 NA
BRANCH  31  32
ATOM     32  C   UNL     1      -1.340   4.105  25.755  0.00  0.00    +0.097 C 
ATOM     33  C   UNL     1      -2.128   3.926  25.920  0.00  0.00    +0.022 C 
ATOM     34  C   UNL     1      -2.734   4.347  25.549  0.00  0.00    +0.002 C 
ATOM     35  C   UNL     1      -2.549   4.947  25.013  0.00  0.00    +0.000 C 
ATOM     36  C   UNL     1      -1.761   5.125  24.848  0.00  0.00    +0.002 C 
ATOM     37  C   UNL     1      -1.156   4.704  25.219  0.00  0.00    +0.022 C 
ENDBRANCH  31  32
ENDBRANCH   8  28
BRANCH  10  11
ATOM     11  C   UNL     1      -0.471  -0.092  24.373  0.00  0.00    +0.260 C 
ATOM     12  O   UNL     1      -0.217  -0.509  23.708  0.00  0.00    -0.272 OA
ATOM     13  N   UNL     1      -0.843  -0.490  24.992  0.00  0.00    -0.196 NA
BRANCH  13  14
ATOM     14  C   UNL     1      -0.962  -1.304  24.946  0.00  0.00    +0.179 C 
BRANCH  14  25
ATOM     25  C   UNL     1      -0.438  -1.819  25.323  0.00  0.00    +0.281 C 
ATOM     26  N   UNL     1      -0.220  -2.525  24.959  0.00  0.00    -0.086 NA
ATOM     27  O   UNL     1      -0.133  -1.625  26.066  0.00  0.00    -0.270 OA
ENDBRANCH  14  25
BRANCH  14  15
ATOM     15  C   UNL     1      -1.604  -1.605  24.524  0.00  0.00    +0.059 C 
BRANCH  15  16
ATOM     16  C   UNL     1      -2.361  -1.580  24.850  0.00  0.00    +0.001 A 
ATOM     17  C   UNL     1      -2.548  -1.367  25.625  0.00  0.00    +0.095 A 
ATOM     18  N   UNL     1      -3.367  -1.420  25.713  0.00  0.00    -0.244 NA
ATOM     19  C   UNL     1      -3.685  -1.665  24.993  0.00  0.00    +0.081 A 
ATOM     20  C   UNL     1      -3.063  -1.764  24.460  0.00  0.00    +0.015 A 
ATOM     21  C   UNL     1      -3.218  -2.009  23.687  0.00  0.00    +0.001 A 
ATOM     22  C   UNL     1      -3.994  -2.155  23.448  0.00  0.00    +0.000 A 
ATOM     23  C   UNL     1      -4.615  -2.055  23.981  0.00  0.00    +0.002 A 
ATOM     24  C   UNL     1      -4.462  -1.810  24.754  0.00  0.00    +0.019 A 
ENDBRANCH  15  16
ENDBRANCH  14  15
ENDBRANCH  13  14
ENDBRANCH  10  11
BRANCH   4   3
ATOM      3  C   UNL     1       0.836   0.025  23.385  0.00  0.00    +0.143 C 
BRANCH   3   2
ATOM      1  C   UNL     1       2.069  -0.500  22.887  0.00  0.00    +0.070 C 
ATOM      2  S   UNL     1       1.287  -0.269  22.760  0.00  0.00    -0.130 S 
ENDBRANCH   3   2
ENDBRANCH   4   3
TORSDOF 9
ENDMDL
MODEL 7
REMARK VINA RESULT:      -9.1      2.713      4.044
REMARK  Name = 
REMARK  9 active torsions:
REMARK  status: ('A' for Active; 'I' for Inactive)
REMARK    1  A    between atoms: S_2  and  C_3
REMARK    2  A    between atoms: C_3  and  C_4
REMARK    3  A    between atoms: C_8  and  N_28
REMARK    4  A    between atoms: C_10  and  C_11
REMARK    5  A    between atoms: N_13  and  C_14
REMARK    6  A    between atoms: C_14  and  C_15
REMARK    7  A    between atoms: C_14  and  C_25
REMARK    8  A    between atoms: C_15  and  C_16
REMARK    9  A    between atoms: N_31  and  C_32
REMARK                            x       y       z     vdW  Elec       q    Type
REMARK                         _______ _______ _______ _____ _____    ______ ____
ROOT
ATOM      4  C   UNL     1      -0.767   3.131  25.030  0.00  0.00    +0.237 C 
ATOM      5  O   UNL     1       0.030   3.229  25.220  0.00  0.00    -0.274 OA
ATOM      6  N   UNL     1      -1.058   2.380  24.849  0.00  0.00    -0.270 N 
ATOM      7  C   UNL     1      -0.620   1.681  24.835  0.00  0.00    +0.116 C 
ATOM      8  C   UNL     1      -1.130   1.066  24.627  0.00  0.00    +0.119 C 
ATOM      9  C   UNL     1      -1.882   1.385  24.513  0.00  0.00    +0.053 C 
ATOM     10  C   UNL     1      -1.838   2.197  24.650  0.00  0.00    +0.155 C 
ENDROOT
BRANCH   8  28
ATOM     28  N   UNL     1      -0.923   0.271  24.547  0.00  0.00    -0.187 NA
ATOM     29  C   UNL     1      -0.315   0.053  24.034  0.00  0.00    +0.339 C 
ATOM     30  O   UNL     1       0.086   0.629  23.601  0.00  0.00    -0.249 OA
ATOM     31  N   UNL     1      -0.108  -0.742  23.954  0.00  0.00    -0.189 NA
BRANCH  31  32
ATOM     32  C   UNL     1      -0.509  -1.318  24.387  0.00  0.00    +0.097 C 
ATOM     33  C   UNL     1      -0.253  -1.516  25.146  0.00  0.00    +0.022 C 
ATOM     34  C   UNL     1      -0.654  -2.092  25.581  0.00  0.00    +0.002 C 
ATOM     35  C   UNL     1      -1.311  -2.470  25.254  0.00  0.00    +0.000 C 
ATOM     36  C   UNL     1      -1.566  -2.272  24.496  0.00  0.00    +0.002 C 
ATOM     37  C   UNL     1      -1.165  -1.696  24.062  0.00  0.00    +0.022 C 
ENDBRANCH  31  32
ENDBRANCH   8  28
BRANCH  10  11
ATOM     11  C   UNL     1      -2.463   2.733  24.598  0.00  0.00    +0.260 C 
ATOM     12  O   UNL     1      -2.433   3.444  25.015  0.00  0.00    -0.272 OA
ATOM     13  N   UNL     1      -3.119   2.557  24.129  0.00  0.00    -0.196 NA
BRANCH  13  14
ATOM     14  C   UNL     1      -3.744   3.093  24.077  0.00  0.00    +0.179 C 
BRANCH  14  25
ATOM     25  C   UNL     1      -3.812   3.583  23.417  0.00  0.00    +0.281 C 
ATOM     26  N   UNL     1      -3.677   3.281  22.662  0.00  0.00    -0.086 NA
ATOM     27  O   UNL     1      -4.016   4.378  23.513  0.00  0.00    -0.270 OA
ENDBRANCH  14  25
BRANCH  14  15
ATOM     15  C   UNL     1      -4.300   3.138  24.684  0.00  0.00    +0.059 C 
BRANCH  15  16
ATOM     16  C   UNL     1      -4.889   2.565  24.748  0.00  0.00    +0.001 A 
ATOM     17  C   UNL     1      -5.082   2.002  24.176  0.00  0.00    +0.095 A 
ATOM     18  N   UNL     1      -5.701   1.543  24.470  0.00  0.00    -0.244 NA
ATOM     19  C   UNL     1      -5.891   1.821  25.222  0.00  0.00    +0.081 A 
ATOM     20  C   UNL     1      -5.389   2.453  25.394  0.00  0.00    +0.015 A 
ATOM     21  C   UNL     1      -5.452   2.844  26.118  0.00  0.00    +0.001 A 
ATOM     22  C   UNL     1      -6.017   2.604  26.669  0.00  0.00    +0.000 A 
ATOM     23  C   UNL     1      -6.518   1.972  26.497  0.00  0.00    +0.002 A 
ATOM     24  C   UNL     1      -6.456   1.580  25.774  0.00  0.00    +0.019 A 
ENDBRANCH  15  16
ENDBRANCH  14  15
ENDBRANCH  13  14
ENDBRANCH  10  11
BRANCH   4   3
ATOM      3  C   UNL     1      -1.273   3.782  25.023  0.00  0.00    +0.143 C 
BRANCH   3   2
ATOM      1  C   UNL     1      -0.930   5.156  24.831  0.00  0.00    +0.070 C 
ATOM      2  S   UNL     1      -1.020   4.505  25.329  0.00  0.00    -0.130 S 
ENDBRANCH   3   2
ENDBRANCH   4   3
TORSDOF 9
ENDMDL
MODEL 8
REMARK VINA RESULT:      -8.8      1.291      5.038
REMARK  Name = 
REMARK  9 active torsions:
REMARK  status: ('A' for Active; 'I' for Inactive)
REMARK    1  A    between atoms: S_2  and  C_3
REMARK    2  A    between atoms: C_3  and  C_4
REMARK    3  A    between atoms: C_8  and  N_28
REMARK    4  A    between atoms: C_10  and  C_11
REMARK    5  A    between atoms: N_13  and  C_14
REMARK    6  A    between atoms: C_14  and  C_15
REMARK    7  A    between atoms: C_14  and  C_25
REMARK    8  A    between atoms: C_15  and  C_16
REMARK    9  A    between atoms: N_31  and  C_32
REMARK                            x       y       z     vdW  Elec       q    Type
REMARK                         _______ _______ _______ _____ _____    ______ ____
ROOT
ATOM      4  C   UNL     1       0.276   1.311  23.863  0.00  0.00    +0.237 C 
ATOM      5  O   UNL     1       0.745   1.921  23.563  0.00  0.00    -0.274 OA
ATOM      6  N   UNL     1      -0.428   1.488  24.254  0.00  0.00    -0.270 N 
ATOM      7  C   UNL     1      -0.732   2.243  24.389  0.00  0.00    +0.116 C 
ATOM      8  C   UNL     1      -1.444   2.162  24.799  0.00  0.00    +0.119 C 
ATOM      9  C   UNL     1      -1.579   1.356  24.918  0.00  0.00    +0.053 C 
ATOM     10  C   UNL     1      -0.952   0.940  24.582  0.00  0.00    +0.155 C 
ENDROOT
BRANCH   8  28
ATOM     28  N   UNL     1      -1.934   2.778  25.046  0.00  0.00    -0.187 NA
ATOM     29  C   UNL     1      -1.630   3.382  25.518  0.00  0.00    +0.339 C 
ATOM     30  O   UNL     1      -0.837   3.371  25.743  0.00  0.00    -0.249 OA
ATOM     31  N   UNL     1      -2.121   3.999  25.766  0.00  0.00    -0.189 NA
BRANCH  31  32
ATOM     32  C   UNL     1      -2.914   4.010  25.540  0.00  0.00    +0.097 C 
ATOM     33  C   UNL     1      -3.127   4.293  24.795  0.00  0.00    +0.022 C 
ATOM     34  C   UNL     1      -3.921   4.305  24.569  0.00  0.00    +0.002 C 
ATOM     35  C   UNL     1      -4.501   4.033  25.090  0.00  0.00    +0.000 C 
ATOM     36  C   UNL     1      -4.288   3.751  25.834  0.00  0.00    +0.002 C 
ATOM     37  C   UNL     1      -3.494   3.739  26.060  0.00  0.00    +0.022 C 
ENDBRANCH  31  32
ENDBRANCH   8  28
BRANCH  10  11
ATOM     11  C   UNL     1      -0.863   0.120  24.574  0.00  0.00    +0.260 C 
ATOM     12  O   UNL     1      -0.446  -0.244  23.962  0.00  0.00    -0.272 OA
ATOM     13  N   UNL     1      -1.191  -0.337  25.178  0.00  0.00    -0.196 NA
BRANCH  13  14
ATOM     14  C   UNL     1      -1.102  -1.156  25.169  0.00  0.00    +0.179 C 
BRANCH  14  25
ATOM     25  C   UNL     1      -0.513  -1.511  25.626  0.00  0.00    +0.281 C 
ATOM     26  N   UNL     1      -0.060  -2.124  25.312  0.00  0.00    -0.086 NA
ATOM     27  O   UNL     1      -0.377  -1.250  26.397  0.00  0.00    -0.270 OA
ENDBRANCH  14  25
BRANCH  14  15
ATOM     15  C   UNL     1      -1.601  -1.621  24.706  0.00  0.00    +0.059 C 
BRANCH  15  16
ATOM     16  C   UNL     1      -2.377  -1.761  24.946  0.00  0.00    +0.001 A 
ATOM     17  C   UNL     1      -2.715  -1.518  25.659  0.00  0.00    +0.095 A 
ATOM     18  N   UNL     1      -3.499  -1.774  25.670  0.00  0.00    -0.244 NA
ATOM     19  C   UNL     1      -3.646  -2.175  24.965  0.00  0.00    +0.081 A 
ATOM     20  C   UNL     1      -2.953  -2.167  24.518  0.00  0.00    +0.015 A 
ATOM     21  C   UNL     1      -2.936  -2.530  23.777  0.00  0.00    +0.001 A 
ATOM     22  C   UNL     1      -3.611  -2.902  23.484  0.00  0.00    +0.000 A 
ATOM     23  C   UNL     1      -4.304  -2.911  23.932  0.00  0.00    +0.002 A 
ATOM     24  C   UNL     1      -4.322  -2.547  24.672  0.00  0.00    +0.019 A 
ENDBRANCH  15  16
ENDBRANCH  14  15
ENDBRANCH  13  14
ENDBRANCH  10  11
BRANCH   4   3
ATOM      3  C   UNL     1       0.510   0.527  23.770  0.00  0.00    +0.143 C 
BRANCH   3   2
ATOM      1  C   UNL     1       1.327  -0.038  22.741  0.00  0.00    +0.070 C 
ATOM      2  S   UNL     1       1.257   0.352  23.465  0.00  0.00    -0.130 S 
ENDBRANCH   3   2
ENDBRANCH   4   3
TORSDOF 9
ENDMDL
MODEL 9
REMARK VINA RESULT:      -8.8      2.418      4.888
REMARK  Name = 
REMARK  9 active torsions:
REMARK  status: ('A' for Active; 'I' for Inactive)
REMARK    1  A    between atoms: S_2  and  C_3
REMARK    2  A    between atoms: C_3  and  C_4
REMARK    3  A    between atoms: C_8  and  N_28
REMARK    4  A    between atoms: C_10  and  C_11
REMARK    5  A    between atoms: N_13  and  C_14
REMARK    6  A    between atoms: C_14  and  C_15
REMARK    7  A    between atoms: C_14  and  C_25
REMARK    8  A    between atoms: C_15  and  C_16
REMARK    9  A    between atoms: N_31  and  C_32
REMARK                            x       y       z     vdW  Elec       q    Type
REMARK                         _______ _______ _______ _____ _____    ______ ____
ROOT
ATOM      4  C   UNL     1      -3.905  -1.151  24.303  0.00  0.00    +0.237 C 
ATOM      5  O   UNL     1      -4.705  -1.349  24.252  0.00  0.00    -0.274 OA
ATOM      6  N   UNL     1      -3.680  -0.362  24.388  0.00  0.00    -0.270 N 
ATOM      7  C   UNL     1      -4.190   0.286  24.431  0.00  0.00    +0.116 C 
ATOM      8  C   UNL     1      -3.731   0.966  24.515  0.00  0.00    +0.119 C 
ATOM      9  C   UNL     1      -2.937   0.739  24.525  0.00  0.00    +0.053 C 
ATOM     10  C   UNL     1      -2.906  -0.081  24.447  0.00  0.00    +0.155 C 
ENDROOT
BRANCH   8  28
ATOM     28  N   UNL     1      -4.015   1.739  24.578  0.00  0.00    -0.187 NA
ATOM     29  C   UNL     1      -4.006   2.236  23.920  0.00  0.00    +0.339 C 
ATOM     30  O   UNL     1      -3.712   1.963  23.200  0.00  0.00    -0.249 OA
ATOM     31  N   UNL     1      -4.290   3.008  23.984  0.00  0.00    -0.189 NA
BRANCH  31  32
ATOM     32  C   UNL     1      -4.584   3.282  24.704  0.00  0.00    +0.097 C 
ATOM     33  C   UNL     1      -5.373   3.151  24.905  0.00  0.00    +0.022 C 
ATOM     34  C   UNL     1      -5.667   3.424  25.626  0.00  0.00    +0.002 C 
ATOM     35  C   UNL     1      -5.170   3.830  26.146  0.00  0.00    +0.000 C 
ATOM     36  C   UNL     1      -4.382   3.961  25.945  0.00  0.00    +0.002 C 
ATOM     37  C   UNL     1      -4.088   3.687  25.224  0.00  0.00    +0.022 C 
ENDBRANCH  31  32
ENDBRANCH   8  28
BRANCH  10  11
ATOM     11  C   UNL     1      -2.221  -0.541  24.430  0.00  0.00    +0.260 C 
ATOM     12  O   UNL     1      -2.227  -1.275  24.053  0.00  0.00    -0.272 OA
ATOM     13  N   UNL     1      -1.531  -0.267  24.789  0.00  0.00    -0.196 NA
BRANCH  13  14
ATOM     14  C   UNL     1      -0.847  -0.727  24.772  0.00  0.00    +0.179 C 
BRANCH  14  25
ATOM     25  C   UNL     1      -0.648  -1.194  25.423  0.00  0.00    +0.281 C 
ATOM     26  N   UNL     1      -0.768  -0.909  26.187  0.00  0.00    -0.086 NA
ATOM     27  O   UNL     1      -0.328  -1.946  25.308  0.00  0.00    -0.270 OA
ENDBRANCH  14  25
BRANCH  14  15
ATOM     15  C   UNL     1      -0.362  -0.721  24.105  0.00  0.00    +0.059 C 
BRANCH  15  16
ATOM     16  C   UNL     1       0.159  -0.095  23.979  0.00  0.00    +0.001 A 
ATOM     17  C   UNL     1       0.167   0.620  24.391  0.00  0.00    +0.095 A 
ATOM     18  N   UNL     1       0.777   1.084  24.086  0.00  0.00    -0.244 NA
ATOM     19  C   UNL     1       1.147   0.656  23.485  0.00  0.00    +0.081 A 
ATOM     20  C   UNL     1       0.765  -0.073  23.419  0.00  0.00    +0.015 A 
ATOM     21  C   UNL     1       1.018  -0.622  22.858  0.00  0.00    +0.001 A 
ATOM     22  C   UNL     1       1.653  -0.443  22.363  0.00  0.00    +0.000 A 
ATOM     23  C   UNL     1       2.035   0.286  22.429  0.00  0.00    +0.002 A 
ATOM     24  C   UNL     1       1.782   0.835  22.990  0.00  0.00    +0.019 A 
ENDBRANCH  15  16
ENDBRANCH  14  15
ENDBRANCH  13  14
ENDBRANCH  10  11
BRANCH   4   3
ATOM      3  C   UNL     1      -3.331  -1.742  24.269  0.00  0.00    +0.143 C 
BRANCH   3   2
ATOM      1  C   UNL     1      -3.509  -3.106  24.656  0.00  0.00    +0.070 C 
ATOM      2  S   UNL     1      -3.546  -2.515  24.080  0.00  0.00    -0.130 S 
ENDBRANCH   3   2
ENDBRANCH   4   3
TORSDOF 9
ENDMDL
