MODEL 1
REMARK VINA RESULT:     -10.1      0.000      0.000
REMARK  Name = 
REMARK  6 active torsions:
REMARK  status: ('A' for Active; 'I' for Inactive)
REMARK    1  A    between atoms: C_2  and  C_4
REMARK    2  A    between atoms: C_4  and  C_5
REMARK    3  A    between atoms: C_5  and  C_6
REMARK    4  A    between atoms: C_6  and  C_7
REMARK    5  A    between atoms: C_12  and  C_14
REMARK    6  A    between atoms: C_17  and  C_19
REMARK                            x       y       z     vdW  Elec       q    Type
REMARK                         _______ _______ _______ _____ _____    ______ ____
ROOT
ATOM      7  C   UNL     1      -2.238   2.838  25.111  0.00  0.00    +0.226 C 
ATOM      8  O   UNL     1      -1.527   2.445  25.255  0.00  0.00    -0.275 OA
ATOM      9  N   UNL     1      -2.924   2.407  24.955  0.00  0.00    -0.279 N 
ATOM     10  C   UNL     1      -3.670   2.722  24.801  0.00  0.00    +0.094 C 
ATOM     11  C   UNL     1      -4.191   2.094  24.677  0.00  0.00    +0.033 C 
ATOM     12  C   UNL     1      -3.766   1.391  24.754  0.00  0.00    +0.100 C 
ATOM     13  C   UNL     1      -2.983   1.584  24.925  0.00  0.00    +0.103 C 
ENDROOT
BRANCH  12  14
ATOM     14  C   UNL     1      -4.070   0.629  24.673  0.00  0.00    +0.228 A 
ATOM     15  N   UNL     1      -4.868   0.430  24.606  0.00  0.00    -0.111 NA
ATOM     16  N   UNL     1      -4.921  -0.391  24.536  0.00  0.00    -0.107 NA
ATOM     17  C   UNL     1      -4.157  -0.699  24.560  0.00  0.00    +0.250 A 
ATOM     18  O   UNL     1      -3.630  -0.069  24.644  0.00  0.00    -0.419 OA
BRANCH  17  19
ATOM     19  C   UNL     1      -3.954  -1.497  24.508  0.00  0.00    +0.055 A 
ATOM     20  C   UNL     1      -4.186  -1.940  23.853  0.00  0.00    +0.005 A 
ATOM     21  C   UNL     1      -3.983  -2.738  23.800  0.00  0.00    +0.000 A 
ATOM     22  C   UNL     1      -3.547  -3.093  24.405  0.00  0.00    +0.000 A 
ATOM     23  C   UNL     1      -3.315  -2.649  25.061  0.00  0.00    +0.000 A 
ATOM     24  C   UNL     1      -3.518  -1.851  25.113  0.00  0.00    +0.005 A 
ENDBRANCH  17  19
ENDBRANCH  12  14
BRANCH   7   6
ATOM      6  C   UNL     1      -2.264   3.663  25.122  0.00  0.00    +0.086 C 
BRANCH   6   5
ATOM      5  C   UNL     1      -1.563   4.097  25.111  0.00  0.00    +0.021 C 
BRANCH   5   4
ATOM      4  C   UNL     1      -1.555   4.876  25.384  0.00  0.00    +0.115 C 
BRANCH   4   2
ATOM      1  O   UNL     1      -0.371   5.278  24.694  0.00  0.00    -0.246 OA
ATOM      2  C   UNL     1      -1.127   5.451  24.977  0.00  0.00    +0.365 C 
ATOM      3  O   UNL     1      -1.452   6.199  24.854  0.00  0.00    -0.246 OA
ENDBRANCH   4   2
ENDBRANCH   5   4
ENDBRANCH   6   5
ENDBRANCH   7   6
TORSDOF 6
ENDMDL
MODEL 2
REMARK VINA RESULT:      -9.8      1.257      5.868
REMARK  Name = 
REMARK  6 active torsions:
REMARK  status: ('A' for Active; 'I' for Inactive)
REMARK    1  A    between atoms: C_2  and  C_4
REMARK    2  A    between atoms: C_4  and  C_5
REMARK    3  A    between atoms: C_5  and  C_6
REMARK    4  A    between atoms: C_6  and  C_7
REMARK    5  A    between atoms: C_12  and  C_14
REMARK    6  A    between atoms: C_17  and  C_19
REMARK                            x       y       z     vdW  Elec       q    Type
REMARK                         _______ _______ _______ _____ _____    ______ ____
ROOT
ATOM      7  C   UNL     1      -3.400  -0.138  24.300  0.00  0.00    +0.226 C 
ATOM      8  O   UNL     1      -2.607  -0.247  24.103  0.00  0.00    -0.275 OA
ATOM      9  N   UNL     1      -3.665   0.601  24.554  0.00  0.00    -0.279 N 
ATOM     10  C   UNL     1      -4.437   0.792  24.769  0.00  0.00    +0.094 C 
ATOM     11  C   UNL     1      -4.453   1.588  24.985  0.00  0.00    +0.033 C 
ATOM     12  C   UNL     1      -3.688   1.889  24.904  0.00  0.00    +0.100 C 
ATOM     13  C   UNL     1      -3.201   1.279  24.637  0.00  0.00    +0.103 C 
ENDROOT
BRANCH  12  14
ATOM     14  C   UNL     1      -3.453   2.664  25.061  0.00  0.00    +0.228 A 
ATOM     15  N   UNL     1      -3.919   3.253  25.402  0.00  0.00    -0.111 NA
ATOM     16  N   UNL     1      -3.464   3.939  25.457  0.00  0.00    -0.107 NA
ATOM     17  C   UNL     1      -2.716   3.774  25.150  0.00  0.00    +0.250 A 
ATOM     18  O   UNL     1      -2.709   2.986  24.905  0.00  0.00    -0.419 OA
BRANCH  17  19
ATOM     19  C   UNL     1      -2.086   4.304  25.096  0.00  0.00    +0.055 A 
ATOM     20  C   UNL     1      -2.224   5.115  25.153  0.00  0.00    +0.005 A 
ATOM     21  C   UNL     1      -1.594   5.646  25.099  0.00  0.00    +0.000 A 
ATOM     22  C   UNL     1      -0.827   5.364  24.990  0.00  0.00    +0.000 A 
ATOM     23  C   UNL     1      -0.689   4.552  24.933  0.00  0.00    +0.000 A 
ATOM     24  C   UNL     1      -1.319   4.022  24.986  0.00  0.00    +0.005 A 
ENDBRANCH  17  19
ENDBRANCH  12  14
BRANCH   7   6
ATOM      6  C   UNL     1      -3.930  -0.768  24.244  0.00  0.00    +0.086 C 
BRANCH   6   5
ATOM      5  C   UNL     1      -3.648  -1.542  24.212  0.00  0.00    +0.021 C 
BRANCH   5   4
ATOM      4  C   UNL     1      -4.178  -2.175  24.201  0.00  0.00    +0.115 C 
BRANCH   4   2
ATOM      1  O   UNL     1      -3.587  -3.170  25.038  0.00  0.00    -0.246 OA
ATOM      2  C   UNL     1      -3.904  -2.945  24.310  0.00  0.00    +0.365 C 
ATOM      3  O   UNL     1      -3.945  -3.490  23.692  0.00  0.00    -0.246 OA
ENDBRANCH   4   2
ENDBRANCH   5   4
ENDBRANCH   6   5
ENDBRANCH   7   6
TORSDOF 6
ENDMDL
MODEL 3
REMARK VINA RESULT:      -9.8      1.915      6.141
REMARK  Name = 
REMARK  6 active torsions:
REMARK  status: ('A' for Active; 'I' for Inactive)
REMARK    1  A    between atoms: C_2  and  C_4
REMARK    2  A    between atoms: C_4  and  C_5
REMARK    3  A    between atoms: C_5  and  C_6
REMARK    4  A    between atoms: C_6  and  C_7
REMARK    5  A    between atoms: C_12  and  C_14
REMARK    6  A    between atoms: C_17  and  C_19
REMARK                            x       y       z     vdW  Elec       q    Type
REMARK                         _______ _______ _______ _____ _____    ______ ____
ROOT
ATOM      7  C   UNL     1      -2.481  -0.698  25.339  0.00  0.00    +0.226 C 
ATOM      8  O   UNL     1      -3.146  -0.492  25.782  0.00  0.00    -0.275 OA
ATOM      9  N   UNL     1      -1.881  -0.146  25.213  0.00  0.00    -0.279 N 
ATOM     10  C   UNL     1      -1.188  -0.273  24.785  0.00  0.00    +0.094 C 
ATOM     11  C   UNL     1      -0.747   0.424  24.801  0.00  0.00    +0.033 C 
ATOM     12  C   UNL     1      -1.168   0.982  25.241  0.00  0.00    +0.100 C 
ATOM     13  C   UNL     1      -1.869   0.629  25.496  0.00  0.00    +0.103 C 
ENDROOT
BRANCH  12  14
ATOM     14  C   UNL     1      -0.930   1.756  25.398  0.00  0.00    +0.228 A 
ATOM     15  N   UNL     1      -0.277   1.980  25.850  0.00  0.00    -0.111 NA
ATOM     16  N   UNL     1      -0.247   2.805  25.862  0.00  0.00    -0.107 NA
ATOM     17  C   UNL     1      -0.880   3.090  25.417  0.00  0.00    +0.250 A 
ATOM     18  O   UNL     1      -1.302   2.442  25.130  0.00  0.00    -0.419 OA
BRANCH  17  19
ATOM     19  C   UNL     1      -1.060   3.884  25.283  0.00  0.00    +0.055 A 
ATOM     20  C   UNL     1      -1.775   4.195  25.549  0.00  0.00    +0.005 A 
ATOM     21  C   UNL     1      -1.956   4.989  25.414  0.00  0.00    +0.000 A 
ATOM     22  C   UNL     1      -1.419   5.471  25.014  0.00  0.00    +0.000 A 
ATOM     23  C   UNL     1      -0.703   5.160  24.748  0.00  0.00    +0.000 A 
ATOM     24  C   UNL     1      -0.523   4.366  24.882  0.00  0.00    +0.005 A 
ENDBRANCH  17  19
ENDBRANCH  12  14
BRANCH   7   6
ATOM      6  C   UNL     1      -2.416  -1.457  25.020  0.00  0.00    +0.086 C 
BRANCH   6   5
ATOM      5  C   UNL     1      -3.095  -1.908  24.890  0.00  0.00    +0.021 C 
BRANCH   5   4
ATOM      4  C   UNL     1      -3.078  -2.530  24.347  0.00  0.00    +0.115 C 
BRANCH   4   2
ATOM      1  O   UNL     1      -3.895  -3.695  24.475  0.00  0.00    -0.246 OA
ATOM      2  C   UNL     1      -3.772  -2.938  24.168  0.00  0.00    +0.365 C 
ATOM      3  O   UNL     1      -4.341  -2.592  23.681  0.00  0.00    -0.246 OA
ENDBRANCH   4   2
ENDBRANCH   5   4
ENDBRANCH   6   5
ENDBRANCH   7   6
TORSDOF 6
ENDMDL
MODEL 4
REMARK VINA RESULT:      -9.7      1.790      2.013
REMARK  Name = 
REMARK  6 active torsions:
REMARK  status: ('A' for Active; 'I' for Inactive)
REMARK    1  A    between atoms: C_2  and  C_4
REMARK    2  A    between atoms: C_4  and  C_5
REMARK    3  A    between atoms: C_5  and  C_6
REMARK    4  A    between atoms: C_6  and  C_7
REMARK    5  A    between atoms: C_12  and  C_14
REMARK    6  A    between atoms: C_17  and  C_19
REMARK                            x       y       z     vdW  Elec       q    Type
REMARK                         _______ _______ _______ _____ _____    ______ ____
ROOT
ATOM      7  C   UNL     1      -1.043   2.439  24.427  0.00  0.00    +0.226 C 
ATOM      8  O   UNL     1      -1.325   2.536  23.658  0.00  0.00    -0.275 OA
ATOM      9  N   UNL     1      -1.087   1.701  24.793  0.00  0.00    -0.279 N 
ATOM     10  C   UNL     1      -0.829   1.521  25.555  0.00  0.00    +0.094 C 
ATOM     11  C   UNL     1      -0.979   0.722  25.693  0.00  0.00    +0.033 C 
ATOM     12  C   UNL     1      -1.331   0.407  25.016  0.00  0.00    +0.100 C 
ATOM     13  C   UNL     1      -1.397   1.013  24.459  0.00  0.00    +0.103 C 
ENDROOT
BRANCH  12  14
ATOM     14  C   UNL     1      -1.573  -0.374  24.913  0.00  0.00    +0.228 A 
ATOM     15  N   UNL     1      -1.102  -1.044  25.012  0.00  0.00    -0.111 NA
ATOM     16  N   UNL     1      -1.567  -1.708  24.854  0.00  0.00    -0.107 NA
ATOM     17  C   UNL     1      -2.324  -1.448  24.657  0.00  0.00    +0.250 A 
ATOM     18  O   UNL     1      -2.329  -0.623  24.693  0.00  0.00    -0.419 OA
BRANCH  17  19
ATOM     19  C   UNL     1      -2.966  -1.927  24.458  0.00  0.00    +0.055 A 
ATOM     20  C   UNL     1      -3.611  -1.607  24.057  0.00  0.00    +0.005 A 
ATOM     21  C   UNL     1      -4.253  -2.086  23.858  0.00  0.00    +0.000 A 
ATOM     22  C   UNL     1      -4.248  -2.886  24.061  0.00  0.00    +0.000 A 
ATOM     23  C   UNL     1      -3.602  -3.206  24.463  0.00  0.00    +0.000 A 
ATOM     24  C   UNL     1      -2.961  -2.727  24.661  0.00  0.00    +0.005 A 
ENDBRANCH  17  19
ENDBRANCH  12  14
BRANCH   7   6
ATOM      6  C   UNL     1      -0.717   3.081  24.831  0.00  0.00    +0.086 C 
BRANCH   6   5
ATOM      5  C   UNL     1      -0.986   3.845  24.677  0.00  0.00    +0.021 C 
BRANCH   5   4
ATOM      4  C   UNL     1      -0.706   4.479  25.125  0.00  0.00    +0.115 C 
BRANCH   4   2
ATOM      1  O   UNL     1      -1.807   5.357  25.373  0.00  0.00    -0.246 OA
ATOM      2  C   UNL     1      -1.058   5.222  25.052  0.00  0.00    +0.365 C 
ATOM      3  O   UNL     1      -0.661   5.829  24.660  0.00  0.00    -0.246 OA
ENDBRANCH   4   2
ENDBRANCH   5   4
ENDBRANCH   6   5
ENDBRANCH   7   6
TORSDOF 6
ENDMDL
MODEL 5
REMARK VINA RESULT:      -8.9      3.895      4.307
REMARK  Name = 
REMARK  6 active torsions:
REMARK  status: ('A' for Active; 'I' for Inactive)
REMARK    1  A    between atoms: C_2  and  C_4
REMARK    2  A    between atoms: C_4  and  C_5
REMARK    3  A    between atoms: C_5  and  C_6
REMARK    4  A    between atoms: C_6  and  C_7
REMARK    5  A    between atoms: C_12  and  C_14
REMARK    6  A    between atoms: C_17  and  C_19
REMARK                            x       y       z     vdW  Elec       q    Type
REMARK                         _______ _______ _______ _____ _____    ______ ____
ROOT
ATOM      7  C   UNL     1       1.233   0.174  23.203  0.00  0.00    +0.226 C 
ATOM      8  O   UNL     1       1.289  -0.551  22.813  0.00  0.00    -0.275 OA
ATOM      9  N   UNL     1       0.571   0.344  23.665  0.00  0.00    -0.279 N 
ATOM     10  C   UNL     1       0.439   1.041  24.086  0.00  0.00    +0.094 C 
ATOM     11  C   UNL     1      -0.289   0.974  24.469  0.00  0.00    +0.033 C 
ATOM     12  C   UNL     1      -0.607   0.234  24.284  0.00  0.00    +0.100 C 
ATOM     13  C   UNL     1      -0.075  -0.155  23.788  0.00  0.00    +0.103 C 
ENDROOT
BRANCH  12  14
ATOM     14  C   UNL     1      -1.329  -0.063  24.550  0.00  0.00    +0.228 A 
ATOM     15  N   UNL     1      -1.740   0.190  25.219  0.00  0.00    -0.111 NA
ATOM     16  N   UNL     1      -2.433  -0.257  25.275  0.00  0.00    -0.107 NA
ATOM     17  C   UNL     1      -2.449  -0.784  24.642  0.00  0.00    +0.250 A 
ATOM     18  O   UNL     1      -1.767  -0.665  24.193  0.00  0.00    -0.419 OA
BRANCH  17  19
ATOM     19  C   UNL     1      -3.042  -1.335  24.484  0.00  0.00    +0.055 A 
ATOM     20  C   UNL     1      -2.963  -2.113  24.745  0.00  0.00    +0.005 A 
ATOM     21  C   UNL     1      -3.556  -2.664  24.587  0.00  0.00    +0.000 A 
ATOM     22  C   UNL     1      -4.230  -2.436  24.169  0.00  0.00    +0.000 A 
ATOM     23  C   UNL     1      -4.310  -1.657  23.908  0.00  0.00    +0.000 A 
ATOM     24  C   UNL     1      -3.716  -1.106  24.066  0.00  0.00    +0.005 A 
ENDBRANCH  17  19
ENDBRANCH  12  14
BRANCH   7   6
ATOM      6  C   UNL     1       1.839   0.730  23.132  0.00  0.00    +0.086 C 
BRANCH   6   5
ATOM      5  C   UNL     1       2.590   0.490  22.889  0.00  0.00    +0.021 C 
BRANCH   5   4
ATOM      4  C   UNL     1       3.194   1.047  22.809  0.00  0.00    +0.115 C 
BRANCH   4   2
ATOM      1  O   UNL     1       4.276   0.550  22.019  0.00  0.00    -0.246 OA
ATOM      2  C   UNL     1       3.978   0.799  22.748  0.00  0.00    +0.365 C 
ATOM      3  O   UNL     1       4.465   0.798  23.414  0.00  0.00    -0.246 OA
ENDBRANCH   4   2
ENDBRANCH   5   4
ENDBRANCH   6   5
ENDBRANCH   7   6
TORSDOF 6
ENDMDL
MODEL 6
REMARK VINA RESULT:      -8.7      3.022      4.337
REMARK  Name = 
REMARK  6 active torsions:
REMARK  status: ('A' for Active; 'I' for Inactive)
REMARK    1  A    between atoms: C_2  and  C_4
REMARK    2  A    between atoms: C_4  and  C_5
REMARK    3  A    between atoms: C_5  and  C_6
REMARK    4  A    between atoms: C_6  and  C_7
REMARK    5  A    between atoms: C_12  and  C_14
REMARK    6  A    between atoms: C_17  and  C_19
REMARK                            x       y       z     vdW  Elec       q    Type
REMARK                         _______ _______ _______ _____ _____    ______ ____
ROOT
ATOM      7  C   UNL     1      -0.355   0.492  23.793  0.00  0.00    +0.226 C 
ATOM      8  O   UNL     1      -0.319   1.296  23.613  0.00  0.00    -0.275 OA
ATOM      9  N   UNL     1      -1.043   0.172  24.116  0.00  0.00    -0.279 N 
ATOM     10  C   UNL     1      -1.160  -0.618  24.322  0.00  0.00    +0.094 C 
ATOM     11  C   UNL     1      -1.925  -0.693  24.623  0.00  0.00    +0.033 C 
ATOM     12  C   UNL     1      -2.281   0.052  24.602  0.00  0.00    +0.100 C 
ATOM     13  C   UNL     1      -1.736   0.586  24.288  0.00  0.00    +0.103 C 
ENDROOT
BRANCH  12  14
ATOM     14  C   UNL     1      -3.046   0.231  24.851  0.00  0.00    +0.228 A 
ATOM     15  N   UNL     1      -3.581  -0.297  25.191  0.00  0.00    -0.111 NA
ATOM     16  N   UNL     1      -4.278   0.115  25.354  0.00  0.00    -0.107 NA
ATOM     17  C   UNL     1      -4.173   0.897  25.114  0.00  0.00    +0.250 A 
ATOM     18  O   UNL     1      -3.412   0.969  24.803  0.00  0.00    -0.419 OA
BRANCH  17  19
ATOM     19  C   UNL     1      -4.731   1.502  25.175  0.00  0.00    +0.055 A 
ATOM     20  C   UNL     1      -5.523   1.349  25.004  0.00  0.00    +0.005 A 
ATOM     21  C   UNL     1      -6.082   1.954  25.064  0.00  0.00    +0.000 A 
ATOM     22  C   UNL     1      -5.847   2.710  25.295  0.00  0.00    +0.000 A 
ATOM     23  C   UNL     1      -5.054   2.862  25.466  0.00  0.00    +0.000 A 
ATOM     24  C   UNL     1      -4.496   2.258  25.406  0.00  0.00    +0.005 A 
ENDBRANCH  17  19
ENDBRANCH  12  14
BRANCH   7   6
ATOM      6  C   UNL     1       0.297   0.007  23.649  0.00  0.00    +0.086 C 
BRANCH   6   5
ATOM      5  C   UNL     1       0.889   0.255  23.131  0.00  0.00    +0.021 C 
BRANCH   5   4
ATOM      4  C   UNL     1       1.535  -0.236  22.978  0.00  0.00    +0.115 C 
BRANCH   4   2
ATOM      1  O   UNL     1       2.014  -0.179  21.632  0.00  0.00    -0.246 OA
ATOM      2  C   UNL     1       2.109  -0.002  22.433  0.00  0.00    +0.365 C 
ATOM      3  O   UNL     1       2.778   0.407  22.688  0.00  0.00    -0.246 OA
ENDBRANCH   4   2
ENDBRANCH   5   4
ENDBRANCH   6   5
ENDBRANCH   7   6
TORSDOF 6
ENDMDL
MODEL 7
REMARK VINA RESULT:      -6.6     14.545     16.974
REMARK  Name = 
REMARK  6 active torsions:
REMARK  status: ('A' for Active; 'I' for Inactive)
REMARK    1  A    between atoms: C_2  and  C_4
REMARK    2  A    between atoms: C_4  and  C_5
REMARK    3  A    between atoms: C_5  and  C_6
REMARK    4  A    between atoms: C_6  and  C_7
REMARK    5  A    between atoms: C_12  and  C_14
REMARK    6  A    between atoms: C_17  and  C_19
REMARK                            x       y       z     vdW  Elec       q    Type
REMARK                         _______ _______ _______ _____ _____    ______ ____
ROOT
ATOM      7  C   UNL     1      -4.628 -10.482  14.959  0.00  0.00    +0.226 C 
ATOM      8  O   UNL     1      -5.378 -10.245  14.712  0.00  0.00    -0.275 OA
ATOM      9  N   UNL     1      -4.015 -10.550  14.411  0.00  0.00    -0.279 N 
ATOM     10  C   UNL     1      -3.240 -10.780  14.576  0.00  0.00    +0.094 C 
ATOM     11  C   UNL     1      -2.816 -10.773  13.868  0.00  0.00    +0.033 C 
ATOM     12  C   UNL     1      -3.329 -10.538  13.265  0.00  0.00    +0.100 C 
ATOM     13  C   UNL     1      -4.070 -10.401  13.601  0.00  0.00    +0.103 C 
ENDROOT
BRANCH  12  14
ATOM     14  C   UNL     1      -3.136 -10.456  12.468  0.00  0.00    +0.228 A 
ATOM     15  N   UNL     1      -2.422 -10.675  12.118  0.00  0.00    -0.111 NA
ATOM     16  N   UNL     1      -2.467 -10.494  11.313  0.00  0.00    -0.107 NA
ATOM     17  C   UNL     1      -3.208 -10.163  11.167  0.00  0.00    +0.250 A 
ATOM     18  O   UNL     1      -3.622 -10.139  11.881  0.00  0.00    -0.419 OA
BRANCH  17  19
ATOM     19  C   UNL     1      -3.487  -9.902  10.436  0.00  0.00    +0.055 A 
ATOM     20  C   UNL     1      -3.820 -10.439   9.907  0.00  0.00    +0.005 A 
ATOM     21  C   UNL     1      -4.099 -10.178   9.175  0.00  0.00    +0.000 A 
ATOM     22  C   UNL     1      -4.044  -9.380   8.974  0.00  0.00    +0.000 A 
ATOM     23  C   UNL     1      -3.711  -8.842   9.505  0.00  0.00    +0.000 A 
ATOM     24  C   UNL     1      -3.432  -9.104  10.236  0.00  0.00    +0.005 A 
ENDBRANCH  17  19
ENDBRANCH  12  14
BRANCH   7   6
ATOM      6  C   UNL     1      -4.489 -10.651  15.755  0.00  0.00    +0.086 C 
BRANCH   6   5
ATOM      5  C   UNL     1      -5.093 -10.550  16.308  0.00  0.00    +0.021 C 
BRANCH   5   4
ATOM      4  C   UNL     1      -4.975 -10.777  17.093  0.00  0.00    +0.115 C 
BRANCH   4   2
ATOM      1  O   UNL     1      -5.325 -10.492  18.449  0.00  0.00    -0.246 OA
ATOM      2  C   UNL     1      -5.547 -10.606  17.662  0.00  0.00    +0.365 C 
ATOM      3  O   UNL     1      -6.341 -10.548  17.445  0.00  0.00    -0.246 OA
ENDBRANCH   4   2
ENDBRANCH   5   4
ENDBRANCH   6   5
ENDBRANCH   7   6
TORSDOF 6
ENDMDL
MODEL 8
REMARK VINA RESULT:      -6.5     13.821     15.641
REMARK  Name = 
REMARK  6 active torsions:
REMARK  status: ('A' for Active; 'I' for Inactive)
REMARK    1  A    between atoms: C_2  and  C_4
REMARK    2  A    between atoms: C_4  and  C_5
REMARK    3  A    between atoms: C_5  and  C_6
REMARK    4  A    between atoms: C_6  and  C_7
REMARK    5  A    between atoms: C_12  and  C_14
REMARK    6  A    between atoms: C_17  and  C_19
REMARK                            x       y       z     vdW  Elec       q    Type
REMARK                         _______ _______ _______ _____ _____    ______ ____
ROOT
ATOM      7  C   UNL     1      -5.022 -10.331  16.979  0.00  0.00    +0.226 C 
ATOM      8  O   UNL     1      -5.633 -10.046  16.503  0.00  0.00    -0.275 OA
ATOM      9  N   UNL     1      -4.273 -10.458  16.657  0.00  0.00    -0.279 N 
ATOM     10  C   UNL     1      -3.612 -10.739  17.062  0.00  0.00    +0.094 C 
ATOM     11  C   UNL     1      -2.984 -10.781  16.529  0.00  0.00    +0.033 C 
ATOM     12  C   UNL     1      -3.258 -10.526  15.793  0.00  0.00    +0.100 C 
ATOM     13  C   UNL     1      -4.054 -10.326  15.872  0.00  0.00    +0.103 C 
ENDROOT
BRANCH  12  14
ATOM     14  C   UNL     1      -2.813 -10.478  15.100  0.00  0.00    +0.228 A 
ATOM     15  N   UNL     1      -1.996 -10.369  15.054  0.00  0.00    -0.111 NA
ATOM     16  N   UNL     1      -1.785 -10.355  14.256  0.00  0.00    -0.107 NA
ATOM     17  C   UNL     1      -2.471 -10.456  13.809  0.00  0.00    +0.250 A 
ATOM     18  O   UNL     1      -3.106 -10.532  14.330  0.00  0.00    -0.419 OA
BRANCH  17  19
ATOM     19  C   UNL     1      -2.514 -10.476  12.986  0.00  0.00    +0.055 A 
ATOM     20  C   UNL     1      -1.877 -10.214  12.533  0.00  0.00    +0.005 A 
ATOM     21  C   UNL     1      -1.920 -10.235  11.709  0.00  0.00    +0.000 A 
ATOM     22  C   UNL     1      -2.601 -10.518  11.339  0.00  0.00    +0.000 A 
ATOM     23  C   UNL     1      -3.238 -10.780  11.792  0.00  0.00    +0.000 A 
ATOM     24  C   UNL     1      -3.195 -10.759  12.616  0.00  0.00    +0.005 A 
ENDBRANCH  17  19
ENDBRANCH  12  14
BRANCH   7   6
ATOM      6  C   UNL     1      -5.159 -10.489  17.778  0.00  0.00    +0.086 C 
BRANCH   6   5
ATOM      5  C   UNL     1      -5.928 -10.471  18.074  0.00  0.00    +0.021 C 
BRANCH   5   4
ATOM      4  C   UNL     1      -6.070 -10.180  18.834  0.00  0.00    +0.115 C 
BRANCH   4   2
ATOM      1  O   UNL     1      -7.497 -10.110  18.891  0.00  0.00    -0.246 OA
ATOM      2  C   UNL     1      -6.779 -10.357  19.217  0.00  0.00    +0.365 C 
ATOM      3  O   UNL     1      -6.772 -10.781  19.925  0.00  0.00    -0.246 OA
ENDBRANCH   4   2
ENDBRANCH   5   4
ENDBRANCH   6   5
ENDBRANCH   7   6
TORSDOF 6
ENDMDL
MODEL 9
REMARK VINA RESULT:      -6.4     15.382     17.573
REMARK  Name = 
REMARK  6 active torsions:
REMARK  status: ('A' for Active; 'I' for Inactive)
REMARK    1  A    between atoms: C_2  and  C_4
REMARK    2  A    between atoms: C_4  and  C_5
REMARK    3  A    between atoms: C_5  and  C_6
REMARK    4  A    between atoms: C_6  and  C_7
REMARK    5  A    between atoms: C_12  and  C_14
REMARK    6  A    between atoms: C_17  and  C_19
REMARK                            x       y       z     vdW  Elec       q    Type
REMARK                         _______ _______ _______ _____ _____    ______ ____
ROOT
ATOM      7  C   UNL     1      -2.783 -10.532  13.378  0.00  0.00    +0.226 C 
ATOM      8  O   UNL     1      -3.502 -10.621  13.773  0.00  0.00    -0.275 OA
ATOM      9  N   UNL     1      -2.773 -10.336  12.577  0.00  0.00    -0.279 N 
ATOM     10  C   UNL     1      -2.100 -10.229  12.113  0.00  0.00    +0.094 C 
ATOM     11  C   UNL     1      -2.346 -10.039  11.348  0.00  0.00    +0.033 C 
ATOM     12  C   UNL     1      -3.171 -10.028  11.341  0.00  0.00    +0.100 C 
ATOM     13  C   UNL     1      -3.435 -10.212  12.101  0.00  0.00    +0.103 C 
ENDROOT
BRANCH  12  14
ATOM     14  C   UNL     1      -3.648  -9.863  10.689  0.00  0.00    +0.228 A 
ATOM     15  N   UNL     1      -3.444  -9.977   9.898  0.00  0.00    -0.111 NA
ATOM     16  N   UNL     1      -4.084  -9.739   9.433  0.00  0.00    -0.107 NA
ATOM     17  C   UNL     1      -4.682  -9.477   9.936  0.00  0.00    +0.250 A 
ATOM     18  O   UNL     1      -4.413  -9.554  10.713  0.00  0.00    -0.419 OA
BRANCH  17  19
ATOM     19  C   UNL     1      -5.420  -9.190   9.705  0.00  0.00    +0.055 A 
ATOM     20  C   UNL     1      -6.086  -9.671   9.764  0.00  0.00    +0.005 A 
ATOM     21  C   UNL     1      -6.825  -9.384   9.532  0.00  0.00    +0.000 A 
ATOM     22  C   UNL     1      -6.895  -8.615   9.242  0.00  0.00    +0.000 A 
ATOM     23  C   UNL     1      -6.227  -8.133   9.183  0.00  0.00    +0.000 A 
ATOM     24  C   UNL     1      -5.490  -8.421   9.415  0.00  0.00    +0.005 A 
ENDBRANCH  17  19
ENDBRANCH  12  14
BRANCH   7   6
ATOM      6  C   UNL     1      -2.073 -10.640  13.785  0.00  0.00    +0.086 C 
BRANCH   6   5
ATOM      5  C   UNL     1      -2.065 -10.629  14.610  0.00  0.00    +0.021 C 
BRANCH   5   4
ATOM      4  C   UNL     1      -1.364 -10.781  15.018  0.00  0.00    +0.115 C 
BRANCH   4   2
ATOM      1  O   UNL     1      -0.678  -9.951  15.958  0.00  0.00    -0.246 OA
ATOM      2  C   UNL     1      -1.267 -10.505  15.789  0.00  0.00    +0.365 C 
ATOM      3  O   UNL     1      -1.759 -10.781  16.391  0.00  0.00    -0.246 OA
ENDBRANCH   4   2
ENDBRANCH   5   4
ENDBRANCH   6   5
ENDBRANCH   7   6
TORSDOF 6
ENDMDL
MODEL 10
REMARK VINA RESULT:      -6.3     18.363     18.989
REMARK  Name = 
REMARK  6 active torsions:
REMARK  status: ('A' for Active; 'I' for Inactive)
REMARK    1  A    between atoms: C_2  and  C_4
REMARK    2  A    between atoms: C_4  and  C_5
REMARK    3  A    between atoms: C_5  and  C_6
REMARK    4  A    between atoms: C_6  and  C_7
REMARK    5  A    between atoms: C_12  and  C_14
REMARK    6  A    between atoms: C_17  and  C_19
REMARK                            x       y       z     vdW  Elec       q    Type
REMARK                         _______ _______ _______ _____ _____    ______ ____
ROOT
ATOM      7  C   UNL     1      -7.903  -6.834   8.353  0.00  0.00    +0.226 C 
ATOM      8  O   UNL     1      -7.402  -6.220   8.124  0.00  0.00    -0.275 OA
ATOM      9  N   UNL     1      -7.591  -7.574   8.539  0.00  0.00    -0.279 N 
ATOM     10  C   UNL     1      -8.020  -8.237   8.776  0.00  0.00    +0.094 C 
ATOM     11  C   UNL     1      -7.488  -8.854   8.904  0.00  0.00    +0.033 C 
ATOM     12  C   UNL     1      -6.728  -8.573   8.746  0.00  0.00    +0.100 C 
ATOM     13  C   UNL     1      -6.792  -7.782   8.520  0.00  0.00    +0.103 C 
ENDROOT
BRANCH  12  14
ATOM     14  C   UNL     1      -6.029  -9.006   8.803  0.00  0.00    +0.228 A 
ATOM     15  N   UNL     1      -5.747  -9.547   8.248  0.00  0.00    -0.111 NA
ATOM     16  N   UNL     1      -5.032  -9.850   8.528  0.00  0.00    -0.107 NA
ATOM     17  C   UNL     1      -4.873  -9.496   9.255  0.00  0.00    +0.250 A 
ATOM     18  O   UNL     1      -5.489  -8.975   9.426  0.00  0.00    -0.419 OA
BRANCH  17  19
ATOM     19  C   UNL     1      -4.213  -9.639   9.730  0.00  0.00    +0.055 A 
ATOM     20  C   UNL     1      -3.601  -9.088   9.762  0.00  0.00    +0.005 A 
ATOM     21  C   UNL     1      -2.941  -9.230  10.236  0.00  0.00    +0.000 A 
ATOM     22  C   UNL     1      -2.894  -9.925  10.679  0.00  0.00    +0.000 A 
ATOM     23  C   UNL     1      -3.507 -10.477  10.647  0.00  0.00    +0.000 A 
ATOM     24  C   UNL     1      -4.166 -10.334  10.172  0.00  0.00    +0.005 A 
ENDBRANCH  17  19
ENDBRANCH  12  14
BRANCH   7   6
ATOM      6  C   UNL     1      -8.718  -6.708   8.398  0.00  0.00    +0.086 C 
BRANCH   6   5
ATOM      5  C   UNL     1      -9.012  -5.940   8.469  0.00  0.00    +0.021 C 
BRANCH   5   4
ATOM      4  C   UNL     1      -9.823  -5.802   8.400  0.00  0.00    +0.115 C 
BRANCH   4   2
ATOM      1  O   UNL     1     -10.714  -5.291   9.394  0.00  0.00    -0.246 OA
ATOM      2  C   UNL     1     -10.166  -5.161   8.790  0.00  0.00    +0.365 C 
ATOM      3  O   UNL     1      -9.963  -4.391   8.576  0.00  0.00    -0.246 OA
ENDBRANCH   4   2
ENDBRANCH   5   4
ENDBRANCH   6   5
ENDBRANCH   7   6
TORSDOF 6
ENDMDL
