MODEL 1
REMARK VINA RESULT:     -10.0      0.000      0.000
REMARK  Name = 
REMARK  5 active torsions:
REMARK  status: ('A' for Active; 'I' for Inactive)
REMARK    1  A    between atoms: C_2  and  N_4
REMARK    2  A    between atoms: C_5  and  C_7
REMARK    3  A    between atoms: C_14  and  C_15
REMARK    4  A    between atoms: C_15  and  N_16
REMARK    5  A    between atoms: C_18  and  C_21
REMARK                            x       y       z     vdW  Elec       q    Type
REMARK                         _______ _______ _______ _____ _____    ______ ____
ROOT
ATOM      7  C   UNL     1      -3.764   0.288  24.335  0.00  0.00    +0.094 C 
ATOM      8  C   UNL     1      -3.221   0.466  23.806  0.00  0.00    +0.081 C 
ATOM      9  N   UNL     1      -3.687   1.002  24.227  0.00  0.00    -0.272 NA
ATOM     10  C   UNL     1      -4.313   0.443  24.855  0.00  0.00    +0.072 C 
ATOM     11  C   UNL     1      -4.784   0.413  25.307  0.00  0.00    +0.018 C 
ATOM     12  C   UNL     1      -4.216   0.820  24.744  0.00  0.00    +0.013 C 
ATOM     13  C   UNL     1      -4.248   1.697  24.732  0.00  0.00    +0.019 C 
ATOM     14  C   UNL     1      -3.724   1.914  24.220  0.00  0.00    +0.082 C 
ENDROOT
BRANCH   7   5
ATOM      4  N   UNL     1      -3.618  -1.085  23.964  0.00  0.00    -0.207 NA
ATOM      5  C   UNL     1      -3.889  -0.513  24.493  0.00  0.00    +0.242 C 
ATOM      6  O   UNL     1      -4.285  -0.741  25.180  0.00  0.00    -0.273 OA
BRANCH   4   2
ATOM      1  C   UNL     1      -4.375  -2.282  23.768  0.00  0.00    +0.023 C 
ATOM      2  C   UNL     1      -3.743  -1.884  24.122  0.00  0.00    +0.095 C 
ATOM      3  C   UNL     1      -3.238  -2.289  24.633  0.00  0.00    +0.023 C 
ENDBRANCH   4   2
ENDBRANCH   7   5
BRANCH  14  15
ATOM     15  C   UNL     1      -3.390   2.581  23.869  0.00  0.00    +0.145 C 
BRANCH  15  16
ATOM     16  N   UNL     1      -3.043   3.165  24.337  0.00  0.00    -0.229 N 
ATOM     17  C   UNL     1      -2.234   3.288  24.436  0.00  0.00    +0.121 A 
ATOM     18  C   UNL     1      -2.135   3.928  24.949  0.00  0.00    +0.158 A 
ATOM     19  N   UNL     1      -2.884   4.199  25.164  0.00  0.00    -0.126 NA
ATOM     20  N   UNL     1      -3.445   3.728  24.786  0.00  0.00    -0.064 NA
BRANCH  18  21
ATOM     21  C   UNL     1      -1.415   4.241  25.200  0.00  0.00    +0.194 C 
ATOM     22  C   UNL     1      -1.226   5.028  25.036  0.00  0.00    +0.079 C 
ATOM     23  O   UNL     1      -0.883   3.768  25.617  0.00  0.00    -0.290 OA
ENDBRANCH  18  21
ENDBRANCH  15  16
ENDBRANCH  14  15
TORSDOF 5
ENDMDL
MODEL 2
REMARK VINA RESULT:      -9.7      1.122      1.280
REMARK  Name = 
REMARK  5 active torsions:
REMARK  status: ('A' for Active; 'I' for Inactive)
REMARK    1  A    between atoms: C_2  and  N_4
REMARK    2  A    between atoms: C_5  and  C_7
REMARK    3  A    between atoms: C_14  and  C_15
REMARK    4  A    between atoms: C_15  and  N_16
REMARK    5  A    between atoms: C_18  and  C_21
REMARK                            x       y       z     vdW  Elec       q    Type
REMARK                         _______ _______ _______ _____ _____    ______ ____
ROOT
ATOM      7  C   UNL     1      -2.966  -0.184  24.662  0.00  0.00    +0.094 C 
ATOM      8  C   UNL     1      -2.213  -0.248  24.480  0.00  0.00    +0.081 C 
ATOM      9  N   UNL     1      -2.628   0.456  24.596  0.00  0.00    -0.272 NA
ATOM     10  C   UNL     1      -3.617   0.198  24.827  0.00  0.00    +0.072 C 
ATOM     11  C   UNL     1      -4.229   0.371  24.978  0.00  0.00    +0.018 C 
ATOM     12  C   UNL     1      -3.367   0.511  24.774  0.00  0.00    +0.013 C 
ATOM     13  C   UNL     1      -3.112   1.350  24.733  0.00  0.00    +0.019 C 
ATOM     14  C   UNL     1      -2.370   1.330  24.554  0.00  0.00    +0.082 C 
ENDROOT
BRANCH   7   5
ATOM      4  N   UNL     1      -3.202  -1.545  24.296  0.00  0.00    -0.207 NA
ATOM      5  C   UNL     1      -3.396  -0.884  24.749  0.00  0.00    +0.242 C 
ATOM      6  O   UNL     1      -4.018  -0.922  25.289  0.00  0.00    -0.273 OA
BRANCH   4   2
ATOM      1  C   UNL     1      -3.448  -2.767  24.994  0.00  0.00    +0.023 C 
ATOM      2  C   UNL     1      -3.630  -2.244  24.382  0.00  0.00    +0.095 C 
ATOM      3  C   UNL     1      -4.241  -2.422  23.858  0.00  0.00    +0.023 C 
ENDBRANCH   4   2
ENDBRANCH   7   5
BRANCH  14  15
ATOM     15  C   UNL     1      -1.719   1.815  24.410  0.00  0.00    +0.145 C 
BRANCH  15  16
ATOM     16  N   UNL     1      -1.592   2.486  24.872  0.00  0.00    -0.229 N 
ATOM     17  C   UNL     1      -1.827   3.254  24.684  0.00  0.00    +0.121 A 
ATOM     18  C   UNL     1      -1.589   3.750  25.300  0.00  0.00    +0.158 A 
ATOM     19  N   UNL     1      -1.207   3.288  25.867  0.00  0.00    -0.126 NA
ATOM     20  N   UNL     1      -1.209   2.507  25.602  0.00  0.00    -0.064 NA
BRANCH  18  21
ATOM     21  C   UNL     1      -1.711   4.565  25.341  0.00  0.00    +0.194 C 
ATOM     22  C   UNL     1      -1.150   5.083  25.027  0.00  0.00    +0.079 C 
ATOM     23  O   UNL     1      -2.393   4.863  25.696  0.00  0.00    -0.290 OA
ENDBRANCH  18  21
ENDBRANCH  15  16
ENDBRANCH  14  15
TORSDOF 5
ENDMDL
MODEL 3
REMARK VINA RESULT:      -9.4      1.055      4.804
REMARK  Name = 
REMARK  5 active torsions:
REMARK  status: ('A' for Active; 'I' for Inactive)
REMARK    1  A    between atoms: C_2  and  N_4
REMARK    2  A    between atoms: C_5  and  C_7
REMARK    3  A    between atoms: C_14  and  C_15
REMARK    4  A    between atoms: C_15  and  N_16
REMARK    5  A    between atoms: C_18  and  C_21
REMARK                            x       y       z     vdW  Elec       q    Type
REMARK                         _______ _______ _______ _____ _____    ______ ____
ROOT
ATOM      7  C   UNL     1      -3.137   2.361  24.753  0.00  0.00    +0.094 C 
ATOM      8  C   UNL     1      -3.379   2.134  25.457  0.00  0.00    +0.081 C 
ATOM      9  N   UNL     1      -3.486   1.724  24.749  0.00  0.00    -0.272 NA
ATOM     10  C   UNL     1      -3.045   2.297  23.989  0.00  0.00    +0.072 C 
ATOM     11  C   UNL     1      -2.891   2.384  23.360  0.00  0.00    +0.018 C 
ATOM     12  C   UNL     1      -3.245   1.953  24.063  0.00  0.00    +0.013 C 
ATOM     13  C   UNL     1      -3.636   1.187  23.888  0.00  0.00    +0.019 C 
ATOM     14  C   UNL     1      -3.890   0.928  24.560  0.00  0.00    +0.082 C 
ENDROOT
BRANCH   7   5
ATOM      4  N   UNL     1      -2.188   3.287  25.288  0.00  0.00    -0.207 NA
ATOM      5  C   UNL     1      -2.734   3.081  24.706  0.00  0.00    +0.242 C 
ATOM      6  O   UNL     1      -2.879   3.594  24.076  0.00  0.00    -0.273 OA
BRANCH   4   2
ATOM      1  C   UNL     1      -1.001   4.024  24.987  0.00  0.00    +0.023 C 
ATOM      2  C   UNL     1      -1.786   4.005  25.241  0.00  0.00    +0.095 C 
ATOM      3  C   UNL     1      -2.168   4.707  25.448  0.00  0.00    +0.023 C 
ENDBRANCH   4   2
ENDBRANCH   7   5
BRANCH  14  15
ATOM     15  C   UNL     1      -4.293   0.299  24.908  0.00  0.00    +0.145 C 
BRANCH  15  16
ATOM     16  N   UNL     1      -4.136  -0.475  24.671  0.00  0.00    -0.229 N 
ATOM     17  C   UNL     1      -3.640  -1.009  25.058  0.00  0.00    +0.121 A 
ATOM     18  C   UNL     1      -3.645  -1.716  24.630  0.00  0.00    +0.158 A 
ATOM     19  N   UNL     1      -4.142  -1.616  23.980  0.00  0.00    -0.126 NA
ATOM     20  N   UNL     1      -4.445  -0.851  24.005  0.00  0.00    -0.064 NA
BRANCH  18  21
ATOM     21  C   UNL     1      -3.225  -2.400  24.821  0.00  0.00    +0.194 C 
ATOM     22  C   UNL     1      -2.493  -2.546  24.469  0.00  0.00    +0.079 C 
ATOM     23  O   UNL     1      -3.536  -2.937  25.363  0.00  0.00    -0.290 OA
ENDBRANCH  18  21
ENDBRANCH  15  16
ENDBRANCH  14  15
TORSDOF 5
ENDMDL
MODEL 4
REMARK VINA RESULT:      -9.3      1.352      4.983
REMARK  Name = 
REMARK  5 active torsions:
REMARK  status: ('A' for Active; 'I' for Inactive)
REMARK    1  A    between atoms: C_2  and  N_4
REMARK    2  A    between atoms: C_5  and  C_7
REMARK    3  A    between atoms: C_14  and  C_15
REMARK    4  A    between atoms: C_15  and  N_16
REMARK    5  A    between atoms: C_18  and  C_21
REMARK                            x       y       z     vdW  Elec       q    Type
REMARK                         _______ _______ _______ _____ _____    ______ ____
ROOT
ATOM      7  C   UNL     1      -2.184   2.235  24.949  0.00  0.00    +0.094 C 
ATOM      8  C   UNL     1      -1.556   1.896  25.259  0.00  0.00    +0.081 C 
ATOM      9  N   UNL     1      -2.223   1.509  24.965  0.00  0.00    -0.272 NA
ATOM     10  C   UNL     1      -2.883   2.248  24.622  0.00  0.00    +0.072 C 
ATOM     11  C   UNL     1      -3.451   2.419  24.348  0.00  0.00    +0.018 C 
ATOM     12  C   UNL     1      -2.835   1.848  24.663  0.00  0.00    +0.013 C 
ATOM     13  C   UNL     1      -3.037   0.996  24.609  0.00  0.00    +0.019 C 
ATOM     14  C   UNL     1      -2.439   0.625  24.905  0.00  0.00    +0.082 C 
ENDROOT
BRANCH   7   5
ATOM      4  N   UNL     1      -1.787   3.502  25.477  0.00  0.00    -0.207 NA
ATOM      5  C   UNL     1      -2.188   3.060  24.909  0.00  0.00    +0.242 C 
ATOM      6  O   UNL     1      -2.593   3.442  24.299  0.00  0.00    -0.273 OA
BRANCH   4   2
ATOM      1  C   UNL     1      -2.391   4.755  25.806  0.00  0.00    +0.023 C 
ATOM      2  C   UNL     1      -1.790   4.326  25.437  0.00  0.00    +0.095 C 
ATOM      3  C   UNL     1      -1.193   4.722  25.028  0.00  0.00    +0.023 C 
ENDBRANCH   4   2
ENDBRANCH   7   5
BRANCH  14  15
ATOM     15  C   UNL     1      -2.156  -0.131  25.073  0.00  0.00    +0.145 C 
BRANCH  15  16
ATOM     16  N   UNL     1      -2.680  -0.766  25.127  0.00  0.00    -0.229 N 
ATOM     17  C   UNL     1      -2.833  -1.319  24.534  0.00  0.00    +0.121 A 
ATOM     18  C   UNL     1      -3.391  -1.855  24.825  0.00  0.00    +0.158 A 
ATOM     19  N   UNL     1      -3.581  -1.631  25.596  0.00  0.00    -0.126 NA
ATOM     20  N   UNL     1      -3.142  -0.959  25.782  0.00  0.00    -0.064 NA
BRANCH  18  21
ATOM     21  C   UNL     1      -3.702  -2.499  24.415  0.00  0.00    +0.194 C 
ATOM     22  C   UNL     1      -4.286  -2.382  23.844  0.00  0.00    +0.079 C 
ATOM     23  O   UNL     1      -3.430  -3.261  24.576  0.00  0.00    -0.290 OA
ENDBRANCH  18  21
ENDBRANCH  15  16
ENDBRANCH  14  15
TORSDOF 5
ENDMDL
MODEL 5
REMARK VINA RESULT:      -9.2      2.099      2.604
REMARK  Name = 
REMARK  5 active torsions:
REMARK  status: ('A' for Active; 'I' for Inactive)
REMARK    1  A    between atoms: C_2  and  N_4
REMARK    2  A    between atoms: C_5  and  C_7
REMARK    3  A    between atoms: C_14  and  C_15
REMARK    4  A    between atoms: C_15  and  N_16
REMARK    5  A    between atoms: C_18  and  C_21
REMARK                            x       y       z     vdW  Elec       q    Type
REMARK                         _______ _______ _______ _____ _____    ______ ____
ROOT
ATOM      7  C   UNL     1      -3.150  -0.692  24.753  0.00  0.00    +0.094 C 
ATOM      8  C   UNL     1      -3.104  -0.280  24.094  0.00  0.00    +0.081 C 
ATOM      9  N   UNL     1      -3.667  -0.185  24.691  0.00  0.00    -0.272 NA
ATOM     10  C   UNL     1      -3.451  -0.890  25.435  0.00  0.00    +0.072 C 
ATOM     11  C   UNL     1      -3.585  -1.167  26.012  0.00  0.00    +0.018 C 
ATOM     12  C   UNL     1      -3.706  -0.593  25.334  0.00  0.00    +0.013 C 
ATOM     13  C   UNL     1      -4.383  -0.040  25.411  0.00  0.00    +0.019 C 
ATOM     14  C   UNL     1      -4.373   0.387  24.778  0.00  0.00    +0.082 C 
ENDROOT
BRANCH   7   5
ATOM      4  N   UNL     1      -1.810  -1.167  24.606  0.00  0.00    -0.207 NA
ATOM      5  C   UNL     1      -2.583  -1.280  24.871  0.00  0.00    +0.242 C 
ATOM      6  O   UNL     1      -2.790  -1.982  25.252  0.00  0.00    -0.273 OA
BRANCH   4   2
ATOM      1  C   UNL     1      -0.636  -1.640  25.270  0.00  0.00    +0.023 C 
ATOM      2  C   UNL     1      -1.244  -1.755  24.724  0.00  0.00    +0.095 C 
ATOM      3  C   UNL     1      -1.284  -2.458  24.295  0.00  0.00    +0.023 C 
ENDBRANCH   4   2
ENDBRANCH   7   5
BRANCH  14  15
ATOM     15  C   UNL     1      -4.769   1.002  24.398  0.00  0.00    +0.145 C 
BRANCH  15  16
ATOM     16  N   UNL     1      -5.057   1.640  24.835  0.00  0.00    -0.229 N 
ATOM     17  C   UNL     1      -4.703   2.382  24.901  0.00  0.00    +0.121 A 
ATOM     18  C   UNL     1      -5.179   2.848  25.389  0.00  0.00    +0.158 A 
ATOM     19  N   UNL     1      -5.826   2.393  25.624  0.00  0.00    -0.126 NA
ATOM     20  N   UNL     1      -5.751   1.647  25.281  0.00  0.00    -0.064 NA
BRANCH  18  21
ATOM     21  C   UNL     1      -5.032   3.631  25.604  0.00  0.00    +0.194 C 
ATOM     22  C   UNL     1      -4.255   3.898  25.685  0.00  0.00    +0.079 C 
ATOM     23  O   UNL     1      -5.661   4.146  25.738  0.00  0.00    -0.290 OA
ENDBRANCH  18  21
ENDBRANCH  15  16
ENDBRANCH  14  15
TORSDOF 5
ENDMDL
