MODEL 1
REMARK VINA RESULT:     -10.7      0.000      0.000
REMARK  Name = 
REMARK  7 active torsions:
REMARK  status: ('A' for Active; 'I' for Inactive)
REMARK    1  A    between atoms: C_4  and  C_15
REMARK    2  A    between atoms: C_6  and  C_8
REMARK    3  A    between atoms: C_22  and  C_23
REMARK    4  A    between atoms: C_23  and  N_24
REMARK    5  A    between atoms: N_24  and  S_25
REMARK    6  A    between atoms: S_25  and  C_28
REMARK    7  A    between atoms: C_28  and  C_29
REMARK                            x       y       z     vdW  Elec       q    Type
REMARK                         _______ _______ _______ _____ _____    ______ ____
ROOT
ATOM     15  C   UNL     1      -1.946   0.516  24.036  0.00  0.00    +0.056 C 
ATOM     16  C   UNL     1      -1.756   0.816  23.344  0.00  0.00    +0.078 C 
ATOM     17  N   UNL     1      -1.229   0.549  23.920  0.00  0.00    -0.272 NA
ATOM     18  C   UNL     1      -1.802   0.206  24.729  0.00  0.00    +0.072 C 
ATOM     19  C   UNL     1      -1.842  -0.056  25.326  0.00  0.00    +0.018 C 
ATOM     20  C   UNL     1      -1.423   0.255  24.596  0.00  0.00    +0.010 C 
ATOM     21  C   UNL     1      -0.546   0.226  24.613  0.00  0.00    +0.018 C 
ATOM     22  C   UNL     1      -0.317   0.516  23.945  0.00  0.00    +0.077 C 
ENDROOT
BRANCH  15   4
ATOM      1  C   UNL     1      -4.318  -1.061  24.283  0.00  0.00    +0.074 C 
ATOM      2  C   UNL     1      -3.935  -0.332  24.338  0.00  0.00    +0.139 A 
ATOM      3  N   UNL     1      -3.132  -0.273  24.160  0.00  0.00    -0.235 NA
ATOM      4  C   UNL     1      -2.750   0.457  24.215  0.00  0.00    +0.063 A 
ATOM      5  C   UNL     1      -3.170   1.126  24.449  0.00  0.00    +0.034 A 
ATOM      6  C   UNL     1      -3.973   1.067  24.628  0.00  0.00    +0.084 A 
ATOM      7  N   UNL     1      -4.356   0.338  24.572  0.00  0.00    -0.231 NA
BRANCH   6   8
ATOM      8  C   UNL     1      -4.395   1.736  24.862  0.00  0.00    +0.018 A 
ATOM      9  C   UNL     1      -4.242   2.465  24.506  0.00  0.00    +0.004 A 
ATOM     10  C   UNL     1      -4.663   3.135  24.739  0.00  0.00    +0.030 A 
ATOM     11  C   UNL     1      -5.237   3.076  25.330  0.00  0.00    +0.140 A 
ATOM     12  F   UNL     1      -5.658   3.746  25.563  0.00  0.00    -0.204 F 
ATOM     13  C   UNL     1      -5.390   2.348  25.685  0.00  0.00    +0.030 A 
ATOM     14  C   UNL     1      -4.969   1.678  25.451  0.00  0.00    +0.004 A 
ENDBRANCH   6   8
ENDBRANCH  15   4
BRANCH  22  23
ATOM     23  C   UNL     1       0.356   0.693  23.505  0.00  0.00    +0.131 C 
BRANCH  23  24
ATOM     24  N   UNL     1       1.035   0.230  23.583  0.00  0.00    -0.080 NA
BRANCH  24  25
ATOM     25  S   UNL     1       1.650   0.306  23.039  0.00  0.00    +0.062 S 
ATOM     26  O   UNL     1       1.491  -0.451  22.753  0.00  0.00    -0.156 OA
ATOM     27  O   UNL     1       1.810   1.063  23.324  0.00  0.00    -0.156 OA
BRANCH  25  28
ATOM     28  C   UNL     1       2.266   0.382  22.495  0.00  0.00    +0.197 C 
BRANCH  28  29
ATOM     29  C   UNL     1       3.049   0.316  22.746  0.00  0.00    +0.003 A 
ATOM     30  C   UNL     1       3.317  -0.387  23.083  0.00  0.00    -0.003 A 
ATOM     31  C   UNL     1       4.101  -0.452  23.334  0.00  0.00    -0.000 A 
ATOM     32  C   UNL     1       4.616   0.187  23.248  0.00  0.00    -0.000 A 
ATOM     33  C   UNL     1       4.347   0.890  22.911  0.00  0.00    -0.000 A 
ATOM     34  C   UNL     1       3.564   0.955  22.660  0.00  0.00    -0.003 A 
ENDBRANCH  28  29
ENDBRANCH  25  28
ENDBRANCH  24  25
ENDBRANCH  23  24
ENDBRANCH  22  23
TORSDOF 7
ENDMDL
MODEL 2
REMARK VINA RESULT:     -10.6      2.966      4.934
REMARK  Name = 
REMARK  7 active torsions:
REMARK  status: ('A' for Active; 'I' for Inactive)
REMARK    1  A    between atoms: C_4  and  C_15
REMARK    2  A    between atoms: C_6  and  C_8
REMARK    3  A    between atoms: C_22  and  C_23
REMARK    4  A    between atoms: C_23  and  N_24
REMARK    5  A    between atoms: N_24  and  S_25
REMARK    6  A    between atoms: S_25  and  C_28
REMARK    7  A    between atoms: C_28  and  C_29
REMARK                            x       y       z     vdW  Elec       q    Type
REMARK                         _______ _______ _______ _____ _____    ______ ____
ROOT
ATOM     15  C   UNL     1      -0.838   0.245  25.014  0.00  0.00    +0.056 C 
ATOM     16  C   UNL     1      -1.129   0.665  25.602  0.00  0.00    +0.078 C 
ATOM     17  N   UNL     1      -0.636   0.943  25.000  0.00  0.00    -0.272 NA
ATOM     18  C   UNL     1      -0.426   0.131  24.372  0.00  0.00    +0.072 C 
ATOM     19  C   UNL     1      -0.130  -0.117  23.845  0.00  0.00    +0.018 C 
ATOM     20  C   UNL     1      -0.356   0.526  24.428  0.00  0.00    +0.010 C 
ATOM     21  C   UNL     1      -0.026   1.324  24.269  0.00  0.00    +0.018 C 
ATOM     22  C   UNL     1      -0.290   1.770  24.829  0.00  0.00    +0.077 C 
ENDROOT
BRANCH  15   4
ATOM      1  C   UNL     1      -0.134  -2.499  25.393  0.00  0.00    +0.074 C 
ATOM      2  C   UNL     1      -0.687  -1.927  25.176  0.00  0.00    +0.139 A 
ATOM      3  N   UNL     1      -0.486  -1.128  25.204  0.00  0.00    -0.235 NA
ATOM      4  C   UNL     1      -1.040  -0.555  24.986  0.00  0.00    +0.063 A 
ATOM      5  C   UNL     1      -1.793  -0.782  24.740  0.00  0.00    +0.034 A 
ATOM      6  C   UNL     1      -1.994  -1.582  24.712  0.00  0.00    +0.084 A 
ATOM      7  N   UNL     1      -1.441  -2.154  24.930  0.00  0.00    -0.231 NA
BRANCH   6   8
ATOM      8  C   UNL     1      -2.747  -1.810  24.466  0.00  0.00    +0.018 A 
ATOM      9  C   UNL     1      -3.333  -1.240  24.348  0.00  0.00    +0.004 A 
ATOM     10  C   UNL     1      -4.087  -1.468  24.102  0.00  0.00    +0.030 A 
ATOM     11  C   UNL     1      -4.256  -2.266  23.975  0.00  0.00    +0.140 A 
ATOM     12  F   UNL     1      -5.010  -2.493  23.729  0.00  0.00    -0.204 F 
ATOM     13  C   UNL     1      -3.671  -2.834  24.093  0.00  0.00    +0.030 A 
ATOM     14  C   UNL     1      -2.916  -2.607  24.338  0.00  0.00    +0.004 A 
ENDBRANCH   6   8
ENDBRANCH  15   4
BRANCH  22  23
ATOM     23  C   UNL     1      -0.272   2.544  25.112  0.00  0.00    +0.131 C 
BRANCH  23  24
ATOM     24  N   UNL     1      -0.471   3.171  24.614  0.00  0.00    -0.080 NA
BRANCH  24  25
ATOM     25  S   UNL     1      -0.953   3.780  24.891  0.00  0.00    +0.062 S 
ATOM     26  O   UNL     1      -1.292   3.851  24.141  0.00  0.00    -0.156 OA
ATOM     27  O   UNL     1      -0.616   3.709  25.639  0.00  0.00    -0.156 OA
BRANCH  25  28
ATOM     28  C   UNL     1      -1.436   4.389  25.167  0.00  0.00    +0.197 C 
BRANCH  28  29
ATOM     29  C   UNL     1      -2.223   4.236  25.362  0.00  0.00    +0.003 A 
ATOM     30  C   UNL     1      -2.778   4.099  24.767  0.00  0.00    -0.003 A 
ATOM     31  C   UNL     1      -3.564   3.946  24.963  0.00  0.00    -0.000 A 
ATOM     32  C   UNL     1      -3.796   3.929  25.755  0.00  0.00    -0.000 A 
ATOM     33  C   UNL     1      -3.242   4.066  26.349  0.00  0.00    -0.000 A 
ATOM     34  C   UNL     1      -2.455   4.220  26.154  0.00  0.00    -0.003 A 
ENDBRANCH  28  29
ENDBRANCH  25  28
ENDBRANCH  24  25
ENDBRANCH  23  24
ENDBRANCH  22  23
TORSDOF 7
ENDMDL
MODEL 3
REMARK VINA RESULT:     -10.6      1.553      2.533
REMARK  Name = 
REMARK  7 active torsions:
REMARK  status: ('A' for Active; 'I' for Inactive)
REMARK    1  A    between atoms: C_4  and  C_15
REMARK    2  A    between atoms: C_6  and  C_8
REMARK    3  A    between atoms: C_22  and  C_23
REMARK    4  A    between atoms: C_23  and  N_24
REMARK    5  A    between atoms: N_24  and  S_25
REMARK    6  A    between atoms: S_25  and  C_28
REMARK    7  A    between atoms: C_28  and  C_29
REMARK                            x       y       z     vdW  Elec       q    Type
REMARK                         _______ _______ _______ _____ _____    ______ ____
ROOT
ATOM     15  C   UNL     1      -0.977   0.902  23.991  0.00  0.00    +0.056 C 
ATOM     16  C   UNL     1      -0.784   0.773  23.248  0.00  0.00    +0.078 C 
ATOM     17  N   UNL     1      -0.268   0.986  23.856  0.00  0.00    -0.272 NA
ATOM     18  C   UNL     1      -0.840   1.083  24.729  0.00  0.00    +0.072 C 
ATOM     19  C   UNL     1      -0.884   1.213  25.368  0.00  0.00    +0.018 C 
ATOM     20  C   UNL     1      -0.464   1.111  24.582  0.00  0.00    +0.010 C 
ATOM     21  C   UNL     1       0.402   1.249  24.587  0.00  0.00    +0.018 C 
ATOM     22  C   UNL     1       0.633   1.131  23.869  0.00  0.00    +0.077 C 
ENDROOT
BRANCH  15   4
ATOM      1  C   UNL     1      -3.484   2.076  24.704  0.00  0.00    +0.074 C 
ATOM      2  C   UNL     1      -3.026   1.407  24.551  0.00  0.00    +0.139 A 
ATOM      3  N   UNL     1      -2.231   1.489  24.348  0.00  0.00    -0.235 NA
ATOM      4  C   UNL     1      -1.773   0.820  24.194  0.00  0.00    +0.063 A 
ATOM      5  C   UNL     1      -2.110   0.069  24.244  0.00  0.00    +0.034 A 
ATOM      6  C   UNL     1      -2.905  -0.013  24.447  0.00  0.00    +0.084 A 
ATOM      7  N   UNL     1      -3.364   0.655  24.601  0.00  0.00    -0.231 NA
BRANCH   6   8
ATOM      8  C   UNL     1      -3.243  -0.764  24.497  0.00  0.00    +0.018 A 
ATOM      9  C   UNL     1      -3.126  -1.225  25.172  0.00  0.00    +0.004 A 
ATOM     10  C   UNL     1      -3.464  -1.976  25.223  0.00  0.00    +0.030 A 
ATOM     11  C   UNL     1      -3.919  -2.266  24.598  0.00  0.00    +0.140 A 
ATOM     12  F   UNL     1      -4.257  -3.017  24.649  0.00  0.00    -0.204 F 
ATOM     13  C   UNL     1      -4.036  -1.805  23.925  0.00  0.00    +0.030 A 
ATOM     14  C   UNL     1      -3.698  -1.054  23.874  0.00  0.00    +0.004 A 
ENDBRANCH   6   8
ENDBRANCH  15   4
BRANCH  22  23
ATOM     23  C   UNL     1       1.303   1.134  23.388  0.00  0.00    +0.131 C 
BRANCH  23  24
ATOM     24  N   UNL     1       1.869   0.539  23.465  0.00  0.00    -0.080 NA
BRANCH  24  25
ATOM     25  S   UNL     1       2.573   0.583  23.037  0.00  0.00    +0.062 S 
ATOM     26  O   UNL     1       2.756   1.294  23.412  0.00  0.00    -0.156 OA
ATOM     27  O   UNL     1       2.390  -0.128  22.662  0.00  0.00    -0.156 OA
BRANCH  25  28
ATOM     28  C   UNL     1       3.277   0.627  22.609  0.00  0.00    +0.197 C 
BRANCH  28  29
ATOM     29  C   UNL     1       3.986   0.383  22.954  0.00  0.00    +0.003 A 
ATOM     30  C   UNL     1       4.083  -0.403  23.186  0.00  0.00    -0.003 A 
ATOM     31  C   UNL     1       4.792  -0.645  23.531  0.00  0.00    -0.000 A 
ATOM     32  C   UNL     1       5.403  -0.103  23.645  0.00  0.00    -0.000 A 
ATOM     33  C   UNL     1       5.305   0.682  23.413  0.00  0.00    -0.000 A 
ATOM     34  C   UNL     1       4.597   0.926  23.068  0.00  0.00    -0.003 A 
ENDBRANCH  28  29
ENDBRANCH  25  28
ENDBRANCH  24  25
ENDBRANCH  23  24
ENDBRANCH  22  23
TORSDOF 7
ENDMDL
MODEL 4
REMARK VINA RESULT:     -10.5      2.729      4.214
REMARK  Name = 
REMARK  7 active torsions:
REMARK  status: ('A' for Active; 'I' for Inactive)
REMARK    1  A    between atoms: C_4  and  C_15
REMARK    2  A    between atoms: C_6  and  C_8
REMARK    3  A    between atoms: C_22  and  C_23
REMARK    4  A    between atoms: C_23  and  N_24
REMARK    5  A    between atoms: N_24  and  S_25
REMARK    6  A    between atoms: S_25  and  C_28
REMARK    7  A    between atoms: C_28  and  C_29
REMARK                            x       y       z     vdW  Elec       q    Type
REMARK                         _______ _______ _______ _____ _____    ______ ____
ROOT
ATOM     15  C   UNL     1      -1.364   1.924  24.848  0.00  0.00    +0.056 C 
ATOM     16  C   UNL     1      -1.602   1.514  24.231  0.00  0.00    +0.078 C 
ATOM     17  N   UNL     1      -1.087   1.253  24.820  0.00  0.00    -0.272 NA
ATOM     18  C   UNL     1      -0.972   2.040  25.502  0.00  0.00    +0.072 C 
ATOM     19  C   UNL     1      -0.709   2.285  26.048  0.00  0.00    +0.018 C 
ATOM     20  C   UNL     1      -0.858   1.660  25.423  0.00  0.00    +0.010 C 
ATOM     21  C   UNL     1      -0.444   0.895  25.536  0.00  0.00    +0.018 C 
ATOM     22  C   UNL     1      -0.653   0.459  24.944  0.00  0.00    +0.077 C 
ENDROOT
BRANCH  15   4
ATOM      1  C   UNL     1      -0.905   4.745  24.889  0.00  0.00    +0.074 C 
ATOM      2  C   UNL     1      -1.423   4.105  24.944  0.00  0.00    +0.139 A 
ATOM      3  N   UNL     1      -1.135   3.335  24.869  0.00  0.00    -0.235 NA
ATOM      4  C   UNL     1      -1.652   2.694  24.924  0.00  0.00    +0.063 A 
ATOM      5  C   UNL     1      -2.456   2.823  25.054  0.00  0.00    +0.034 A 
ATOM      6  C   UNL     1      -2.743   3.592  25.130  0.00  0.00    +0.084 A 
ATOM      7  N   UNL     1      -2.227   4.233  25.075  0.00  0.00    -0.231 NA
BRANCH   6   8
ATOM      8  C   UNL     1      -3.548   3.721  25.260  0.00  0.00    +0.018 A 
ATOM      9  C   UNL     1      -4.071   3.740  24.622  0.00  0.00    +0.004 A 
ATOM     10  C   UNL     1      -4.876   3.870  24.752  0.00  0.00    +0.030 A 
ATOM     11  C   UNL     1      -5.157   3.980  25.520  0.00  0.00    +0.140 A 
ATOM     12  F   UNL     1      -5.961   4.110  25.650  0.00  0.00    -0.204 F 
ATOM     13  C   UNL     1      -4.634   3.961  26.157  0.00  0.00    +0.030 A 
ATOM     14  C   UNL     1      -3.829   3.832  26.027  0.00  0.00    +0.004 A 
ENDBRANCH   6   8
ENDBRANCH  15   4
BRANCH  22  23
ATOM     23  C   UNL     1      -0.548  -0.288  24.613  0.00  0.00    +0.131 C 
BRANCH  23  24
ATOM     24  N   UNL     1      -0.609  -0.962  25.086  0.00  0.00    -0.080 NA
BRANCH  24  25
ATOM     25  S   UNL     1      -1.017  -1.623  24.811  0.00  0.00    +0.062 S 
ATOM     26  O   UNL     1      -1.230  -1.813  25.585  0.00  0.00    -0.156 OA
ATOM     27  O   UNL     1      -0.805  -1.434  24.037  0.00  0.00    -0.156 OA
BRANCH  25  28
ATOM     28  C   UNL     1      -1.426  -2.285  24.536  0.00  0.00    +0.197 C 
BRANCH  28  29
ATOM     29  C   UNL     1      -2.251  -2.301  24.563  0.00  0.00    +0.003 A 
ATOM     30  C   UNL     1      -2.691  -2.038  23.916  0.00  0.00    -0.003 A 
ATOM     31  C   UNL     1      -3.515  -2.054  23.944  0.00  0.00    -0.000 A 
ATOM     32  C   UNL     1      -3.900  -2.334  24.618  0.00  0.00    -0.000 A 
ATOM     33  C   UNL     1      -3.460  -2.597  25.264  0.00  0.00    -0.000 A 
ATOM     34  C   UNL     1      -2.636  -2.581  25.237  0.00  0.00    -0.003 A 
ENDBRANCH  28  29
ENDBRANCH  25  28
ENDBRANCH  24  25
ENDBRANCH  23  24
ENDBRANCH  22  23
TORSDOF 7
ENDMDL
MODEL 5
REMARK VINA RESULT:     -10.3      1.593      2.175
REMARK  Name = 
REMARK  7 active torsions:
REMARK  status: ('A' for Active; 'I' for Inactive)
REMARK    1  A    between atoms: C_4  and  C_15
REMARK    2  A    between atoms: C_6  and  C_8
REMARK    3  A    between atoms: C_22  and  C_23
REMARK    4  A    between atoms: C_23  and  N_24
REMARK    5  A    between atoms: N_24  and  S_25
REMARK    6  A    between atoms: S_25  and  C_28
REMARK    7  A    between atoms: C_28  and  C_29
REMARK                            x       y       z     vdW  Elec       q    Type
REMARK                         _______ _______ _______ _____ _____    ______ ____
ROOT
ATOM     15  C   UNL     1      -1.203   2.375  24.357  0.00  0.00    +0.056 C 
ATOM     16  C   UNL     1      -1.108   2.320  23.587  0.00  0.00    +0.078 C 
ATOM     17  N   UNL     1      -0.667   1.926  24.162  0.00  0.00    -0.272 NA
ATOM     18  C   UNL     1      -1.045   2.216  25.096  0.00  0.00    +0.072 C 
ATOM     19  C   UNL     1      -1.033   2.184  25.748  0.00  0.00    +0.018 C 
ATOM     20  C   UNL     1      -0.766   1.985  24.915  0.00  0.00    +0.010 C 
ATOM     21  C   UNL     1      -0.097   1.420  24.849  0.00  0.00    +0.018 C 
ATOM     22  C   UNL     1       0.029   1.338  24.100  0.00  0.00    +0.077 C 
ENDROOT
BRANCH  15   4
ATOM      1  C   UNL     1      -2.041   4.917  25.363  0.00  0.00    +0.074 C 
ATOM      2  C   UNL     1      -2.221   4.145  25.132  0.00  0.00    +0.139 A 
ATOM      3  N   UNL     1      -1.623   3.647  24.860  0.00  0.00    -0.235 NA
ATOM      4  C   UNL     1      -1.803   2.875  24.629  0.00  0.00    +0.063 A 
ATOM      5  C   UNL     1      -2.579   2.602  24.670  0.00  0.00    +0.034 A 
ATOM      6  C   UNL     1      -3.177   3.101  24.942  0.00  0.00    +0.084 A 
ATOM      7  N   UNL     1      -2.998   3.873  25.173  0.00  0.00    -0.231 NA
BRANCH   6   8
ATOM      8  C   UNL     1      -3.955   2.829  24.983  0.00  0.00    +0.018 A 
ATOM      9  C   UNL     1      -4.384   2.910  25.683  0.00  0.00    +0.004 A 
ATOM     10  C   UNL     1      -5.162   2.639  25.725  0.00  0.00    +0.030 A 
ATOM     11  C   UNL     1      -5.511   2.286  25.066  0.00  0.00    +0.140 A 
ATOM     12  F   UNL     1      -6.289   2.015  25.108  0.00  0.00    -0.204 F 
ATOM     13  C   UNL     1      -5.083   2.206  24.366  0.00  0.00    +0.030 A 
ATOM     14  C   UNL     1      -4.305   2.477  24.324  0.00  0.00    +0.004 A 
ENDBRANCH   6   8
ENDBRANCH  15   4
BRANCH  22  23
ATOM     23  C   UNL     1       0.510   0.947  23.557  0.00  0.00    +0.131 C 
BRANCH  23  24
ATOM     24  N   UNL     1       1.268   0.706  23.776  0.00  0.00    -0.080 NA
BRANCH  24  25
ATOM     25  S   UNL     1       1.823   0.515  23.196  0.00  0.00    +0.062 S 
ATOM     26  O   UNL     1       1.483  -0.233  23.117  0.00  0.00    -0.156 OA
ATOM     27  O   UNL     1       2.162   1.262  23.274  0.00  0.00    -0.156 OA
BRANCH  25  28
ATOM     28  C   UNL     1       2.377   0.324  22.615  0.00  0.00    +0.197 C 
BRANCH  28  29
ATOM     29  C   UNL     1       3.177   0.267  22.811  0.00  0.00    +0.003 A 
ATOM     30  C   UNL     1       3.686   0.898  22.655  0.00  0.00    -0.003 A 
ATOM     31  C   UNL     1       4.485   0.840  22.851  0.00  0.00    -0.000 A 
ATOM     32  C   UNL     1       4.775   0.153  23.203  0.00  0.00    -0.000 A 
ATOM     33  C   UNL     1       4.266  -0.476  23.360  0.00  0.00    -0.000 A 
ATOM     34  C   UNL     1       3.467  -0.420  23.164  0.00  0.00    -0.003 A 
ENDBRANCH  28  29
ENDBRANCH  25  28
ENDBRANCH  24  25
ENDBRANCH  23  24
ENDBRANCH  22  23
TORSDOF 7
ENDMDL
MODEL 6
REMARK VINA RESULT:      -9.6      3.629      5.303
REMARK  Name = 
REMARK  7 active torsions:
REMARK  status: ('A' for Active; 'I' for Inactive)
REMARK    1  A    between atoms: C_4  and  C_15
REMARK    2  A    between atoms: C_6  and  C_8
REMARK    3  A    between atoms: C_22  and  C_23
REMARK    4  A    between atoms: C_23  and  N_24
REMARK    5  A    between atoms: N_24  and  S_25
REMARK    6  A    between atoms: S_25  and  C_28
REMARK    7  A    between atoms: C_28  and  C_29
REMARK                            x       y       z     vdW  Elec       q    Type
REMARK                         _______ _______ _______ _____ _____    ______ ____
ROOT
ATOM     15  C   UNL     1      -3.785   0.546  24.433  0.00  0.00    +0.056 C 
ATOM     16  C   UNL     1      -3.398   1.067  24.002  0.00  0.00    +0.078 C 
ATOM     17  N   UNL     1      -4.000   1.232  24.542  0.00  0.00    -0.272 NA
ATOM     18  C   UNL     1      -4.308   0.317  24.952  0.00  0.00    +0.072 C 
ATOM     19  C   UNL     1      -4.692  -0.023  25.356  0.00  0.00    +0.018 C 
ATOM     20  C   UNL     1      -4.375   0.716  24.961  0.00  0.00    +0.010 C 
ATOM     21  C   UNL     1      -4.745   1.474  25.205  0.00  0.00    +0.018 C 
ATOM     22  C   UNL     1      -4.390   2.015  24.801  0.00  0.00    +0.077 C 
ENDROOT
BRANCH  15   4
ATOM      1  C   UNL     1      -4.429  -2.100  23.565  0.00  0.00    +0.074 C 
ATOM      2  C   UNL     1      -3.898  -1.571  23.910  0.00  0.00    +0.139 A 
ATOM      3  N   UNL     1      -4.107  -0.778  23.999  0.00  0.00    -0.235 NA
ATOM      4  C   UNL     1      -3.576  -0.248  24.344  0.00  0.00    +0.063 A 
ATOM      5  C   UNL     1      -2.838  -0.511  24.599  0.00  0.00    +0.034 A 
ATOM      6  C   UNL     1      -2.629  -1.304  24.510  0.00  0.00    +0.084 A 
ATOM      7  N   UNL     1      -3.159  -1.834  24.166  0.00  0.00    -0.231 NA
BRANCH   6   8
ATOM      8  C   UNL     1      -1.891  -1.568  24.766  0.00  0.00    +0.018 A 
ATOM      9  C   UNL     1      -1.810  -2.328  25.078  0.00  0.00    +0.004 A 
ATOM     10  C   UNL     1      -1.071  -2.593  25.334  0.00  0.00    +0.030 A 
ATOM     11  C   UNL     1      -0.413  -2.097  25.277  0.00  0.00    +0.140 A 
ATOM     12  F   UNL     1       0.325  -2.363  25.532  0.00  0.00    -0.204 F 
ATOM     13  C   UNL     1      -0.494  -1.339  24.964  0.00  0.00    +0.030 A 
ATOM     14  C   UNL     1      -1.233  -1.074  24.709  0.00  0.00    +0.004 A 
ENDBRANCH   6   8
ENDBRANCH  15   4
BRANCH  22  23
ATOM     23  C   UNL     1      -4.370   2.830  24.675  0.00  0.00    +0.131 C 
BRANCH  23  24
ATOM     24  N   UNL     1      -4.320   3.347  25.316  0.00  0.00    -0.080 NA
BRANCH  24  25
ATOM     25  S   UNL     1      -3.774   3.964  25.306  0.00  0.00    +0.062 S 
ATOM     26  O   UNL     1      -3.707   3.917  26.127  0.00  0.00    -0.156 OA
ATOM     27  O   UNL     1      -3.840   4.011  24.485  0.00  0.00    -0.156 OA
BRANCH  25  28
ATOM     28  C   UNL     1      -3.226   4.582  25.297  0.00  0.00    +0.197 C 
BRANCH  28  29
ATOM     29  C   UNL     1      -2.418   4.417  25.312  0.00  0.00    +0.003 A 
ATOM     30  C   UNL     1      -2.111   3.905  25.882  0.00  0.00    -0.003 A 
ATOM     31  C   UNL     1      -1.303   3.741  25.896  0.00  0.00    -0.000 A 
ATOM     32  C   UNL     1      -0.801   4.089  25.341  0.00  0.00    -0.000 A 
ATOM     33  C   UNL     1      -1.108   4.600  24.772  0.00  0.00    -0.000 A 
ATOM     34  C   UNL     1      -1.916   4.764  24.757  0.00  0.00    -0.003 A 
ENDBRANCH  28  29
ENDBRANCH  25  28
ENDBRANCH  24  25
ENDBRANCH  23  24
ENDBRANCH  22  23
TORSDOF 7
ENDMDL
MODEL 7
REMARK VINA RESULT:      -9.6      3.069      6.178
REMARK  Name = 
REMARK  7 active torsions:
REMARK  status: ('A' for Active; 'I' for Inactive)
REMARK    1  A    between atoms: C_4  and  C_15
REMARK    2  A    between atoms: C_6  and  C_8
REMARK    3  A    between atoms: C_22  and  C_23
REMARK    4  A    between atoms: C_23  and  N_24
REMARK    5  A    between atoms: N_24  and  S_25
REMARK    6  A    between atoms: S_25  and  C_28
REMARK    7  A    between atoms: C_28  and  C_29
REMARK                            x       y       z     vdW  Elec       q    Type
REMARK                         _______ _______ _______ _____ _____    ______ ____
ROOT
ATOM     15  C   UNL     1      -1.216   1.769  24.415  0.00  0.00    +0.056 C 
ATOM     16  C   UNL     1      -1.848   1.884  23.975  0.00  0.00    +0.078 C 
ATOM     17  N   UNL     1      -1.596   2.360  24.601  0.00  0.00    -0.272 NA
ATOM     18  C   UNL     1      -0.717   1.932  24.981  0.00  0.00    +0.072 C 
ATOM     19  C   UNL     1      -0.222   1.936  25.406  0.00  0.00    +0.018 C 
ATOM     20  C   UNL     1      -0.975   2.241  25.027  0.00  0.00    +0.010 C 
ATOM     21  C   UNL     1      -1.312   2.974  25.372  0.00  0.00    +0.018 C 
ATOM     22  C   UNL     1      -1.940   3.123  24.965  0.00  0.00    +0.077 C 
ENDROOT
BRANCH  15   4
ATOM      1  C   UNL     1       1.147   0.637  23.272  0.00  0.00    +0.074 C 
ATOM      2  C   UNL     1       0.430   0.543  23.670  0.00  0.00    +0.139 A 
ATOM      3  N   UNL     1      -0.034   1.202  23.843  0.00  0.00    -0.235 NA
ATOM      4  C   UNL     1      -0.751   1.109  24.242  0.00  0.00    +0.063 A 
ATOM      5  C   UNL     1      -1.003   0.357  24.467  0.00  0.00    +0.034 A 
ATOM      6  C   UNL     1      -0.538  -0.302  24.294  0.00  0.00    +0.084 A 
ATOM      7  N   UNL     1       0.178  -0.210  23.896  0.00  0.00    -0.231 NA
BRANCH   6   8
ATOM      8  C   UNL     1      -0.790  -1.055  24.519  0.00  0.00    +0.018 A 
ATOM      9  C   UNL     1      -1.366  -1.447  24.076  0.00  0.00    +0.004 A 
ATOM     10  C   UNL     1      -1.618  -2.200  24.301  0.00  0.00    +0.030 A 
ATOM     11  C   UNL     1      -1.293  -2.561  24.968  0.00  0.00    +0.140 A 
ATOM     12  F   UNL     1      -1.545  -3.314  25.192  0.00  0.00    -0.204 F 
ATOM     13  C   UNL     1      -0.718  -2.170  25.410  0.00  0.00    +0.030 A 
ATOM     14  C   UNL     1      -0.466  -1.417  25.186  0.00  0.00    +0.004 A 
ENDBRANCH   6   8
ENDBRANCH  15   4
BRANCH  22  23
ATOM     23  C   UNL     1      -2.563   3.658  24.896  0.00  0.00    +0.131 C 
BRANCH  23  24
ATOM     24  N   UNL     1      -3.054   3.807  25.542  0.00  0.00    -0.080 NA
BRANCH  24  25
ATOM     25  S   UNL     1      -3.872   3.837  25.440  0.00  0.00    +0.062 S 
ATOM     26  O   UNL     1      -3.978   3.626  26.231  0.00  0.00    -0.156 OA
ATOM     27  O   UNL     1      -3.767   4.047  24.650  0.00  0.00    -0.156 OA
BRANCH  25  28
ATOM     28  C   UNL     1      -4.690   3.866  25.338  0.00  0.00    +0.197 C 
BRANCH  28  29
ATOM     29  C   UNL     1      -5.134   3.171  25.355  0.00  0.00    +0.003 A 
ATOM     30  C   UNL     1      -5.208   2.711  24.674  0.00  0.00    -0.003 A 
ATOM     31  C   UNL     1      -5.651   2.016  24.692  0.00  0.00    -0.000 A 
ATOM     32  C   UNL     1      -6.021   1.780  25.391  0.00  0.00    -0.000 A 
ATOM     33  C   UNL     1      -5.947   2.239  26.071  0.00  0.00    -0.000 A 
ATOM     34  C   UNL     1      -5.504   2.935  26.054  0.00  0.00    -0.003 A 
ENDBRANCH  28  29
ENDBRANCH  25  28
ENDBRANCH  24  25
ENDBRANCH  23  24
ENDBRANCH  22  23
TORSDOF 7
ENDMDL
