MODEL 1
REMARK VINA RESULT:     -11.3      0.000      0.000
REMARK  Name = 
REMARK  8 active torsions:
REMARK  status: ('A' for Active; 'I' for Inactive)
REMARK    1  A    between atoms: O_2  and  C_3
REMARK    2  A    between atoms: C_3  and  C_4
REMARK    3  A    between atoms: C_4  and  O_5
REMARK    4  A    between atoms: O_5  and  C_6
REMARK    5  A    between atoms: C_8  and  C_12
REMARK    6  A    between atoms: C_15  and  C_17
REMARK    7  A    between atoms: N_21  and  C_22
REMARK    8  A    between atoms: C_22  and  C_23
REMARK                            x       y       z     vdW  Elec       q    Type
REMARK                         _______ _______ _______ _____ _____    ______ ____
ROOT
ATOM     12  C   UNL     1      -3.122   3.321  24.719  0.00  0.00    +0.204 A 
ATOM     13  N   UNL     1      -3.582   3.493  24.056  0.00  0.00    -0.056 NA
ATOM     14  O   UNL     1      -4.253   3.013  24.080  0.00  0.00    -0.336 OA
ATOM     15  C   UNL     1      -4.208   2.545  24.758  0.00  0.00    +0.251 A 
ATOM     16  N   UNL     1      -3.509   2.736  25.153  0.00  0.00    -0.190 NA
ENDROOT
BRANCH  12   8
ATOM      6  C   UNL     1      -0.999   3.567  25.162  0.00  0.00    +0.225 A 
ATOM      7  C   UNL     1      -1.719   3.214  24.967  0.00  0.00    +0.061 A 
ATOM      8  C   UNL     1      -2.403   3.674  24.914  0.00  0.00    +0.045 A 
ATOM      9  C   UNL     1      -2.366   4.485  25.056  0.00  0.00    +0.024 A 
ATOM     10  C   UNL     1      -1.646   4.838  25.251  0.00  0.00    +0.102 A 
ATOM     11  N   UNL     1      -0.963   4.379  25.304  0.00  0.00    -0.210 NA
BRANCH   6   5
ATOM      5  O   UNL     1      -0.316   3.108  25.215  0.00  0.00    -0.457 OA
BRANCH   5   4
ATOM      4  C   UNL     1      -0.047   2.690  24.556  0.00  0.00    +0.239 C 
BRANCH   4   3
ATOM      3  C   UNL     1       0.455   2.043  24.656  0.00  0.00    +0.189 C 
BRANCH   3   2
ATOM      1  C   UNL     1       0.989   1.068  23.757  0.00  0.00    +0.174 C 
ATOM      2  O   UNL     1       0.985   1.836  24.058  0.00  0.00    -0.347 OA
ENDBRANCH   3   2
ENDBRANCH   4   3
ENDBRANCH   5   4
ENDBRANCH   6   5
ENDBRANCH  12   8
BRANCH  15  17
ATOM     17  C   UNL     1      -4.763   1.985  24.998  0.00  0.00    +0.138 C 
ATOM     18  C   UNL     1      -5.484   2.144  25.368  0.00  0.00    +0.027 C 
ATOM     19  C   UNL     1      -5.862   1.424  25.510  0.00  0.00    +0.019 C 
ATOM     20  C   UNL     1      -5.375   0.821  25.229  0.00  0.00    +0.073 C 
ATOM     21  N   UNL     1      -4.696   1.167  24.912  0.00  0.00    -0.263 NA
BRANCH  21  22
ATOM     22  C   UNL     1      -4.062   0.766  24.570  0.00  0.00    +0.100 C 
BRANCH  22  23
ATOM     23  C   UNL     1      -4.001  -0.053  24.648  0.00  0.00    -0.004 A 
ATOM     24  C   UNL     1      -4.266  -0.546  24.042  0.00  0.00    +0.029 A 
ATOM     25  C   UNL     1      -4.206  -1.365  24.120  0.00  0.00    +0.167 A 
ATOM     26  F   UNL     1      -4.471  -1.858  23.513  0.00  0.00    -0.202 F 
ATOM     27  C   UNL     1      -3.880  -1.691  24.803  0.00  0.00    +0.167 A 
ATOM     28  F   UNL     1      -3.819  -2.511  24.882  0.00  0.00    -0.202 F 
ATOM     29  C   UNL     1      -3.615  -1.199  25.410  0.00  0.00    +0.032 A 
ATOM     30  C   UNL     1      -3.676  -0.379  25.332  0.00  0.00    -0.000 A 
ENDBRANCH  22  23
ENDBRANCH  21  22
ENDBRANCH  15  17
TORSDOF 8
ENDMDL
MODEL 2
REMARK VINA RESULT:     -11.2      1.667      3.538
REMARK  Name = 
REMARK  8 active torsions:
REMARK  status: ('A' for Active; 'I' for Inactive)
REMARK    1  A    between atoms: O_2  and  C_3
REMARK    2  A    between atoms: C_3  and  C_4
REMARK    3  A    between atoms: C_4  and  O_5
REMARK    4  A    between atoms: O_5  and  C_6
REMARK    5  A    between atoms: C_8  and  C_12
REMARK    6  A    between atoms: C_15  and  C_17
REMARK    7  A    between atoms: N_21  and  C_22
REMARK    8  A    between atoms: C_22  and  C_23
REMARK                            x       y       z     vdW  Elec       q    Type
REMARK                         _______ _______ _______ _____ _____    ______ ____
ROOT
ATOM     12  C   UNL     1      -1.068   2.121  25.461  0.00  0.00    +0.204 A 
ATOM     13  N   UNL     1      -0.717   1.767  26.120  0.00  0.00    -0.056 NA
ATOM     14  O   UNL     1      -0.566   0.977  25.934  0.00  0.00    -0.336 OA
ATOM     15  C   UNL     1      -0.823   0.844  25.161  0.00  0.00    +0.251 A 
ATOM     16  N   UNL     1      -1.133   1.551  24.869  0.00  0.00    -0.190 NA
ENDROOT
BRANCH  12   8
ATOM      6  C   UNL     1      -2.321   3.905  25.566  0.00  0.00    +0.225 A 
ATOM      7  C   UNL     1      -2.079   3.118  25.622  0.00  0.00    +0.061 A 
ATOM      8  C   UNL     1      -1.311   2.908  25.406  0.00  0.00    +0.045 A 
ATOM      9  C   UNL     1      -0.786   3.483  25.135  0.00  0.00    +0.024 A 
ATOM     10  C   UNL     1      -1.028   4.269  25.079  0.00  0.00    +0.102 A 
ATOM     11  N   UNL     1      -1.796   4.481  25.295  0.00  0.00    -0.210 NA
BRANCH   6   5
ATOM      5  O   UNL     1      -3.089   4.117  25.782  0.00  0.00    -0.457 OA
BRANCH   5   4
ATOM      4  C   UNL     1      -3.735   3.775  25.399  0.00  0.00    +0.239 C 
BRANCH   4   3
ATOM      3  C   UNL     1      -4.486   3.821  25.737  0.00  0.00    +0.189 C 
BRANCH   3   2
ATOM      1  C   UNL     1      -5.700   3.074  25.633  0.00  0.00    +0.174 C 
ATOM      2  O   UNL     1      -5.148   3.590  25.303  0.00  0.00    -0.347 OA
ENDBRANCH   3   2
ENDBRANCH   4   3
ENDBRANCH   5   4
ENDBRANCH   6   5
ENDBRANCH  12   8
BRANCH  15  17
ATOM     17  C   UNL     1      -0.778   0.129  24.752  0.00  0.00    +0.138 C 
ATOM     18  C   UNL     1      -0.141  -0.128  24.294  0.00  0.00    +0.027 C 
ATOM     19  C   UNL     1      -0.331  -0.871  23.987  0.00  0.00    +0.019 C 
ATOM     20  C   UNL     1      -1.085  -1.072  24.256  0.00  0.00    +0.073 C 
ATOM     21  N   UNL     1      -1.361  -0.454  24.728  0.00  0.00    -0.263 NA
BRANCH  21  22
ATOM     22  C   UNL     1      -2.092  -0.425  25.109  0.00  0.00    +0.100 C 
BRANCH  22  23
ATOM     23  C   UNL     1      -2.706  -0.916  24.861  0.00  0.00    -0.004 A 
ATOM     24  C   UNL     1      -2.802  -1.662  25.201  0.00  0.00    +0.029 A 
ATOM     25  C   UNL     1      -3.416  -2.152  24.953  0.00  0.00    +0.167 A 
ATOM     26  F   UNL     1      -3.512  -2.898  25.293  0.00  0.00    -0.202 F 
ATOM     27  C   UNL     1      -3.936  -1.898  24.365  0.00  0.00    +0.167 A 
ATOM     28  F   UNL     1      -4.551  -2.389  24.117  0.00  0.00    -0.202 F 
ATOM     29  C   UNL     1      -3.841  -1.152  24.025  0.00  0.00    +0.032 A 
ATOM     30  C   UNL     1      -3.226  -0.661  24.273  0.00  0.00    -0.000 A 
ENDBRANCH  22  23
ENDBRANCH  21  22
ENDBRANCH  15  17
TORSDOF 8
ENDMDL
MODEL 3
REMARK VINA RESULT:     -10.8      2.435      4.554
REMARK  Name = 
REMARK  8 active torsions:
REMARK  status: ('A' for Active; 'I' for Inactive)
REMARK    1  A    between atoms: O_2  and  C_3
REMARK    2  A    between atoms: C_3  and  C_4
REMARK    3  A    between atoms: C_4  and  O_5
REMARK    4  A    between atoms: O_5  and  C_6
REMARK    5  A    between atoms: C_8  and  C_12
REMARK    6  A    between atoms: C_15  and  C_17
REMARK    7  A    between atoms: N_21  and  C_22
REMARK    8  A    between atoms: C_22  and  C_23
REMARK                            x       y       z     vdW  Elec       q    Type
REMARK                         _______ _______ _______ _____ _____    ______ ____
ROOT
ATOM     12  C   UNL     1      -0.316   1.665  24.949  0.00  0.00    +0.204 A 
ATOM     13  N   UNL     1       0.023   1.889  25.667  0.00  0.00    -0.056 NA
ATOM     14  O   UNL     1      -0.240   2.650  25.847  0.00  0.00    -0.336 OA
ATOM     15  C   UNL     1      -0.742   2.896  25.241  0.00  0.00    +0.251 A 
ATOM     16  N   UNL     1      -0.789   2.287  24.685  0.00  0.00    -0.190 NA
ENDROOT
BRANCH  12   8
ATOM      6  C   UNL     1      -0.453  -0.458  24.461  0.00  0.00    +0.225 A 
ATOM      7  C   UNL     1      -0.567   0.262  24.847  0.00  0.00    +0.061 A 
ATOM      8  C   UNL     1      -0.202   0.945  24.562  0.00  0.00    +0.045 A 
ATOM      9  C   UNL     1       0.276   0.909  23.892  0.00  0.00    +0.024 A 
ATOM     10  C   UNL     1       0.390   0.189  23.505  0.00  0.00    +0.102 A 
ATOM     11  N   UNL     1       0.025  -0.495  23.789  0.00  0.00    -0.210 NA
BRANCH   6   5
ATOM      5  O   UNL     1      -0.818  -1.141  24.745  0.00  0.00    -0.457 OA
BRANCH   5   4
ATOM      4  C   UNL     1      -1.532  -1.394  24.420  0.00  0.00    +0.239 C 
BRANCH   4   3
ATOM      3  C   UNL     1      -1.921  -2.049  24.737  0.00  0.00    +0.189 C 
BRANCH   3   2
ATOM      1  C   UNL     1      -3.248  -2.579  24.729  0.00  0.00    +0.174 C 
ATOM      2  O   UNL     1      -2.551  -2.392  24.330  0.00  0.00    -0.347 OA
ENDBRANCH   3   2
ENDBRANCH   4   3
ENDBRANCH   5   4
ENDBRANCH   6   5
ENDBRANCH  12   8
BRANCH  15  17
ATOM     17  C   UNL     1      -1.129   3.623  25.196  0.00  0.00    +0.138 C 
ATOM     18  C   UNL     1      -0.788   4.342  24.977  0.00  0.00    +0.027 C 
ATOM     19  C   UNL     1      -1.374   4.923  25.009  0.00  0.00    +0.019 C 
ATOM     20  C   UNL     1      -2.076   4.563  25.248  0.00  0.00    +0.073 C 
ATOM     21  N   UNL     1      -1.925   3.760  25.364  0.00  0.00    -0.263 NA
BRANCH  21  22
ATOM     22  C   UNL     1      -2.474   3.194  25.605  0.00  0.00    +0.100 C 
BRANCH  22  23
ATOM     23  C   UNL     1      -3.281   3.342  25.527  0.00  0.00    -0.004 A 
ATOM     24  C   UNL     1      -3.689   3.070  24.863  0.00  0.00    +0.029 A 
ATOM     25  C   UNL     1      -4.496   3.218  24.784  0.00  0.00    +0.167 A 
ATOM     26  F   UNL     1      -4.903   2.946  24.120  0.00  0.00    -0.202 F 
ATOM     27  C   UNL     1      -4.897   3.638  25.370  0.00  0.00    +0.167 A 
ATOM     28  F   UNL     1      -5.705   3.787  25.292  0.00  0.00    -0.202 F 
ATOM     29  C   UNL     1      -4.491   3.911  26.034  0.00  0.00    +0.032 A 
ATOM     30  C   UNL     1      -3.683   3.762  26.113  0.00  0.00    -0.000 A 
ENDBRANCH  22  23
ENDBRANCH  21  22
ENDBRANCH  15  17
TORSDOF 8
ENDMDL
MODEL 4
REMARK VINA RESULT:     -10.6      2.654      4.667
REMARK  Name = 
REMARK  8 active torsions:
REMARK  status: ('A' for Active; 'I' for Inactive)
REMARK    1  A    between atoms: O_2  and  C_3
REMARK    2  A    between atoms: C_3  and  C_4
REMARK    3  A    between atoms: C_4  and  O_5
REMARK    4  A    between atoms: O_5  and  C_6
REMARK    5  A    between atoms: C_8  and  C_12
REMARK    6  A    between atoms: C_15  and  C_17
REMARK    7  A    between atoms: N_21  and  C_22
REMARK    8  A    between atoms: C_22  and  C_23
REMARK                            x       y       z     vdW  Elec       q    Type
REMARK                         _______ _______ _______ _____ _____    ______ ____
ROOT
ATOM     12  C   UNL     1      -4.023   0.309  24.758  0.00  0.00    +0.204 A 
ATOM     13  N   UNL     1      -4.499   0.587  25.372  0.00  0.00    -0.056 NA
ATOM     14  O   UNL     1      -4.591   1.401  25.275  0.00  0.00    -0.336 OA
ATOM     15  C   UNL     1      -4.171   1.626  24.601  0.00  0.00    +0.251 A 
ATOM     16  N   UNL     1      -3.820   0.951  24.282  0.00  0.00    -0.190 NA
ENDROOT
BRANCH  12   8
ATOM      6  C   UNL     1      -2.815  -1.509  24.776  0.00  0.00    +0.225 A 
ATOM      7  C   UNL     1      -3.047  -0.726  24.893  0.00  0.00    +0.061 A 
ATOM      8  C   UNL     1      -3.791  -0.474  24.640  0.00  0.00    +0.045 A 
ATOM      9  C   UNL     1      -4.303  -1.005  24.271  0.00  0.00    +0.024 A 
ATOM     10  C   UNL     1      -4.070  -1.788  24.154  0.00  0.00    +0.102 A 
ATOM     11  N   UNL     1      -3.327  -2.040  24.406  0.00  0.00    -0.210 NA
BRANCH   6   5
ATOM      5  O   UNL     1      -2.071  -1.761  25.029  0.00  0.00    -0.457 OA
BRANCH   5   4
ATOM      4  C   UNL     1      -1.410  -1.639  24.551  0.00  0.00    +0.239 C 
BRANCH   4   3
ATOM      3  C   UNL     1      -0.678  -1.473  24.895  0.00  0.00    +0.189 C 
BRANCH   3   2
ATOM      1  C   UNL     1       0.224  -0.660  24.141  0.00  0.00    +0.174 C 
ATOM      2  O   UNL     1      -0.007  -1.401  24.421  0.00  0.00    -0.347 OA
ENDBRANCH   3   2
ENDBRANCH   4   3
ENDBRANCH   5   4
ENDBRANCH   6   5
ENDBRANCH  12   8
BRANCH  15  17
ATOM     17  C   UNL     1      -4.112   2.392  24.300  0.00  0.00    +0.138 C 
ATOM     18  C   UNL     1      -4.609   2.730  23.734  0.00  0.00    +0.027 C 
ATOM     19  C   UNL     1      -4.350   3.501  23.596  0.00  0.00    +0.019 C 
ATOM     20  C   UNL     1      -3.693   3.639  24.075  0.00  0.00    +0.073 C 
ATOM     21  N   UNL     1      -3.546   2.954  24.510  0.00  0.00    -0.263 NA
BRANCH  21  22
ATOM     22  C   UNL     1      -2.939   2.849  25.059  0.00  0.00    +0.100 C 
BRANCH  22  23
ATOM     23  C   UNL     1      -2.294   3.363  25.064  0.00  0.00    -0.004 A 
ATOM     24  C   UNL     1      -2.368   4.114  25.397  0.00  0.00    +0.029 A 
ATOM     25  C   UNL     1      -1.723   4.628  25.402  0.00  0.00    +0.167 A 
ATOM     26  F   UNL     1      -1.796   5.379  25.736  0.00  0.00    -0.202 F 
ATOM     27  C   UNL     1      -1.004   4.391  25.074  0.00  0.00    +0.167 A 
ATOM     28  F   UNL     1      -0.358   4.905  25.079  0.00  0.00    -0.202 F 
ATOM     29  C   UNL     1      -0.930   3.640  24.741  0.00  0.00    +0.032 A 
ATOM     30  C   UNL     1      -1.576   3.126  24.736  0.00  0.00    -0.000 A 
ENDBRANCH  22  23
ENDBRANCH  21  22
ENDBRANCH  15  17
TORSDOF 8
ENDMDL
MODEL 5
REMARK VINA RESULT:     -10.3      1.927      3.382
REMARK  Name = 
REMARK  8 active torsions:
REMARK  status: ('A' for Active; 'I' for Inactive)
REMARK    1  A    between atoms: O_2  and  C_3
REMARK    2  A    between atoms: C_3  and  C_4
REMARK    3  A    between atoms: C_4  and  O_5
REMARK    4  A    between atoms: O_5  and  C_6
REMARK    5  A    between atoms: C_8  and  C_12
REMARK    6  A    between atoms: C_15  and  C_17
REMARK    7  A    between atoms: N_21  and  C_22
REMARK    8  A    between atoms: C_22  and  C_23
REMARK                            x       y       z     vdW  Elec       q    Type
REMARK                         _______ _______ _______ _____ _____    ______ ____
ROOT
ATOM     12  C   UNL     1      -4.675   1.320  25.216  0.00  0.00    +0.204 A 
ATOM     13  N   UNL     1      -5.008   0.842  25.801  0.00  0.00    -0.056 NA
ATOM     14  O   UNL     1      -4.811   0.059  25.633  0.00  0.00    -0.336 OA
ATOM     15  C   UNL     1      -4.357   0.053  24.944  0.00  0.00    +0.251 A 
ATOM     16  N   UNL     1      -4.273   0.832  24.687  0.00  0.00    -0.190 NA
ENDROOT
BRANCH  12   8
ATOM      6  C   UNL     1      -4.152   3.408  24.857  0.00  0.00    +0.225 A 
ATOM      7  C   UNL     1      -4.093   2.587  24.903  0.00  0.00    +0.061 A 
ATOM      8  C   UNL     1      -4.735   2.142  25.170  0.00  0.00    +0.045 A 
ATOM      9  C   UNL     1      -5.435   2.517  25.389  0.00  0.00    +0.024 A 
ATOM     10  C   UNL     1      -5.494   3.339  25.343  0.00  0.00    +0.102 A 
ATOM     11  N   UNL     1      -4.853   3.785  25.077  0.00  0.00    -0.210 NA
BRANCH   6   5
ATOM      5  O   UNL     1      -3.511   3.854  24.591  0.00  0.00    -0.457 OA
BRANCH   5   4
ATOM      4  C   UNL     1      -2.908   4.063  25.113  0.00  0.00    +0.239 C 
BRANCH   4   3
ATOM      3  C   UNL     1      -2.203   4.379  24.823  0.00  0.00    +0.189 C 
BRANCH   3   2
ATOM      1  C   UNL     1      -0.971   5.067  25.048  0.00  0.00    +0.174 C 
ATOM      2  O   UNL     1      -1.675   4.750  25.337  0.00  0.00    -0.347 OA
ENDBRANCH   3   2
ENDBRANCH   4   3
ENDBRANCH   5   4
ENDBRANCH   6   5
ENDBRANCH  12   8
BRANCH  15  17
ATOM     17  C   UNL     1      -4.042  -0.615  24.577  0.00  0.00    +0.138 C 
ATOM     18  C   UNL     1      -4.436  -1.107  24.044  0.00  0.00    +0.027 C 
ATOM     19  C   UNL     1      -3.915  -1.705  23.816  0.00  0.00    +0.019 C 
ATOM     20  C   UNL     1      -3.199  -1.583  24.207  0.00  0.00    +0.073 C 
ATOM     21  N   UNL     1      -3.277  -0.909  24.677  0.00  0.00    -0.263 NA
BRANCH  21  22
ATOM     22  C   UNL     1      -2.694  -0.586  25.163  0.00  0.00    +0.100 C 
BRANCH  22  23
ATOM     23  C   UNL     1      -1.898  -0.724  24.997  0.00  0.00    -0.004 A 
ATOM     24  C   UNL     1      -1.496  -1.336  25.379  0.00  0.00    +0.029 A 
ATOM     25  C   UNL     1      -0.700  -1.473  25.214  0.00  0.00    +0.167 A 
ATOM     26  F   UNL     1      -0.299  -2.086  25.595  0.00  0.00    -0.202 F 
ATOM     27  C   UNL     1      -0.304  -0.999  24.668  0.00  0.00    +0.167 A 
ATOM     28  F   UNL     1       0.493  -1.136  24.502  0.00  0.00    -0.202 F 
ATOM     29  C   UNL     1      -0.705  -0.387  24.286  0.00  0.00    +0.032 A 
ATOM     30  C   UNL     1      -1.502  -0.249  24.451  0.00  0.00    -0.000 A 
ENDBRANCH  22  23
ENDBRANCH  21  22
ENDBRANCH  15  17
TORSDOF 8
ENDMDL
