MODEL 1
REMARK VINA RESULT:      -9.7      0.000      0.000
REMARK  Name = 
REMARK  9 active torsions:
REMARK  status: ('A' for Active; 'I' for Inactive)
REMARK    1  A    between atoms: C_2  and  C_4
REMARK    2  A    between atoms: C_6  and  C_7
REMARK    3  A    between atoms: C_7  and  C_8
REMARK    4  A    between atoms: C_21  and  C_22
REMARK    5  A    between atoms: C_22  and  N_23
REMARK    6  A    between atoms: C_24  and  C_26
REMARK    7  A    between atoms: C_26  and  C_27
REMARK    8  A    between atoms: C_27  and  C_28
REMARK    9  A    between atoms: C_28  and  C_29
REMARK                            x       y       z     vdW  Elec       q    Type
REMARK                         _______ _______ _______ _____ _____    ______ ____
ROOT
ATOM      4  C   UNL     1      -1.428   1.534  24.520  0.00  0.00    +0.006 C 
ATOM      5  C   UNL     1      -2.068   2.048  24.443  0.00  0.00    +0.005 C 
ATOM      6  C   UNL     1      -2.398   2.186  23.699  0.00  0.00    +0.026 C 
ATOM     18  C   UNL     1      -2.088   1.812  23.033  0.00  0.00    -0.048 C 
ATOM     19  C   UNL     1      -2.418   1.951  22.290  0.00  0.00    +0.026 C 
ATOM     20  C   UNL     1      -1.447   1.298  23.111  0.00  0.00    -0.033 C 
ATOM     21  C   UNL     1      -1.117   1.160  23.855  0.00  0.00    +0.043 C 
ENDROOT
BRANCH   4   2
ATOM      1  C   UNL     1      -0.563   1.935  25.585  0.00  0.00    +0.000 C 
ATOM      2  C   UNL     1      -1.098   1.395  25.263  0.00  0.00    +0.000 C 
ATOM      3  C   UNL     1      -1.303   0.717  25.686  0.00  0.00    +0.000 C 
ENDBRANCH   4   2
BRANCH   6   7
ATOM      7  C   UNL     1      -3.040   2.700  23.621  0.00  0.00    +0.070 C 
BRANCH   7   8
ATOM      8  C   UNL     1      -3.680   2.643  24.139  0.00  0.00    +0.139 A 
ATOM      9  N   UNL     1      -3.881   3.189  24.724  0.00  0.00    -0.229 NA
ATOM     10  C   UNL     1      -4.557   2.912  25.109  0.00  0.00    +0.100 A 
ATOM     11  C   UNL     1      -4.773   2.196  24.761  0.00  0.00    +0.101 A 
ATOM     12  N   UNL     1      -4.231   2.030  24.162  0.00  0.00    -0.229 NA
ATOM     13  C   UNL     1      -5.436   1.787  25.035  0.00  0.00    +0.032 A 
ATOM     14  C   UNL     1      -5.881   2.096  25.656  0.00  0.00    +0.059 A 
ATOM     15 CL   UNL     1      -6.544   1.687  25.931  0.00  0.00    -0.082 Cl
ATOM     16  C   UNL     1      -5.665   2.812  26.004  0.00  0.00    +0.013 A 
ATOM     17  C   UNL     1      -5.003   3.220  25.730  0.00  0.00    +0.022 A 
ENDBRANCH   7   8
ENDBRANCH   6   7
BRANCH  21  22
ATOM     22  C   UNL     1      -0.476   0.646  23.931  0.00  0.00    +0.119 C 
BRANCH  22  23
ATOM     23  N   UNL     1       0.134   0.660  23.377  0.00  0.00    -0.205 NA
ATOM     24  C   UNL     1       0.627   0.005  23.287  0.00  0.00    +0.241 C 
ATOM     25  O   UNL     1       0.509  -0.666  23.753  0.00  0.00    -0.273 OA
BRANCH  24  26
ATOM     26  C   UNL     1       1.236   0.019  22.733  0.00  0.00    +0.087 C 
BRANCH  26  27
ATOM     27  C   UNL     1       2.018   0.111  22.980  0.00  0.00    +0.021 C 
BRANCH  27  28
ATOM     28  C   UNL     1       2.621   0.188  22.424  0.00  0.00    +0.115 C 
BRANCH  28  29
ATOM     29  C   UNL     1       3.381   0.404  22.664  0.00  0.00    +0.365 C 
ATOM     30  O   UNL     1       3.585   1.201  22.722  0.00  0.00    -0.246 OA
ATOM     31  O   UNL     1       3.936  -0.178  22.847  0.00  0.00    -0.246 OA
ENDBRANCH  28  29
ENDBRANCH  27  28
ENDBRANCH  26  27
ENDBRANCH  24  26
ENDBRANCH  22  23
ENDBRANCH  21  22
TORSDOF 9
ENDMDL
MODEL 2
REMARK VINA RESULT:      -9.0      3.254      4.918
REMARK  Name = 
REMARK  9 active torsions:
REMARK  status: ('A' for Active; 'I' for Inactive)
REMARK    1  A    between atoms: C_2  and  C_4
REMARK    2  A    between atoms: C_6  and  C_7
REMARK    3  A    between atoms: C_7  and  C_8
REMARK    4  A    between atoms: C_21  and  C_22
REMARK    5  A    between atoms: C_22  and  N_23
REMARK    6  A    between atoms: C_24  and  C_26
REMARK    7  A    between atoms: C_26  and  C_27
REMARK    8  A    between atoms: C_27  and  C_28
REMARK    9  A    between atoms: C_28  and  C_29
REMARK                            x       y       z     vdW  Elec       q    Type
REMARK                         _______ _______ _______ _____ _____    ______ ____
ROOT
ATOM      4  C   UNL     1      -4.482   1.704  24.690  0.00  0.00    +0.006 C 
ATOM      5  C   UNL     1      -4.370   1.035  24.221  0.00  0.00    +0.005 C 
ATOM      6  C   UNL     1      -3.677   0.950  23.782  0.00  0.00    +0.026 C 
ATOM     18  C   UNL     1      -3.095   1.534  23.813  0.00  0.00    -0.048 C 
ATOM     19  C   UNL     1      -2.401   1.449  23.374  0.00  0.00    +0.026 C 
ATOM     20  C   UNL     1      -3.207   2.202  24.282  0.00  0.00    -0.033 C 
ATOM     21  C   UNL     1      -3.901   2.287  24.721  0.00  0.00    +0.043 C 
ENDROOT
BRANCH   4   2
ATOM      1  C   UNL     1      -5.818   2.197  24.810  0.00  0.00    +0.000 C 
ATOM      2  C   UNL     1      -5.176   1.789  25.128  0.00  0.00    +0.000 C 
ATOM      3  C   UNL     1      -5.228   1.466  25.885  0.00  0.00    +0.000 C 
ENDBRANCH   4   2
BRANCH   6   7
ATOM      7  C   UNL     1      -3.565   0.280  23.313  0.00  0.00    +0.070 C 
BRANCH   7   8
ATOM      8  C   UNL     1      -3.583  -0.471  23.654  0.00  0.00    +0.139 A 
ATOM      9  N   UNL     1      -4.111  -1.077  23.464  0.00  0.00    -0.229 NA
ATOM     10  C   UNL     1      -3.931  -1.729  23.937  0.00  0.00    +0.100 A 
ATOM     11  C   UNL     1      -3.293  -1.526  24.419  0.00  0.00    +0.101 A 
ATOM     12  N   UNL     1      -3.078  -0.748  24.243  0.00  0.00    -0.229 NA
ATOM     13  C   UNL     1      -2.989  -2.074  24.955  0.00  0.00    +0.032 A 
ATOM     14  C   UNL     1      -3.325  -2.826  25.009  0.00  0.00    +0.059 A 
ATOM     15 CL   UNL     1      -3.021  -3.375  25.545  0.00  0.00    -0.082 Cl
ATOM     16  C   UNL     1      -3.963  -3.028  24.528  0.00  0.00    +0.013 A 
ATOM     17  C   UNL     1      -4.266  -2.480  23.992  0.00  0.00    +0.022 A 
ENDBRANCH   7   8
ENDBRANCH   6   7
BRANCH  21  22
ATOM     22  C   UNL     1      -4.012   2.957  25.190  0.00  0.00    +0.119 C 
BRANCH  22  23
ATOM     23  N   UNL     1      -3.520   3.612  25.098  0.00  0.00    -0.205 NA
ATOM     24  C   UNL     1      -3.330   4.081  25.750  0.00  0.00    +0.241 C 
ATOM     25  O   UNL     1      -3.633   3.893  26.495  0.00  0.00    -0.273 OA
BRANCH  24  26
ATOM     26  C   UNL     1      -2.838   4.736  25.659  0.00  0.00    +0.087 C 
BRANCH  26  27
ATOM     27  C   UNL     1      -2.023   4.632  25.579  0.00  0.00    +0.021 C 
BRANCH  27  28
ATOM     28  C   UNL     1      -1.562   5.231  25.250  0.00  0.00    +0.115 C 
BRANCH  28  29
ATOM     29  C   UNL     1      -0.808   5.060  24.960  0.00  0.00    +0.365 C 
ATOM     30  O   UNL     1      -0.426   4.365  25.186  0.00  0.00    -0.246 OA
ATOM     31  O   UNL     1      -0.436   5.585  24.443  0.00  0.00    -0.246 OA
ENDBRANCH  28  29
ENDBRANCH  27  28
ENDBRANCH  26  27
ENDBRANCH  24  26
ENDBRANCH  22  23
ENDBRANCH  21  22
TORSDOF 9
ENDMDL
MODEL 3
REMARK VINA RESULT:      -8.9      1.248      1.579
REMARK  Name = 
REMARK  9 active torsions:
REMARK  status: ('A' for Active; 'I' for Inactive)
REMARK    1  A    between atoms: C_2  and  C_4
REMARK    2  A    between atoms: C_6  and  C_7
REMARK    3  A    between atoms: C_7  and  C_8
REMARK    4  A    between atoms: C_21  and  C_22
REMARK    5  A    between atoms: C_22  and  N_23
REMARK    6  A    between atoms: C_24  and  C_26
REMARK    7  A    between atoms: C_26  and  C_27
REMARK    8  A    between atoms: C_27  and  C_28
REMARK    9  A    between atoms: C_28  and  C_29
REMARK                            x       y       z     vdW  Elec       q    Type
REMARK                         _______ _______ _______ _____ _____    ______ ____
ROOT
ATOM      4  C   UNL     1      -1.125   1.111  24.859  0.00  0.00    +0.006 C 
ATOM      5  C   UNL     1      -1.493   1.766  25.199  0.00  0.00    +0.005 C 
ATOM      6  C   UNL     1      -1.201   2.524  25.056  0.00  0.00    +0.026 C 
ATOM     18  C   UNL     1      -0.540   2.627  24.573  0.00  0.00    -0.048 C 
ATOM     19  C   UNL     1      -0.248   3.385  24.430  0.00  0.00    +0.026 C 
ATOM     20  C   UNL     1      -0.173   1.972  24.233  0.00  0.00    -0.033 C 
ATOM     21  C   UNL     1      -0.465   1.214  24.376  0.00  0.00    +0.043 C 
ENDROOT
BRANCH   4   2
ATOM      1  C   UNL     1      -1.972   0.021  24.489  0.00  0.00    +0.000 C 
ATOM      2  C   UNL     1      -1.418   0.353  25.002  0.00  0.00    +0.000 C 
ATOM      3  C   UNL     1      -1.157  -0.074  25.658  0.00  0.00    +0.000 C 
ENDBRANCH   4   2
BRANCH   6   7
ATOM      7  C   UNL     1      -1.569   3.179  25.397  0.00  0.00    +0.070 C 
BRANCH   7   8
ATOM      8  C   UNL     1      -2.383   3.286  25.312  0.00  0.00    +0.139 A 
ATOM      9  N   UNL     1      -2.771   3.525  24.623  0.00  0.00    -0.229 NA
ATOM     10  C   UNL     1      -3.579   3.560  24.786  0.00  0.00    +0.100 A 
ATOM     11  C   UNL     1      -3.690   3.343  25.574  0.00  0.00    +0.101 A 
ATOM     12  N   UNL     1      -2.951   3.174  25.899  0.00  0.00    -0.229 NA
ATOM     13  C   UNL     1      -4.450   3.327  25.895  0.00  0.00    +0.032 A 
ATOM     14  C   UNL     1      -5.099   3.528  25.427  0.00  0.00    +0.059 A 
ATOM     15 CL   UNL     1      -5.859   3.512  25.747  0.00  0.00    -0.082 Cl
ATOM     16  C   UNL     1      -4.988   3.745  24.638  0.00  0.00    +0.013 A 
ATOM     17  C   UNL     1      -4.228   3.760  24.318  0.00  0.00    +0.022 A 
ENDBRANCH   7   8
ENDBRANCH   6   7
BRANCH  21  22
ATOM     22  C   UNL     1      -0.097   0.559  24.035  0.00  0.00    +0.119 C 
BRANCH  22  23
ATOM     23  N   UNL     1       0.514   0.665  23.492  0.00  0.00    -0.205 NA
ATOM     24  C   UNL     1       0.932   0.013  23.206  0.00  0.00    +0.241 C 
ATOM     25  O   UNL     1       0.738  -0.746  23.465  0.00  0.00    -0.273 OA
BRANCH  24  26
ATOM     26  C   UNL     1       1.543   0.119  22.663  0.00  0.00    +0.087 C 
BRANCH  26  27
ATOM     27  C   UNL     1       2.328   0.108  22.917  0.00  0.00    +0.021 C 
BRANCH  27  28
ATOM     28  C   UNL     1       2.934   0.304  22.393  0.00  0.00    +0.115 C 
BRANCH  28  29
ATOM     29  C   UNL     1       3.685   0.488  22.681  0.00  0.00    +0.365 C 
ATOM     30  O   UNL     1       4.196  -0.114  22.916  0.00  0.00    -0.246 OA
ATOM     31  O   UNL     1       3.924   1.276  22.733  0.00  0.00    -0.246 OA
ENDBRANCH  28  29
ENDBRANCH  27  28
ENDBRANCH  26  27
ENDBRANCH  24  26
ENDBRANCH  22  23
ENDBRANCH  21  22
TORSDOF 9
ENDMDL
MODEL 4
REMARK VINA RESULT:      -8.7      2.828      4.328
REMARK  Name = 
REMARK  9 active torsions:
REMARK  status: ('A' for Active; 'I' for Inactive)
REMARK    1  A    between atoms: C_2  and  C_4
REMARK    2  A    between atoms: C_6  and  C_7
REMARK    3  A    between atoms: C_7  and  C_8
REMARK    4  A    between atoms: C_21  and  C_22
REMARK    5  A    between atoms: C_22  and  N_23
REMARK    6  A    between atoms: C_24  and  C_26
REMARK    7  A    between atoms: C_26  and  C_27
REMARK    8  A    between atoms: C_27  and  C_28
REMARK    9  A    between atoms: C_28  and  C_29
REMARK                            x       y       z     vdW  Elec       q    Type
REMARK                         _______ _______ _______ _____ _____    ______ ____
ROOT
ATOM      4  C   UNL     1      -3.332   1.912  23.735  0.00  0.00    +0.006 C 
ATOM      5  C   UNL     1      -3.842   1.268  23.807  0.00  0.00    +0.005 C 
ATOM      6  C   UNL     1      -4.350   1.214  24.455  0.00  0.00    +0.026 C 
ATOM     18  C   UNL     1      -4.347   1.803  25.032  0.00  0.00    -0.048 C 
ATOM     19  C   UNL     1      -4.854   1.749  25.680  0.00  0.00    +0.026 C 
ATOM     20  C   UNL     1      -3.836   2.447  24.960  0.00  0.00    -0.033 C 
ATOM     21  C   UNL     1      -3.328   2.501  24.312  0.00  0.00    +0.043 C 
ENDROOT
BRANCH   4   2
ATOM      1  C   UNL     1      -2.110   1.554  23.087  0.00  0.00    +0.000 C 
ATOM      2  C   UNL     1      -2.825   1.966  23.087  0.00  0.00    +0.000 C 
ATOM      3  C   UNL     1      -3.032   2.431  22.438  0.00  0.00    +0.000 C 
ENDBRANCH   4   2
BRANCH   6   7
ATOM      7  C   UNL     1      -4.861   0.570  24.527  0.00  0.00    +0.070 C 
BRANCH   7   8
ATOM      8  C   UNL     1      -4.560  -0.198  24.523  0.00  0.00    +0.139 A 
ATOM      9  N   UNL     1      -4.633  -0.746  23.910  0.00  0.00    -0.229 NA
ATOM     10  C   UNL     1      -4.251  -1.440  24.140  0.00  0.00    +0.100 A 
ATOM     11  C   UNL     1      -3.941  -1.322  24.896  0.00  0.00    +0.101 A 
ATOM     12  N   UNL     1      -4.132  -0.554  25.132  0.00  0.00    -0.229 NA
ATOM     13  C   UNL     1      -3.525  -1.927  25.271  0.00  0.00    +0.032 A 
ATOM     14  C   UNL     1      -3.420  -2.651  24.890  0.00  0.00    +0.059 A 
ATOM     15 CL   UNL     1      -3.004  -3.257  25.266  0.00  0.00    -0.082 Cl
ATOM     16  C   UNL     1      -3.730  -2.769  24.135  0.00  0.00    +0.013 A 
ATOM     17  C   UNL     1      -4.145  -2.164  23.760  0.00  0.00    +0.022 A 
ENDBRANCH   7   8
ENDBRANCH   6   7
BRANCH  21  22
ATOM     22  C   UNL     1      -2.818   3.145  24.241  0.00  0.00    +0.119 C 
BRANCH  22  23
ATOM     23  N   UNL     1      -2.192   3.236  24.769  0.00  0.00    -0.205 NA
ATOM     24  C   UNL     1      -1.883   3.987  24.920  0.00  0.00    +0.241 C 
ATOM     25  O   UNL     1      -2.202   4.647  24.541  0.00  0.00    -0.273 OA
BRANCH  24  26
ATOM     26  C   UNL     1      -1.257   4.078  25.449  0.00  0.00    +0.087 C 
BRANCH  26  27
ATOM     27  C   UNL     1      -0.642   3.528  25.459  0.00  0.00    +0.021 C 
BRANCH  27  28
ATOM     28  C   UNL     1      -0.193   3.424  26.142  0.00  0.00    +0.115 C 
BRANCH  28  29
ATOM     29  C   UNL     1       0.220   2.719  26.262  0.00  0.00    +0.365 C 
ATOM     30  O   UNL     1       0.199   2.349  26.998  0.00  0.00    -0.246 OA
ATOM     31  O   UNL     1       0.653   2.386  25.645  0.00  0.00    -0.246 OA
ENDBRANCH  28  29
ENDBRANCH  27  28
ENDBRANCH  26  27
ENDBRANCH  24  26
ENDBRANCH  22  23
ENDBRANCH  21  22
TORSDOF 9
ENDMDL
MODEL 5
REMARK VINA RESULT:      -8.3      0.952      1.079
REMARK  Name = 
REMARK  9 active torsions:
REMARK  status: ('A' for Active; 'I' for Inactive)
REMARK    1  A    between atoms: C_2  and  C_4
REMARK    2  A    between atoms: C_6  and  C_7
REMARK    3  A    between atoms: C_7  and  C_8
REMARK    4  A    between atoms: C_21  and  C_22
REMARK    5  A    between atoms: C_22  and  N_23
REMARK    6  A    between atoms: C_24  and  C_26
REMARK    7  A    between atoms: C_26  and  C_27
REMARK    8  A    between atoms: C_27  and  C_28
REMARK    9  A    between atoms: C_28  and  C_29
REMARK                            x       y       z     vdW  Elec       q    Type
REMARK                         _______ _______ _______ _____ _____    ______ ____
ROOT
ATOM      4  C   UNL     1      -2.258   0.341  24.240  0.00  0.00    +0.006 C 
ATOM      5  C   UNL     1      -2.957   0.752  24.094  0.00  0.00    +0.005 C 
ATOM      6  C   UNL     1      -2.957   1.395  23.577  0.00  0.00    +0.026 C 
ATOM     18  C   UNL     1      -2.258   1.626  23.206  0.00  0.00    -0.048 C 
ATOM     19  C   UNL     1      -2.258   2.269  22.689  0.00  0.00    +0.026 C 
ATOM     20  C   UNL     1      -1.559   1.214  23.352  0.00  0.00    -0.033 C 
ATOM     21  C   UNL     1      -1.559   0.571  23.869  0.00  0.00    +0.043 C 
ENDROOT
BRANCH   4   2
ATOM      1  C   UNL     1      -2.041  -0.198  25.546  0.00  0.00    +0.000 C 
ATOM      2  C   UNL     1      -2.258  -0.302  24.757  0.00  0.00    +0.000 C 
ATOM      3  C   UNL     1      -2.476  -1.050  24.486  0.00  0.00    +0.000 C 
ENDBRANCH   4   2
BRANCH   6   7
ATOM      7  C   UNL     1      -3.657   1.808  23.431  0.00  0.00    +0.070 C 
BRANCH   7   8
ATOM      8  C   UNL     1      -4.147   2.025  24.059  0.00  0.00    +0.139 A 
ATOM      9  N   UNL     1      -4.093   2.723  24.496  0.00  0.00    -0.229 NA
ATOM     10  C   UNL     1      -4.689   2.712  25.067  0.00  0.00    +0.100 A 
ATOM     11  C   UNL     1      -5.111   2.008  24.982  0.00  0.00    +0.101 A 
ATOM     12  N   UNL     1      -4.776   1.584  24.359  0.00  0.00    -0.229 NA
ATOM     13  C   UNL     1      -5.746   1.844  25.482  0.00  0.00    +0.032 A 
ATOM     14  C   UNL     1      -5.958   2.385  26.068  0.00  0.00    +0.059 A 
ATOM     15 CL   UNL     1      -6.594   2.221  26.569  0.00  0.00    -0.082 Cl
ATOM     16  C   UNL     1      -5.536   3.089  26.153  0.00  0.00    +0.013 A 
ATOM     17  C   UNL     1      -4.902   3.252  25.653  0.00  0.00    +0.022 A 
ENDBRANCH   7   8
ENDBRANCH   6   7
BRANCH  21  22
ATOM     22  C   UNL     1      -0.859   0.160  24.015  0.00  0.00    +0.119 C 
BRANCH  22  23
ATOM     23  N   UNL     1      -0.132   0.498  23.821  0.00  0.00    -0.205 NA
ATOM     24  C   UNL     1       0.528   0.019  23.700  0.00  0.00    +0.241 C 
ATOM     25  O   UNL     1       0.462  -0.800  23.774  0.00  0.00    -0.273 OA
BRANCH  24  26
ATOM     26  C   UNL     1       1.254   0.358  23.507  0.00  0.00    +0.087 C 
BRANCH  26  27
ATOM     27  C   UNL     1       1.672   0.091  22.847  0.00  0.00    +0.021 C 
BRANCH  27  28
ATOM     28  C   UNL     1       2.485   0.216  22.795  0.00  0.00    +0.115 C 
BRANCH  28  29
ATOM     29  C   UNL     1       2.859   0.209  22.059  0.00  0.00    +0.365 C 
ATOM     30  O   UNL     1       3.628   0.494  21.983  0.00  0.00    -0.246 OA
ATOM     31  O   UNL     1       2.461  -0.085  21.398  0.00  0.00    -0.246 OA
ENDBRANCH  28  29
ENDBRANCH  27  28
ENDBRANCH  26  27
ENDBRANCH  24  26
ENDBRANCH  22  23
ENDBRANCH  21  22
TORSDOF 9
ENDMDL
MODEL 6
REMARK VINA RESULT:      -8.1      1.385      2.173
REMARK  Name = 
REMARK  9 active torsions:
REMARK  status: ('A' for Active; 'I' for Inactive)
REMARK    1  A    between atoms: C_2  and  C_4
REMARK    2  A    between atoms: C_6  and  C_7
REMARK    3  A    between atoms: C_7  and  C_8
REMARK    4  A    between atoms: C_21  and  C_22
REMARK    5  A    between atoms: C_22  and  N_23
REMARK    6  A    between atoms: C_24  and  C_26
REMARK    7  A    between atoms: C_26  and  C_27
REMARK    8  A    between atoms: C_27  and  C_28
REMARK    9  A    between atoms: C_28  and  C_29
REMARK                            x       y       z     vdW  Elec       q    Type
REMARK                         _______ _______ _______ _____ _____    ______ ____
ROOT
ATOM      4  C   UNL     1      -1.557   2.602  24.408  0.00  0.00    +0.006 C 
ATOM      5  C   UNL     1      -2.295   2.956  24.309  0.00  0.00    +0.005 C 
ATOM      6  C   UNL     1      -2.779   2.732  23.680  0.00  0.00    +0.026 C 
ATOM     18  C   UNL     1      -2.526   2.154  23.149  0.00  0.00    -0.048 C 
ATOM     19  C   UNL     1      -3.010   1.930  22.520  0.00  0.00    +0.026 C 
ATOM     20  C   UNL     1      -1.788   1.799  23.249  0.00  0.00    -0.033 C 
ATOM     21  C   UNL     1      -1.303   2.023  23.878  0.00  0.00    +0.043 C 
ENDROOT
BRANCH   4   2
ATOM      1  C   UNL     1      -1.147   2.451  25.769  0.00  0.00    +0.000 C 
ATOM      2  C   UNL     1      -1.073   2.825  25.037  0.00  0.00    +0.000 C 
ATOM      3  C   UNL     1      -0.515   3.424  24.936  0.00  0.00    +0.000 C 
ENDBRANCH   4   2
BRANCH   6   7
ATOM      7  C   UNL     1      -3.518   3.087  23.580  0.00  0.00    +0.070 C 
BRANCH   7   8
ATOM      8  C   UNL     1      -4.106   2.983  24.150  0.00  0.00    +0.139 A 
ATOM      9  N   UNL     1      -4.390   3.562  24.665  0.00  0.00    -0.229 NA
ATOM     10  C   UNL     1      -4.973   3.218  25.138  0.00  0.00    +0.100 A 
ATOM     11  C   UNL     1      -5.049   2.427  24.915  0.00  0.00    +0.101 A 
ATOM     12  N   UNL     1      -4.513   2.282  24.304  0.00  0.00    -0.229 NA
ATOM     13  C   UNL     1      -5.595   1.941  25.296  0.00  0.00    +0.032 A 
ATOM     14  C   UNL     1      -6.066   2.246  25.900  0.00  0.00    +0.059 A 
ATOM     15 CL   UNL     1      -6.613   1.760  26.282  0.00  0.00    -0.082 Cl
ATOM     16  C   UNL     1      -5.990   3.037  26.123  0.00  0.00    +0.013 A 
ATOM     17  C   UNL     1      -5.444   3.522  25.742  0.00  0.00    +0.022 A 
ENDBRANCH   7   8
ENDBRANCH   6   7
BRANCH  21  22
ATOM     22  C   UNL     1      -0.565   1.668  23.977  0.00  0.00    +0.119 C 
BRANCH  22  23
ATOM     23  N   UNL     1      -0.501   0.846  23.994  0.00  0.00    -0.205 NA
ATOM     24  C   UNL     1       0.210   0.483  23.786  0.00  0.00    +0.241 C 
ATOM     25  O   UNL     1       0.857   0.942  23.560  0.00  0.00    -0.273 OA
BRANCH  24  26
ATOM     26  C   UNL     1       0.273  -0.339  23.803  0.00  0.00    +0.087 C 
BRANCH  26  27
ATOM     27  C   UNL     1      -0.072  -0.768  24.418  0.00  0.00    +0.021 C 
BRANCH  27  28
ATOM     28  C   UNL     1      -0.284  -1.556  24.303  0.00  0.00    +0.115 C 
BRANCH  28  29
ATOM     29  C   UNL     1      -0.698  -1.962  24.890  0.00  0.00    +0.365 C 
ATOM     30  O   UNL     1      -0.401  -1.993  25.659  0.00  0.00    -0.246 OA
ATOM     31  O   UNL     1      -1.409  -2.339  24.708  0.00  0.00    -0.246 OA
ENDBRANCH  28  29
ENDBRANCH  27  28
ENDBRANCH  26  27
ENDBRANCH  24  26
ENDBRANCH  22  23
ENDBRANCH  21  22
TORSDOF 9
ENDMDL
MODEL 7
REMARK VINA RESULT:      -7.9      3.095      4.279
REMARK  Name = 
REMARK  9 active torsions:
REMARK  status: ('A' for Active; 'I' for Inactive)
REMARK    1  A    between atoms: C_2  and  C_4
REMARK    2  A    between atoms: C_6  and  C_7
REMARK    3  A    between atoms: C_7  and  C_8
REMARK    4  A    between atoms: C_21  and  C_22
REMARK    5  A    between atoms: C_22  and  N_23
REMARK    6  A    between atoms: C_24  and  C_26
REMARK    7  A    between atoms: C_26  and  C_27
REMARK    8  A    between atoms: C_27  and  C_28
REMARK    9  A    between atoms: C_28  and  C_29
REMARK                            x       y       z     vdW  Elec       q    Type
REMARK                         _______ _______ _______ _____ _____    ______ ____
ROOT
ATOM      4  C   UNL     1      -3.664   1.258  23.925  0.00  0.00    +0.006 C 
ATOM      5  C   UNL     1      -3.716   2.027  24.216  0.00  0.00    +0.005 C 
ATOM      6  C   UNL     1      -4.282   2.213  24.787  0.00  0.00    +0.026 C 
ATOM     18  C   UNL     1      -4.795   1.631  25.066  0.00  0.00    -0.048 C 
ATOM     19  C   UNL     1      -5.360   1.818  25.637  0.00  0.00    +0.026 C 
ATOM     20  C   UNL     1      -4.742   0.862  24.774  0.00  0.00    -0.033 C 
ATOM     21  C   UNL     1      -4.176   0.675  24.203  0.00  0.00    +0.043 C 
ENDROOT
BRANCH   4   2
ATOM      1  C   UNL     1      -2.337   0.852  23.583  0.00  0.00    +0.000 C 
ATOM      2  C   UNL     1      -3.098   1.071  23.354  0.00  0.00    +0.000 C 
ATOM      3  C   UNL     1      -3.294   1.102  22.553  0.00  0.00    +0.000 C 
ENDBRANCH   4   2
BRANCH   6   7
ATOM      7  C   UNL     1      -4.335   2.984  25.080  0.00  0.00    +0.070 C 
BRANCH   7   8
ATOM      8  C   UNL     1      -3.653   3.441  25.163  0.00  0.00    +0.139 A 
ATOM      9  N   UNL     1      -3.087   3.365  25.759  0.00  0.00    -0.229 NA
ATOM     10  C   UNL     1      -2.502   3.932  25.628  0.00  0.00    +0.100 A 
ATOM     11  C   UNL     1      -2.706   4.359  24.952  0.00  0.00    +0.101 A 
ATOM     12  N   UNL     1      -3.418   4.055  24.665  0.00  0.00    -0.229 NA
ATOM     13  C   UNL     1      -2.219   4.968  24.686  0.00  0.00    +0.032 A 
ATOM     14  C   UNL     1      -1.526   5.151  25.096  0.00  0.00    +0.059 A 
ATOM     15 CL   UNL     1      -1.038   5.761  24.829  0.00  0.00    -0.082 Cl
ATOM     16  C   UNL     1      -1.322   4.724  25.772  0.00  0.00    +0.013 A 
ATOM     17  C   UNL     1      -1.810   4.115  26.038  0.00  0.00    +0.022 A 
ENDBRANCH   7   8
ENDBRANCH   6   7
BRANCH  21  22
ATOM     22  C   UNL     1      -4.124  -0.095  23.911  0.00  0.00    +0.119 C 
BRANCH  22  23
ATOM     23  N   UNL     1      -3.847  -0.702  24.395  0.00  0.00    -0.205 NA
ATOM     24  C   UNL     1      -4.020  -1.488  24.212  0.00  0.00    +0.241 C 
ATOM     25  O   UNL     1      -4.471  -1.666  23.545  0.00  0.00    -0.273 OA
BRANCH  24  26
ATOM     26  C   UNL     1      -3.742  -2.095  24.696  0.00  0.00    +0.087 C 
BRANCH  26  27
ATOM     27  C   UNL     1      -3.060  -2.510  24.488  0.00  0.00    +0.021 C 
BRANCH  27  28
ATOM     28  C   UNL     1      -2.454  -2.613  25.038  0.00  0.00    +0.115 C 
BRANCH  28  29
ATOM     29  C   UNL     1      -1.670  -2.657  24.787  0.00  0.00    +0.365 C 
ATOM     30  O   UNL     1      -1.484  -3.039  24.080  0.00  0.00    -0.246 OA
ATOM     31  O   UNL     1      -1.071  -2.320  25.243  0.00  0.00    -0.246 OA
ENDBRANCH  28  29
ENDBRANCH  27  28
ENDBRANCH  26  27
ENDBRANCH  24  26
ENDBRANCH  22  23
ENDBRANCH  21  22
TORSDOF 9
ENDMDL
MODEL 8
REMARK VINA RESULT:      -7.5      3.195      6.318
REMARK  Name = 
REMARK  9 active torsions:
REMARK  status: ('A' for Active; 'I' for Inactive)
REMARK    1  A    between atoms: C_2  and  C_4
REMARK    2  A    between atoms: C_6  and  C_7
REMARK    3  A    between atoms: C_7  and  C_8
REMARK    4  A    between atoms: C_21  and  C_22
REMARK    5  A    between atoms: C_22  and  N_23
REMARK    6  A    between atoms: C_24  and  C_26
REMARK    7  A    between atoms: C_26  and  C_27
REMARK    8  A    between atoms: C_27  and  C_28
REMARK    9  A    between atoms: C_28  and  C_29
REMARK                            x       y       z     vdW  Elec       q    Type
REMARK                         _______ _______ _______ _____ _____    ______ ____
ROOT
ATOM      4  C   UNL     1      -0.859   1.978  25.052  0.00  0.00    +0.006 C 
ATOM      5  C   UNL     1      -0.463   1.280  24.865  0.00  0.00    +0.005 C 
ATOM      6  C   UNL     1      -0.887   0.622  24.605  0.00  0.00    +0.026 C 
ATOM     18  C   UNL     1      -1.707   0.663  24.532  0.00  0.00    -0.048 C 
ATOM     19  C   UNL     1      -2.132   0.005  24.272  0.00  0.00    +0.026 C 
ATOM     20  C   UNL     1      -2.103   1.362  24.719  0.00  0.00    -0.033 C 
ATOM     21  C   UNL     1      -1.679   2.020  24.979  0.00  0.00    +0.043 C 
ENDROOT
BRANCH   4   2
ATOM      1  C   UNL     1      -0.224   3.230  24.779  0.00  0.00    +0.000 C 
ATOM      2  C   UNL     1      -0.435   2.636  25.312  0.00  0.00    +0.000 C 
ATOM      3  C   UNL     1      -0.220   2.702  26.106  0.00  0.00    +0.000 C 
ENDBRANCH   4   2
BRANCH   6   7
ATOM      7  C   UNL     1      -0.490  -0.077  24.418  0.00  0.00    +0.070 C 
BRANCH   7   8
ATOM      8  C   UNL     1       0.134  -0.066  23.879  0.00  0.00    +0.139 A 
ATOM      9  N   UNL     1       0.087  -0.255  23.077  0.00  0.00    -0.229 NA
ATOM     10  C   UNL     1       0.839  -0.170  22.749  0.00  0.00    +0.100 A 
ATOM     11  C   UNL     1       1.352   0.073  23.349  0.00  0.00    +0.101 A 
ATOM     12  N   UNL     1       0.916   0.137  24.046  0.00  0.00    -0.229 NA
ATOM     13  C   UNL     1       2.149   0.204  23.182  0.00  0.00    +0.032 A 
ATOM     14  C   UNL     1       2.433   0.093  22.416  0.00  0.00    +0.059 A 
ATOM     15 CL   UNL     1       3.231   0.224  22.249  0.00  0.00    -0.082 Cl
ATOM     16  C   UNL     1       1.921  -0.150  21.817  0.00  0.00    +0.013 A 
ATOM     17  C   UNL     1       1.124  -0.281  21.984  0.00  0.00    +0.022 A 
ENDBRANCH   7   8
ENDBRANCH   6   7
BRANCH  21  22
ATOM     22  C   UNL     1      -2.076   2.718  25.167  0.00  0.00    +0.119 C 
BRANCH  22  23
ATOM     23  N   UNL     1      -2.877   2.799  24.988  0.00  0.00    -0.205 NA
ATOM     24  C   UNL     1      -3.313   3.418  25.315  0.00  0.00    +0.241 C 
ATOM     25  O   UNL     1      -2.948   3.957  25.822  0.00  0.00    -0.273 OA
BRANCH  24  26
ATOM     26  C   UNL     1      -4.114   3.498  25.136  0.00  0.00    +0.087 C 
BRANCH  26  27
ATOM     27  C   UNL     1      -4.684   3.161  25.629  0.00  0.00    +0.021 C 
BRANCH  27  28
ATOM     28  C   UNL     1      -5.463   3.089  25.370  0.00  0.00    +0.115 C 
BRANCH  28  29
ATOM     29  C   UNL     1      -5.951   2.504  25.687  0.00  0.00    +0.365 C 
ATOM     30  O   UNL     1      -6.290   1.938  25.193  0.00  0.00    -0.246 OA
ATOM     31  O   UNL     1      -6.100   2.486  26.498  0.00  0.00    -0.246 OA
ENDBRANCH  28  29
ENDBRANCH  27  28
ENDBRANCH  26  27
ENDBRANCH  24  26
ENDBRANCH  22  23
ENDBRANCH  21  22
TORSDOF 9
ENDMDL
