MODEL 1
REMARK VINA RESULT:     -12.2      0.000      0.000
REMARK  Name = 
REMARK  6 active torsions:
REMARK  status: ('A' for Active; 'I' for Inactive)
REMARK    1  A    between atoms: O_2  and  C_3
REMARK    2  A    between atoms: C_9  and  C_10
REMARK    3  A    between atoms: C_10  and  C_11
REMARK    4  A    between atoms: C_16  and  C_17
REMARK    5  A    between atoms: C_17  and  C_18
REMARK    6  A    between atoms: C_21  and  C_23
REMARK                            x       y       z     vdW  Elec       q    Type
REMARK                         _______ _______ _______ _____ _____    ______ ____
ROOT
ATOM     11  C   UNL     1      -3.929   1.169  24.842  0.00  0.00    +0.026 C 
ATOM     12  C   UNL     1      -3.151   1.418  24.730  0.00  0.00    +0.094 C 
ATOM     13  N   UNL     1      -2.944   2.204  24.875  0.00  0.00    -0.276 N 
ATOM     14  C   UNL     1      -3.516   2.739  25.132  0.00  0.00    +0.094 C 
ATOM     15  C   UNL     1      -4.293   2.491  25.244  0.00  0.00    +0.022 C 
ATOM     16  C   UNL     1      -4.501   1.706  25.100  0.00  0.00    +0.015 C 
ATOM     21  C   UNL     1      -2.165   2.453  24.762  0.00  0.00    +0.249 C 
ATOM     22  O   UNL     1      -1.594   1.915  24.505  0.00  0.00    -0.270 OA
ENDROOT
BRANCH  21  23
ATOM     23  C   UNL     1      -1.959   3.237  24.907  0.00  0.00    +0.054 A 
ATOM     24  C   UNL     1      -1.678   3.459  25.651  0.00  0.00    +0.007 A 
ATOM     25  C   UNL     1      -1.471   4.245  25.796  0.00  0.00    +0.030 A 
ATOM     26  C   UNL     1      -1.545   4.808  25.197  0.00  0.00    +0.140 A 
ATOM     27  F   UNL     1      -1.338   5.594  25.343  0.00  0.00    -0.204 F 
ATOM     28  C   UNL     1      -1.826   4.586  24.454  0.00  0.00    +0.030 A 
ATOM     29  C   UNL     1      -2.032   3.801  24.309  0.00  0.00    +0.007 A 
ENDBRANCH  21  23
BRANCH  11  10
ATOM     10  C   UNL     1      -4.136   0.384  24.697  0.00  0.00    +0.047 C 
BRANCH  10   9
ATOM      3  C   UNL     1      -3.862  -2.542  24.230  0.00  0.00    +0.138 A 
ATOM      4  C   UNL     1      -3.440  -2.379  24.920  0.00  0.00    +0.033 A 
ATOM      5  C   UNL     1      -3.402  -1.607  25.210  0.00  0.00    -0.016 A 
ATOM      6  C   UNL     1      -3.788  -0.997  24.809  0.00  0.00    +0.009 A 
ATOM      7  C   UNL     1      -4.211  -1.160  24.119  0.00  0.00    +0.004 A 
ATOM      8  C   UNL     1      -4.248  -1.932  23.829  0.00  0.00    +0.037 A 
ATOM      9  C   UNL     1      -3.751  -0.226  25.098  0.00  0.00    +0.053 C 
ATOM     30  N   UNL     1      -3.328  -0.064  25.787  0.00  0.00    -0.274 NA
ATOM     31  C   UNL     1      -2.942  -0.674  26.188  0.00  0.00    +0.130 C 
ATOM     32  C   UNL     1      -2.980  -1.445  25.899  0.00  0.00    +0.053 C 
BRANCH   3   2
ATOM      1  C   UNL     1      -4.258  -3.464  23.214  0.00  0.00    +0.252 C 
ATOM      2  O   UNL     1      -3.900  -3.313  23.941  0.00  0.00    -0.471 OA
ENDBRANCH   3   2
ENDBRANCH  10   9
ENDBRANCH  11  10
BRANCH  16  17
ATOM     17  C   UNL     1      -5.279   1.457  25.212  0.00  0.00    +0.114 C 
BRANCH  17  18
ATOM     18  C   UNL     1      -5.869   2.009  25.375  0.00  0.00    +0.365 C 
ATOM     19  O   UNL     1      -6.327   2.317  24.762  0.00  0.00    -0.246 OA
ATOM     20  O   UNL     1      -6.001   2.254  26.152  0.00  0.00    -0.246 OA
ENDBRANCH  17  18
ENDBRANCH  16  17
TORSDOF 6
ENDMDL
MODEL 2
REMARK VINA RESULT:     -12.0      1.985      5.120
REMARK  Name = 
REMARK  6 active torsions:
REMARK  status: ('A' for Active; 'I' for Inactive)
REMARK    1  A    between atoms: O_2  and  C_3
REMARK    2  A    between atoms: C_9  and  C_10
REMARK    3  A    between atoms: C_10  and  C_11
REMARK    4  A    between atoms: C_16  and  C_17
REMARK    5  A    between atoms: C_17  and  C_18
REMARK    6  A    between atoms: C_21  and  C_23
REMARK                            x       y       z     vdW  Elec       q    Type
REMARK                         _______ _______ _______ _____ _____    ______ ____
ROOT
ATOM     11  C   UNL     1      -3.814   1.484  24.918  0.00  0.00    +0.026 C 
ATOM     12  C   UNL     1      -3.264   0.875  24.849  0.00  0.00    +0.094 C 
ATOM     13  N   UNL     1      -3.518   0.089  24.835  0.00  0.00    -0.276 N 
ATOM     14  C   UNL     1      -4.322  -0.085  24.889  0.00  0.00    +0.094 C 
ATOM     15  C   UNL     1      -4.872   0.524  24.958  0.00  0.00    +0.022 C 
ATOM     16  C   UNL     1      -4.619   1.309  24.972  0.00  0.00    +0.015 C 
ATOM     21  C   UNL     1      -2.967  -0.521  24.766  0.00  0.00    +0.249 C 
ATOM     22  O   UNL     1      -2.162  -0.346  24.712  0.00  0.00    -0.270 OA
ENDROOT
BRANCH  21  23
ATOM     23  C   UNL     1      -3.220  -1.305  24.751  0.00  0.00    +0.054 A 
ATOM     24  C   UNL     1      -3.177  -1.765  25.435  0.00  0.00    +0.007 A 
ATOM     25  C   UNL     1      -3.431  -2.551  25.421  0.00  0.00    +0.030 A 
ATOM     26  C   UNL     1      -3.727  -2.875  24.723  0.00  0.00    +0.140 A 
ATOM     27  F   UNL     1      -3.981  -3.661  24.709  0.00  0.00    -0.204 F 
ATOM     28  C   UNL     1      -3.771  -2.415  24.039  0.00  0.00    +0.030 A 
ATOM     29  C   UNL     1      -3.517  -1.631  24.054  0.00  0.00    +0.007 A 
ENDBRANCH  21  23
BRANCH  11  10
ATOM     10  C   UNL     1      -3.561   2.269  24.933  0.00  0.00    +0.047 C 
BRANCH  10   9
ATOM      3  C   UNL     1      -1.304   4.203  25.061  0.00  0.00    +0.138 A 
ATOM      4  C   UNL     1      -1.312   3.910  24.290  0.00  0.00    +0.033 A 
ATOM      5  C   UNL     1      -1.878   3.354  24.064  0.00  0.00    -0.016 A 
ATOM      6  C   UNL     1      -2.437   3.089  24.611  0.00  0.00    +0.009 A 
ATOM      7  C   UNL     1      -2.429   3.382  25.383  0.00  0.00    +0.004 A 
ATOM      8  C   UNL     1      -1.863   3.938  25.609  0.00  0.00    +0.037 A 
ATOM      9  C   UNL     1      -3.003   2.533  24.386  0.00  0.00    +0.053 C 
ATOM     30  N   UNL     1      -3.011   2.242  23.615  0.00  0.00    -0.274 NA
ATOM     31  C   UNL     1      -2.451   2.506  23.068  0.00  0.00    +0.130 C 
ATOM     32  C   UNL     1      -1.886   3.062  23.293  0.00  0.00    +0.053 C 
BRANCH   3   2
ATOM      1  C   UNL     1      -0.719   5.498  24.922  0.00  0.00    +0.252 C 
ATOM      2  O   UNL     1      -0.738   4.758  25.286  0.00  0.00    -0.471 OA
ENDBRANCH   3   2
ENDBRANCH  10   9
ENDBRANCH  11  10
BRANCH  16  17
ATOM     17  C   UNL     1      -5.170   1.920  25.041  0.00  0.00    +0.114 C 
BRANCH  17  18
ATOM     18  C   UNL     1      -5.937   1.756  25.296  0.00  0.00    +0.365 C 
ATOM     19  O   UNL     1      -6.107   1.726  26.103  0.00  0.00    -0.246 OA
ATOM     20  O   UNL     1      -6.536   1.621  24.744  0.00  0.00    -0.246 OA
ENDBRANCH  17  18
ENDBRANCH  16  17
TORSDOF 6
ENDMDL
MODEL 3
REMARK VINA RESULT:     -11.5      2.666      5.917
REMARK  Name = 
REMARK  6 active torsions:
REMARK  status: ('A' for Active; 'I' for Inactive)
REMARK    1  A    between atoms: O_2  and  C_3
REMARK    2  A    between atoms: C_9  and  C_10
REMARK    3  A    between atoms: C_10  and  C_11
REMARK    4  A    between atoms: C_16  and  C_17
REMARK    5  A    between atoms: C_17  and  C_18
REMARK    6  A    between atoms: C_21  and  C_23
REMARK                            x       y       z     vdW  Elec       q    Type
REMARK                         _______ _______ _______ _____ _____    ______ ____
ROOT
ATOM     11  C   UNL     1      -0.929   0.839  24.213  0.00  0.00    +0.026 C 
ATOM     12  C   UNL     1      -1.689   0.691  24.494  0.00  0.00    +0.094 C 
ATOM     13  N   UNL     1      -1.995  -0.076  24.475  0.00  0.00    -0.276 N 
ATOM     14  C   UNL     1      -1.538  -0.694  24.176  0.00  0.00    +0.094 C 
ATOM     15  C   UNL     1      -0.777  -0.546  23.895  0.00  0.00    +0.022 C 
ATOM     16  C   UNL     1      -0.472   0.220  23.913  0.00  0.00    +0.015 C 
ATOM     21  C   UNL     1      -2.756  -0.224  24.756  0.00  0.00    +0.249 C 
ATOM     22  O   UNL     1      -3.212   0.396  25.056  0.00  0.00    -0.270 OA
ENDROOT
BRANCH  21  23
ATOM     23  C   UNL     1      -3.061  -0.989  24.738  0.00  0.00    +0.054 A 
ATOM     24  C   UNL     1      -3.521  -1.235  24.099  0.00  0.00    +0.007 A 
ATOM     25  C   UNL     1      -3.826  -2.002  24.080  0.00  0.00    +0.030 A 
ATOM     26  C   UNL     1      -3.670  -2.522  24.701  0.00  0.00    +0.140 A 
ATOM     27  F   UNL     1      -3.975  -3.289  24.682  0.00  0.00    -0.204 F 
ATOM     28  C   UNL     1      -3.210  -2.277  25.340  0.00  0.00    +0.030 A 
ATOM     29  C   UNL     1      -2.905  -1.511  25.358  0.00  0.00    +0.007 A 
ENDBRANCH  21  23
BRANCH  11  10
ATOM     10  C   UNL     1      -0.623   1.605  24.231  0.00  0.00    +0.047 C 
BRANCH  10   9
ATOM      3  C   UNL     1      -0.970   4.448  25.035  0.00  0.00    +0.138 A 
ATOM      4  C   UNL     1      -0.772   4.038  25.723  0.00  0.00    +0.033 A 
ATOM      5  C   UNL     1      -0.635   3.224  25.695  0.00  0.00    -0.016 A 
ATOM      6  C   UNL     1      -0.697   2.821  24.977  0.00  0.00    +0.009 A 
ATOM      7  C   UNL     1      -0.895   3.231  24.289  0.00  0.00    +0.004 A 
ATOM      8  C   UNL     1      -1.032   4.045  24.317  0.00  0.00    +0.037 A 
ATOM      9  C   UNL     1      -0.561   2.008  24.948  0.00  0.00    +0.053 C 
ATOM     30  N   UNL     1      -0.364   1.598  25.636  0.00  0.00    -0.274 NA
ATOM     31  C   UNL     1      -0.302   2.002  26.353  0.00  0.00    +0.130 C 
ATOM     32  C   UNL     1      -0.438   2.815  26.382  0.00  0.00    +0.053 C 
BRANCH   3   2
ATOM      1  C   UNL     1      -1.877   5.549  25.093  0.00  0.00    +0.252 C 
ATOM      2  O   UNL     1      -1.105   5.261  25.064  0.00  0.00    -0.471 OA
ENDBRANCH   3   2
ENDBRANCH  10   9
ENDBRANCH  11  10
BRANCH  16  17
ATOM     17  C   UNL     1       0.290   0.368  23.632  0.00  0.00    +0.114 C 
BRANCH  17  18
ATOM     18  C   UNL     1       0.692  -0.213  23.207  0.00  0.00    +0.365 C 
ATOM     19  O   UNL     1       1.133  -0.786  23.604  0.00  0.00    -0.246 OA
ATOM     20  O   UNL     1       0.653  -0.221  22.382  0.00  0.00    -0.246 OA
ENDBRANCH  17  18
ENDBRANCH  16  17
TORSDOF 6
ENDMDL
MODEL 4
REMARK VINA RESULT:     -11.3      2.356      5.498
REMARK  Name = 
REMARK  6 active torsions:
REMARK  status: ('A' for Active; 'I' for Inactive)
REMARK    1  A    between atoms: O_2  and  C_3
REMARK    2  A    between atoms: C_9  and  C_10
REMARK    3  A    between atoms: C_10  and  C_11
REMARK    4  A    between atoms: C_16  and  C_17
REMARK    5  A    between atoms: C_17  and  C_18
REMARK    6  A    between atoms: C_21  and  C_23
REMARK                            x       y       z     vdW  Elec       q    Type
REMARK                         _______ _______ _______ _____ _____    ______ ____
ROOT
ATOM     11  C   UNL     1      -2.410   1.167  24.585  0.00  0.00    +0.026 C 
ATOM     12  C   UNL     1      -3.095   0.720  24.684  0.00  0.00    +0.094 C 
ATOM     13  N   UNL     1      -3.063  -0.103  24.624  0.00  0.00    -0.276 N 
ATOM     14  C   UNL     1      -2.346  -0.477  24.465  0.00  0.00    +0.094 C 
ATOM     15  C   UNL     1      -1.660  -0.030  24.366  0.00  0.00    +0.022 C 
ATOM     16  C   UNL     1      -1.691   0.792  24.426  0.00  0.00    +0.015 C 
ATOM     21  C   UNL     1      -3.749  -0.551  24.722  0.00  0.00    +0.249 C 
ATOM     22  O   UNL     1      -4.467  -0.175  24.882  0.00  0.00    -0.270 OA
ENDROOT
BRANCH  21  23
ATOM     23  C   UNL     1      -3.718  -1.372  24.662  0.00  0.00    +0.054 A 
ATOM     24  C   UNL     1      -3.947  -1.743  23.962  0.00  0.00    +0.007 A 
ATOM     25  C   UNL     1      -3.915  -2.566  23.901  0.00  0.00    +0.030 A 
ATOM     26  C   UNL     1      -3.654  -3.016  24.541  0.00  0.00    +0.140 A 
ATOM     27  F   UNL     1      -3.623  -3.839  24.481  0.00  0.00    -0.204 F 
ATOM     28  C   UNL     1      -3.425  -2.645  25.242  0.00  0.00    +0.030 A 
ATOM     29  C   UNL     1      -3.457  -1.824  25.302  0.00  0.00    +0.007 A 
ENDBRANCH  21  23
BRANCH  11  10
ATOM     10  C   UNL     1      -2.440   1.989  24.645  0.00  0.00    +0.047 C 
BRANCH  10   9
ATOM      3  C   UNL     1      -4.559   3.987  25.252  0.00  0.00    +0.138 A 
ATOM      4  C   UNL     1      -4.562   3.892  24.432  0.00  0.00    +0.033 A 
ATOM      5  C   UNL     1      -4.033   3.369  24.075  0.00  0.00    -0.016 A 
ATOM      6  C   UNL     1      -3.501   2.940  24.539  0.00  0.00    +0.009 A 
ATOM      7  C   UNL     1      -3.498   3.035  25.358  0.00  0.00    +0.004 A 
ATOM      8  C   UNL     1      -4.027   3.558  25.715  0.00  0.00    +0.037 A 
ATOM      9  C   UNL     1      -2.972   2.417  24.182  0.00  0.00    +0.053 C 
ATOM     30  N   UNL     1      -2.975   2.322  23.363  0.00  0.00    -0.274 NA
ATOM     31  C   UNL     1      -3.507   2.751  22.900  0.00  0.00    +0.130 C 
ATOM     32  C   UNL     1      -4.036   3.274  23.256  0.00  0.00    +0.053 C 
BRANCH   3   2
ATOM      1  C   UNL     1      -5.874   4.289  25.720  0.00  0.00    +0.252 C 
ATOM      2  O   UNL     1      -5.088   4.510  25.608  0.00  0.00    -0.471 OA
ENDBRANCH   3   2
ENDBRANCH  10   9
ENDBRANCH  11  10
BRANCH  16  17
ATOM     17  C   UNL     1      -1.005   1.239  24.327  0.00  0.00    +0.114 C 
BRANCH  17  18
ATOM     18  C   UNL     1      -0.269   0.868  24.319  0.00  0.00    +0.365 C 
ATOM     19  O   UNL     1       0.065   0.628  23.604  0.00  0.00    -0.246 OA
ATOM     20  O   UNL     1       0.135   0.737  25.027  0.00  0.00    -0.246 OA
ENDBRANCH  17  18
ENDBRANCH  16  17
TORSDOF 6
ENDMDL
MODEL 5
REMARK VINA RESULT:     -10.3      1.564      2.297
REMARK  Name = 
REMARK  6 active torsions:
REMARK  status: ('A' for Active; 'I' for Inactive)
REMARK    1  A    between atoms: O_2  and  C_3
REMARK    2  A    between atoms: C_9  and  C_10
REMARK    3  A    between atoms: C_10  and  C_11
REMARK    4  A    between atoms: C_16  and  C_17
REMARK    5  A    between atoms: C_17  and  C_18
REMARK    6  A    between atoms: C_21  and  C_23
REMARK                            x       y       z     vdW  Elec       q    Type
REMARK                         _______ _______ _______ _____ _____    ______ ____
ROOT
ATOM     11  C   UNL     1      -2.552   1.506  23.770  0.00  0.00    +0.026 C 
ATOM     12  C   UNL     1      -2.288   1.864  24.464  0.00  0.00    +0.094 C 
ATOM     13  N   UNL     1      -2.065   2.659  24.460  0.00  0.00    -0.276 N 
ATOM     14  C   UNL     1      -2.105   3.094  23.760  0.00  0.00    +0.094 C 
ATOM     15  C   UNL     1      -2.369   2.737  23.066  0.00  0.00    +0.022 C 
ATOM     16  C   UNL     1      -2.593   1.943  23.070  0.00  0.00    +0.015 C 
ATOM     21  C   UNL     1      -1.801   3.017  25.154  0.00  0.00    +0.249 C 
ATOM     22  O   UNL     1      -1.760   2.581  25.853  0.00  0.00    -0.270 OA
ENDROOT
BRANCH  21  23
ATOM     23  C   UNL     1      -1.578   3.811  25.150  0.00  0.00    +0.054 A 
ATOM     24  C   UNL     1      -2.125   4.394  25.351  0.00  0.00    +0.007 A 
ATOM     25  C   UNL     1      -1.902   5.189  25.347  0.00  0.00    +0.030 A 
ATOM     26  C   UNL     1      -1.131   5.399  25.140  0.00  0.00    +0.140 A 
ATOM     27  F   UNL     1      -0.908   6.194  25.135  0.00  0.00    -0.204 F 
ATOM     28  C   UNL     1      -0.584   4.816  24.938  0.00  0.00    +0.030 A 
ATOM     29  C   UNL     1      -0.807   4.022  24.943  0.00  0.00    +0.007 A 
ENDBRANCH  21  23
BRANCH  11  10
ATOM     10  C   UNL     1      -2.775   0.712  23.774  0.00  0.00    +0.047 C 
BRANCH  10   9
ATOM      3  C   UNL     1      -3.394  -1.900  25.056  0.00  0.00    +0.138 A 
ATOM      4  C   UNL     1      -3.977  -1.376  25.311  0.00  0.00    +0.033 A 
ATOM      5  C   UNL     1      -3.969  -0.591  25.055  0.00  0.00    -0.016 A 
ATOM      6  C   UNL     1      -3.376  -0.331  24.542  0.00  0.00    +0.009 A 
ATOM      7  C   UNL     1      -2.793  -0.856  24.287  0.00  0.00    +0.004 A 
ATOM      8  C   UNL     1      -2.801  -1.640  24.543  0.00  0.00    +0.037 A 
ATOM      9  C   UNL     1      -3.368   0.453  24.286  0.00  0.00    +0.053 C 
ATOM     30  N   UNL     1      -3.951   0.976  24.541  0.00  0.00    -0.274 NA
ATOM     31  C   UNL     1      -4.544   0.716  25.054  0.00  0.00    +0.130 C 
ATOM     32  C   UNL     1      -4.552  -0.067  25.310  0.00  0.00    +0.053 C 
BRANCH   3   2
ATOM      1  C   UNL     1      -3.326  -3.297  24.767  0.00  0.00    +0.252 C 
ATOM      2  O   UNL     1      -3.402  -2.684  25.312  0.00  0.00    -0.471 OA
ENDBRANCH   3   2
ENDBRANCH  10   9
ENDBRANCH  11  10
BRANCH  16  17
ATOM     17  C   UNL     1      -2.857   1.584  22.375  0.00  0.00    +0.114 C 
BRANCH  17  18
ATOM     18  C   UNL     1      -2.724   1.949  21.648  0.00  0.00    +0.365 C 
ATOM     19  O   UNL     1      -2.108   1.692  21.163  0.00  0.00    -0.246 OA
ATOM     20  O   UNL     1      -3.209   2.571  21.404  0.00  0.00    -0.246 OA
ENDBRANCH  17  18
ENDBRANCH  16  17
TORSDOF 6
ENDMDL
MODEL 6
REMARK VINA RESULT:     -10.0      2.480      4.243
REMARK  Name = 
REMARK  6 active torsions:
REMARK  status: ('A' for Active; 'I' for Inactive)
REMARK    1  A    between atoms: O_2  and  C_3
REMARK    2  A    between atoms: C_9  and  C_10
REMARK    3  A    between atoms: C_10  and  C_11
REMARK    4  A    between atoms: C_16  and  C_17
REMARK    5  A    between atoms: C_17  and  C_18
REMARK    6  A    between atoms: C_21  and  C_23
REMARK                            x       y       z     vdW  Elec       q    Type
REMARK                         _______ _______ _______ _____ _____    ______ ____
ROOT
ATOM     11  C   UNL     1      -2.493   0.049  24.750  0.00  0.00    +0.026 C 
ATOM     12  C   UNL     1      -2.818   0.795  24.624  0.00  0.00    +0.094 C 
ATOM     13  N   UNL     1      -3.604   0.944  24.831  0.00  0.00    -0.276 N 
ATOM     14  C   UNL     1      -4.062   0.344  25.164  0.00  0.00    +0.094 C 
ATOM     15  C   UNL     1      -3.736  -0.402  25.291  0.00  0.00    +0.022 C 
ATOM     16  C   UNL     1      -2.951  -0.551  25.084  0.00  0.00    +0.015 C 
ATOM     21  C   UNL     1      -3.930   1.691  24.704  0.00  0.00    +0.249 C 
ATOM     22  O   UNL     1      -3.471   2.290  24.370  0.00  0.00    -0.270 OA
ENDROOT
BRANCH  21  23
ATOM     23  C   UNL     1      -4.714   1.838  24.911  0.00  0.00    +0.054 A 
ATOM     24  C   UNL     1      -4.887   2.250  25.604  0.00  0.00    +0.007 A 
ATOM     25  C   UNL     1      -5.673   2.398  25.812  0.00  0.00    +0.030 A 
ATOM     26  C   UNL     1      -6.284   2.134  25.325  0.00  0.00    +0.140 A 
ATOM     27  F   UNL     1      -7.069   2.282  25.533  0.00  0.00    -0.204 F 
ATOM     28  C   UNL     1      -6.111   1.722  24.632  0.00  0.00    +0.030 A 
ATOM     29  C   UNL     1      -5.327   1.574  24.425  0.00  0.00    +0.007 A 
ENDBRANCH  21  23
BRANCH  11  10
ATOM     10  C   UNL     1      -1.708  -0.099  24.543  0.00  0.00    +0.047 C 
BRANCH  10   9
ATOM      3  C   UNL     1       0.942   0.582  23.375  0.00  0.00    +0.138 A 
ATOM      4  C   UNL     1       0.843   1.080  24.026  0.00  0.00    +0.033 A 
ATOM      5  C   UNL     1       0.156   1.035  24.481  0.00  0.00    -0.016 A 
ATOM      6  C   UNL     1      -0.433   0.490  24.285  0.00  0.00    +0.009 A 
ATOM      7  C   UNL     1      -0.334  -0.008  23.634  0.00  0.00    +0.004 A 
ATOM      8  C   UNL     1       0.353   0.038  23.179  0.00  0.00    +0.037 A 
ATOM      9  C   UNL     1      -1.119   0.445  24.739  0.00  0.00    +0.053 C 
ATOM     30  N   UNL     1      -1.218   0.942  25.389  0.00  0.00    -0.274 NA
ATOM     31  C   UNL     1      -0.628   1.487  25.585  0.00  0.00    +0.130 C 
ATOM     32  C   UNL     1       0.058   1.532  25.130  0.00  0.00    +0.053 C 
BRANCH   3   2
ATOM      1  C   UNL     1       1.916  -0.044  22.538  0.00  0.00    +0.252 C 
ATOM      2  O   UNL     1       1.628   0.628  22.921  0.00  0.00    -0.471 OA
ENDBRANCH   3   2
ENDBRANCH  10   9
ENDBRANCH  11  10
BRANCH  16  17
ATOM     17  C   UNL     1      -2.625  -1.298  25.210  0.00  0.00    +0.114 C 
BRANCH  17  18
ATOM     18  C   UNL     1      -3.115  -1.959  25.253  0.00  0.00    +0.365 C 
ATOM     19  O   UNL     1      -3.277  -2.398  24.573  0.00  0.00    -0.246 OA
ATOM     20  O   UNL     1      -3.444  -2.184  25.977  0.00  0.00    -0.246 OA
ENDBRANCH  17  18
ENDBRANCH  16  17
TORSDOF 6
ENDMDL
MODEL 7
REMARK VINA RESULT:     -10.0      2.592      4.103
REMARK  Name = 
REMARK  6 active torsions:
REMARK  status: ('A' for Active; 'I' for Inactive)
REMARK    1  A    between atoms: O_2  and  C_3
REMARK    2  A    between atoms: C_9  and  C_10
REMARK    3  A    between atoms: C_10  and  C_11
REMARK    4  A    between atoms: C_16  and  C_17
REMARK    5  A    between atoms: C_17  and  C_18
REMARK    6  A    between atoms: C_21  and  C_23
REMARK                            x       y       z     vdW  Elec       q    Type
REMARK                         _______ _______ _______ _____ _____    ______ ____
ROOT
ATOM     11  C   UNL     1      -1.829   1.946  24.832  0.00  0.00    +0.026 C 
ATOM     12  C   UNL     1      -2.474   1.483  24.616  0.00  0.00    +0.094 C 
ATOM     13  N   UNL     1      -3.241   1.729  24.800  0.00  0.00    -0.276 N 
ATOM     14  C   UNL     1      -3.359   2.441  25.201  0.00  0.00    +0.094 C 
ATOM     15  C   UNL     1      -2.713   2.904  25.417  0.00  0.00    +0.022 C 
ATOM     16  C   UNL     1      -1.948   2.658  25.233  0.00  0.00    +0.015 C 
ATOM     21  C   UNL     1      -3.887   1.265  24.583  0.00  0.00    +0.249 C 
ATOM     22  O   UNL     1      -3.767   0.554  24.183  0.00  0.00    -0.270 OA
ENDROOT
BRANCH  21  23
ATOM     23  C   UNL     1      -4.652   1.511  24.768  0.00  0.00    +0.054 A 
ATOM     24  C   UNL     1      -5.058   1.161  25.394  0.00  0.00    +0.007 A 
ATOM     25  C   UNL     1      -5.824   1.408  25.579  0.00  0.00    +0.030 A 
ATOM     26  C   UNL     1      -6.183   2.005  25.136  0.00  0.00    +0.140 A 
ATOM     27  F   UNL     1      -6.949   2.252  25.321  0.00  0.00    -0.204 F 
ATOM     28  C   UNL     1      -5.776   2.355  24.510  0.00  0.00    +0.030 A 
ATOM     29  C   UNL     1      -5.011   2.109  24.326  0.00  0.00    +0.007 A 
ENDBRANCH  21  23
BRANCH  11  10
ATOM     10  C   UNL     1      -1.063   1.700  24.648  0.00  0.00    +0.047 C 
BRANCH  10   9
ATOM      3  C   UNL     1       0.726  -0.150  23.157  0.00  0.00    +0.138 A 
ATOM      4  C   UNL     1       0.415  -0.587  23.783  0.00  0.00    +0.033 A 
ATOM      5  C   UNL     1      -0.110  -0.235  24.313  0.00  0.00    -0.016 A 
ATOM      6  C   UNL     1      -0.325   0.557  24.216  0.00  0.00    +0.009 A 
ATOM      7  C   UNL     1      -0.013   0.994  23.590  0.00  0.00    +0.004 A 
ATOM      8  C   UNL     1       0.512   0.642  23.060  0.00  0.00    +0.037 A 
ATOM      9  C   UNL     1      -0.849   0.910  24.745  0.00  0.00    +0.053 C 
ATOM     30  N   UNL     1      -1.160   0.472  25.371  0.00  0.00    -0.274 NA
ATOM     31  C   UNL     1      -0.946  -0.319  25.468  0.00  0.00    +0.130 C 
ATOM     32  C   UNL     1      -0.421  -0.672  24.939  0.00  0.00    +0.053 C 
BRANCH   3   2
ATOM      1  C   UNL     1       1.941  -0.109  22.407  0.00  0.00    +0.252 C 
ATOM      2  O   UNL     1       1.251  -0.503  22.628  0.00  0.00    -0.471 OA
ENDBRANCH   3   2
ENDBRANCH  10   9
ENDBRANCH  11  10
BRANCH  16  17
ATOM     17  C   UNL     1      -1.301   3.123  25.450  0.00  0.00    +0.114 C 
BRANCH  17  18
ATOM     18  C   UNL     1      -1.376   3.943  25.482  0.00  0.00    +0.365 C 
ATOM     19  O   UNL     1      -1.789   4.297  26.103  0.00  0.00    -0.246 OA
ATOM     20  O   UNL     1      -1.036   4.412  24.892  0.00  0.00    -0.246 OA
ENDBRANCH  17  18
ENDBRANCH  16  17
TORSDOF 6
ENDMDL
MODEL 8
REMARK VINA RESULT:      -9.9      1.609      2.963
REMARK  Name = 
REMARK  6 active torsions:
REMARK  status: ('A' for Active; 'I' for Inactive)
REMARK    1  A    between atoms: O_2  and  C_3
REMARK    2  A    between atoms: C_9  and  C_10
REMARK    3  A    between atoms: C_10  and  C_11
REMARK    4  A    between atoms: C_16  and  C_17
REMARK    5  A    between atoms: C_17  and  C_18
REMARK    6  A    between atoms: C_21  and  C_23
REMARK                            x       y       z     vdW  Elec       q    Type
REMARK                         _______ _______ _______ _____ _____    ______ ____
ROOT
ATOM     11  C   UNL     1      -1.345   0.629  24.395  0.00  0.00    +0.026 C 
ATOM     12  C   UNL     1      -1.906   1.178  24.644  0.00  0.00    +0.094 C 
ATOM     13  N   UNL     1      -1.697   1.973  24.728  0.00  0.00    -0.276 N 
ATOM     14  C   UNL     1      -0.926   2.215  24.562  0.00  0.00    +0.094 C 
ATOM     15  C   UNL     1      -0.365   1.666  24.313  0.00  0.00    +0.022 C 
ATOM     16  C   UNL     1      -0.573   0.872  24.229  0.00  0.00    +0.015 C 
ATOM     21  C   UNL     1      -2.259   2.523  24.977  0.00  0.00    +0.249 C 
ATOM     22  O   UNL     1      -3.029   2.279  25.143  0.00  0.00    -0.270 OA
ENDROOT
BRANCH  21  23
ATOM     23  C   UNL     1      -2.050   3.316  25.061  0.00  0.00    +0.054 A 
ATOM     24  C   UNL     1      -2.196   3.848  24.447  0.00  0.00    +0.007 A 
ATOM     25  C   UNL     1      -1.987   4.642  24.530  0.00  0.00    +0.030 A 
ATOM     26  C   UNL     1      -1.632   4.904  25.228  0.00  0.00    +0.140 A 
ATOM     27  F   UNL     1      -1.423   5.698  25.311  0.00  0.00    -0.204 F 
ATOM     28  C   UNL     1      -1.485   4.372  25.841  0.00  0.00    +0.030 A 
ATOM     29  C   UNL     1      -1.694   3.579  25.758  0.00  0.00    +0.007 A 
ENDBRANCH  21  23
BRANCH  11  10
ATOM     10  C   UNL     1      -1.553  -0.165  24.311  0.00  0.00    +0.047 C 
BRANCH  10   9
ATOM      3  C   UNL     1      -3.711  -2.207  24.475  0.00  0.00    +0.138 A 
ATOM      4  C   UNL     1      -3.475  -2.059  25.252  0.00  0.00    +0.033 A 
ATOM      5  C   UNL     1      -2.877  -1.512  25.406  0.00  0.00    -0.016 A 
ATOM      6  C   UNL     1      -2.513  -1.112  24.781  0.00  0.00    +0.009 A 
ATOM      7  C   UNL     1      -2.749  -1.260  24.004  0.00  0.00    +0.004 A 
ATOM      8  C   UNL     1      -3.347  -1.807  23.850  0.00  0.00    +0.037 A 
ATOM      9  C   UNL     1      -1.916  -0.565  24.935  0.00  0.00    +0.053 C 
ATOM     30  N   UNL     1      -1.681  -0.418  25.711  0.00  0.00    -0.274 NA
ATOM     31  C   UNL     1      -2.045  -0.818  26.336  0.00  0.00    +0.130 C 
ATOM     32  C   UNL     1      -2.642  -1.365  26.182  0.00  0.00    +0.053 C 
BRANCH   3   2
ATOM      1  C   UNL     1      -4.658  -2.784  23.575  0.00  0.00    +0.252 C 
ATOM      2  O   UNL     1      -4.308  -2.754  24.321  0.00  0.00    -0.471 OA
ENDBRANCH   3   2
ENDBRANCH  10   9
ENDBRANCH  11  10
BRANCH  16  17
ATOM     17  C   UNL     1      -0.011   0.322  23.980  0.00  0.00    +0.114 C 
BRANCH  17  18
ATOM     18  C   UNL     1       0.606   0.558  23.488  0.00  0.00    +0.365 C 
ATOM     19  O   UNL     1       1.229   1.006  23.792  0.00  0.00    -0.246 OA
ATOM     20  O   UNL     1       0.603   0.345  22.690  0.00  0.00    -0.246 OA
ENDBRANCH  17  18
ENDBRANCH  16  17
TORSDOF 6
ENDMDL
MODEL 9
REMARK VINA RESULT:      -9.8      1.763      2.795
REMARK  Name = 
REMARK  6 active torsions:
REMARK  status: ('A' for Active; 'I' for Inactive)
REMARK    1  A    between atoms: O_2  and  C_3
REMARK    2  A    between atoms: C_9  and  C_10
REMARK    3  A    between atoms: C_10  and  C_11
REMARK    4  A    between atoms: C_16  and  C_17
REMARK    5  A    between atoms: C_17  and  C_18
REMARK    6  A    between atoms: C_21  and  C_23
REMARK                            x       y       z     vdW  Elec       q    Type
REMARK                         _______ _______ _______ _____ _____    ______ ____
ROOT
ATOM     11  C   UNL     1      -3.435   0.930  23.952  0.00  0.00    +0.026 C 
ATOM     12  C   UNL     1      -3.996   1.056  24.542  0.00  0.00    +0.094 C 
ATOM     13  N   UNL     1      -4.293   1.815  24.674  0.00  0.00    -0.276 N 
ATOM     14  C   UNL     1      -4.028   2.447  24.215  0.00  0.00    +0.094 C 
ATOM     15  C   UNL     1      -3.467   2.321  23.625  0.00  0.00    +0.022 C 
ATOM     16  C   UNL     1      -3.170   1.563  23.492  0.00  0.00    +0.015 C 
ATOM     21  C   UNL     1      -4.855   1.941  25.265  0.00  0.00    +0.249 C 
ATOM     22  O   UNL     1      -5.119   1.308  25.724  0.00  0.00    -0.270 OA
ENDROOT
BRANCH  21  23
ATOM     23  C   UNL     1      -5.151   2.699  25.397  0.00  0.00    +0.054 A 
ATOM     24  C   UNL     1      -5.928   2.880  25.188  0.00  0.00    +0.007 A 
ATOM     25  C   UNL     1      -6.226   3.639  25.320  0.00  0.00    +0.030 A 
ATOM     26  C   UNL     1      -5.745   4.216  25.661  0.00  0.00    +0.140 A 
ATOM     27  F   UNL     1      -6.042   4.975  25.793  0.00  0.00    -0.204 F 
ATOM     28  C   UNL     1      -4.967   4.035  25.870  0.00  0.00    +0.030 A 
ATOM     29  C   UNL     1      -4.671   3.277  25.738  0.00  0.00    +0.007 A 
ENDBRANCH  21  23
BRANCH  11  10
ATOM     10  C   UNL     1      -3.138   0.172  23.819  0.00  0.00    +0.047 C 
BRANCH  10   9
ATOM      3  C   UNL     1      -3.503  -2.654  24.673  0.00  0.00    +0.138 A 
ATOM      4  C   UNL     1      -3.001  -2.309  25.230  0.00  0.00    +0.033 A 
ATOM      5  C   UNL     1      -2.784  -1.517  25.156  0.00  0.00    -0.016 A 
ATOM      6  C   UNL     1      -3.070  -1.068  24.524  0.00  0.00    +0.009 A 
ATOM      7  C   UNL     1      -3.572  -1.413  23.967  0.00  0.00    +0.004 A 
ATOM      8  C   UNL     1      -3.789  -2.206  24.041  0.00  0.00    +0.037 A 
ATOM      9  C   UNL     1      -2.853  -0.276  24.450  0.00  0.00    +0.053 C 
ATOM     30  N   UNL     1      -2.352   0.068  25.007  0.00  0.00    -0.274 NA
ATOM     31  C   UNL     1      -2.066  -0.380  25.639  0.00  0.00    +0.130 C 
ATOM     32  C   UNL     1      -2.283  -1.172  25.713  0.00  0.00    +0.053 C 
BRANCH   3   2
ATOM      1  C   UNL     1      -4.011  -3.857  24.094  0.00  0.00    +0.252 C 
ATOM      2  O   UNL     1      -3.720  -3.446  24.747  0.00  0.00    -0.471 OA
ENDBRANCH   3   2
ENDBRANCH  10   9
ENDBRANCH  11  10
BRANCH  16  17
ATOM     17  C   UNL     1      -2.608   1.437  22.901  0.00  0.00    +0.114 C 
BRANCH  17  18
ATOM     18  C   UNL     1      -2.328   2.073  22.457  0.00  0.00    +0.365 C 
ATOM     19  O   UNL     1      -1.711   2.538  22.746  0.00  0.00    -0.246 OA
ATOM     20  O   UNL     1      -2.664   2.243  21.722  0.00  0.00    -0.246 OA
ENDBRANCH  17  18
ENDBRANCH  16  17
TORSDOF 6
ENDMDL
