MODEL 1
REMARK VINA RESULT:      -9.5      0.000      0.000
REMARK  Name = 
REMARK  3 active torsions:
REMARK  status: ('A' for Active; 'I' for Inactive)
REMARK    1  A    between atoms: C_9  and  N_10
REMARK    2  A    between atoms: C_14  and  S_15
REMARK    3  A    between atoms: S_15  and  C_16
REMARK                            x       y       z     vdW  Elec       q    Type
REMARK                         _______ _______ _______ _____ _____    ______ ____
ROOT
ATOM     10  N   UNL     1      -4.422   2.308  24.815  0.00  0.00    -0.205 N 
ATOM     11  N   UNL     1      -5.191   2.545  24.998  0.00  0.00    -0.042 NA
ATOM     12  N   UNL     1      -5.652   1.866  25.086  0.00  0.00    -0.022 NA
ATOM     13  N   UNL     1      -5.168   1.211  24.958  0.00  0.00    -0.101 NA
ATOM     14  C   UNL     1      -4.408   1.483  24.791  0.00  0.00    +0.211 A 
ENDROOT
BRANCH  10   9
ATOM      1  O   UNL     1      -1.827   4.718  25.278  0.00  0.00    -0.218 OA
ATOM      2  C   UNL     1      -2.470   4.218  25.413  0.00  0.00    +0.211 C 
ATOM      3  C   UNL     1      -2.880   4.139  26.124  0.00  0.00    +0.178 C 
ATOM      4  O   UNL     1      -3.479   3.581  26.012  0.00  0.00    -0.349 OA
ATOM      5  C   UNL     1      -3.437   3.316  25.231  0.00  0.00    +0.170 C 
ATOM      6  C   UNL     1      -2.813   3.710  24.861  0.00  0.00    +0.177 C 
ATOM      7  O   UNL     1      -2.771   3.446  24.081  0.00  0.00    -0.349 OA
ATOM      8  C   UNL     1      -3.369   2.888  23.969  0.00  0.00    +0.169 C 
ATOM      9  C   UNL     1      -3.780   2.808  24.680  0.00  0.00    +0.168 C 
ENDBRANCH  10   9
BRANCH  14  15
ATOM     15  S   UNL     1      -3.749   1.015  24.627  0.00  0.00    -0.075 S 
BRANCH  15  16
ATOM     16  C   UNL     1      -3.803   0.194  24.686  0.00  0.00    +0.055 C 
ATOM     17  C   UNL     1      -3.698  -0.252  25.372  0.00  0.00    +0.011 C 
ATOM     18  C   UNL     1      -3.801  -1.047  25.178  0.00  0.00    +0.001 C 
ATOM     19  C   UNL     1      -3.970  -1.093  24.373  0.00  0.00    +0.001 C 
ATOM     20  C   UNL     1      -3.971  -0.327  24.068  0.00  0.00    +0.011 C 
ENDBRANCH  15  16
ENDBRANCH  14  15
TORSDOF 3
ENDMDL
MODEL 2
REMARK VINA RESULT:      -9.5      1.477      2.158
REMARK  Name = 
REMARK  3 active torsions:
REMARK  status: ('A' for Active; 'I' for Inactive)
REMARK    1  A    between atoms: C_9  and  N_10
REMARK    2  A    between atoms: C_14  and  S_15
REMARK    3  A    between atoms: S_15  and  C_16
REMARK                            x       y       z     vdW  Elec       q    Type
REMARK                         _______ _______ _______ _____ _____    ______ ____
ROOT
ATOM     10  N   UNL     1      -3.895   1.359  24.234  0.00  0.00    -0.205 N 
ATOM     11  N   UNL     1      -3.329   1.659  23.714  0.00  0.00    -0.042 NA
ATOM     12  N   UNL     1      -2.807   1.048  23.525  0.00  0.00    -0.022 NA
ATOM     13  N   UNL     1      -3.051   0.370  23.928  0.00  0.00    -0.101 NA
ATOM     14  C   UNL     1      -3.723   0.562  24.366  0.00  0.00    +0.211 A 
ENDROOT
BRANCH  10   9
ATOM      1  O   UNL     1      -5.793   3.839  25.967  0.00  0.00    -0.218 OA
ATOM      2  C   UNL     1      -5.164   3.417  25.638  0.00  0.00    +0.211 C 
ATOM      3  C   UNL     1      -4.368   3.626  25.675  0.00  0.00    +0.178 C 
ATOM      4  O   UNL     1      -3.934   3.050  25.273  0.00  0.00    -0.349 OA
ATOM      5  C   UNL     1      -4.463   2.485  24.988  0.00  0.00    +0.170 C 
ATOM      6  C   UNL     1      -5.224   2.711  25.213  0.00  0.00    +0.177 C 
ATOM      7  O   UNL     1      -5.753   2.147  24.928  0.00  0.00    -0.349 OA
ATOM      8  C   UNL     1      -5.320   1.571  24.527  0.00  0.00    +0.169 C 
ATOM      9  C   UNL     1      -4.522   1.780  24.564  0.00  0.00    +0.168 C 
ENDBRANCH  10   9
BRANCH  14  15
ATOM     15  S   UNL     1      -4.149   0.048  24.851  0.00  0.00    -0.075 S 
BRANCH  15  16
ATOM     16  C   UNL     1      -3.898  -0.731  24.948  0.00  0.00    +0.055 C 
ATOM     17  C   UNL     1      -4.038  -1.355  24.427  0.00  0.00    +0.011 C 
ATOM     18  C   UNL     1      -3.688  -2.033  24.741  0.00  0.00    +0.001 C 
ATOM     19  C   UNL     1      -3.331  -1.828  25.455  0.00  0.00    +0.001 C 
ATOM     20  C   UNL     1      -3.460  -1.024  25.584  0.00  0.00    +0.011 C 
ENDBRANCH  15  16
ENDBRANCH  14  15
TORSDOF 3
ENDMDL
MODEL 3
REMARK VINA RESULT:      -9.2      1.294      1.421
REMARK  Name = 
REMARK  3 active torsions:
REMARK  status: ('A' for Active; 'I' for Inactive)
REMARK    1  A    between atoms: C_9  and  N_10
REMARK    2  A    between atoms: C_14  and  S_15
REMARK    3  A    between atoms: S_15  and  C_16
REMARK                            x       y       z     vdW  Elec       q    Type
REMARK                         _______ _______ _______ _____ _____    ______ ____
ROOT
ATOM     10  N   UNL     1      -3.778   1.420  24.448  0.00  0.00    -0.205 N 
ATOM     11  N   UNL     1      -4.414   1.803  24.808  0.00  0.00    -0.042 NA
ATOM     12  N   UNL     1      -4.953   1.228  25.051  0.00  0.00    -0.022 NA
ATOM     13  N   UNL     1      -4.651   0.490  24.842  0.00  0.00    -0.101 NA
ATOM     14  C   UNL     1      -3.925   0.608  24.469  0.00  0.00    +0.211 A 
ENDROOT
BRANCH  10   9
ATOM      1  O   UNL     1      -0.704   3.204  24.098  0.00  0.00    -0.218 OA
ATOM      2  C   UNL     1      -1.370   2.840  24.423  0.00  0.00    +0.211 C 
ATOM      3  C   UNL     1      -1.558   2.801  25.225  0.00  0.00    +0.178 C 
ATOM      4  O   UNL     1      -2.269   2.388  25.300  0.00  0.00    -0.349 OA
ATOM      5  C   UNL     1      -2.519   2.172  24.544  0.00  0.00    +0.170 C 
ATOM      6  C   UNL     1      -1.964   2.451  24.002  0.00  0.00    +0.177 C 
ATOM      7  O   UNL     1      -2.214   2.236  23.246  0.00  0.00    -0.349 OA
ATOM      8  C   UNL     1      -2.924   1.823  23.321  0.00  0.00    +0.169 C 
ATOM      9  C   UNL     1      -3.113   1.784  24.124  0.00  0.00    +0.168 C 
ENDBRANCH  10   9
BRANCH  14  15
ATOM     15  S   UNL     1      -3.431   0.018  24.170  0.00  0.00    -0.075 S 
BRANCH  15  16
ATOM     16  C   UNL     1      -3.614  -0.776  24.297  0.00  0.00    +0.055 C 
ATOM     17  C   UNL     1      -3.366  -1.235  24.936  0.00  0.00    +0.011 C 
ATOM     18  C   UNL     1      -3.676  -1.994  24.841  0.00  0.00    +0.001 C 
ATOM     19  C   UNL     1      -4.116  -2.004  24.144  0.00  0.00    +0.001 C 
ATOM     20  C   UNL     1      -4.078  -1.252  23.807  0.00  0.00    +0.011 C 
ENDBRANCH  15  16
ENDBRANCH  14  15
TORSDOF 3
ENDMDL
MODEL 4
REMARK VINA RESULT:      -9.0      1.863      2.314
REMARK  Name = 
REMARK  3 active torsions:
REMARK  status: ('A' for Active; 'I' for Inactive)
REMARK    1  A    between atoms: C_9  and  N_10
REMARK    2  A    between atoms: C_14  and  S_15
REMARK    3  A    between atoms: S_15  and  C_16
REMARK                            x       y       z     vdW  Elec       q    Type
REMARK                         _______ _______ _______ _____ _____    ______ ____
ROOT
ATOM     10  N   UNL     1      -2.142   0.910  24.223  0.00  0.00    -0.205 N 
ATOM     11  N   UNL     1      -1.317   0.926  24.227  0.00  0.00    -0.042 NA
ATOM     12  N   UNL     1      -1.048   0.174  24.437  0.00  0.00    -0.022 NA
ATOM     13  N   UNL     1      -1.707  -0.306  24.562  0.00  0.00    -0.101 NA
ATOM     14  C   UNL     1      -2.383   0.148  24.430  0.00  0.00    +0.211 A 
ENDROOT
BRANCH  10   9
ATOM      1  O   UNL     1      -3.903   4.011  24.401  0.00  0.00    -0.218 OA
ATOM      2  C   UNL     1      -3.406   3.377  24.581  0.00  0.00    +0.211 C 
ATOM      3  C   UNL     1      -2.937   3.306  25.255  0.00  0.00    +0.178 C 
ATOM      4  O   UNL     1      -2.532   2.588  25.209  0.00  0.00    -0.349 OA
ATOM      5  C   UNL     1      -2.752   2.216  24.506  0.00  0.00    +0.170 C 
ATOM      6  C   UNL     1      -3.292   2.704  24.118  0.00  0.00    +0.177 C 
ATOM      7  O   UNL     1      -3.512   2.332  23.415  0.00  0.00    -0.349 OA
ATOM      8  C   UNL     1      -3.108   1.615  23.369  0.00  0.00    +0.169 C 
ATOM      9  C   UNL     1      -2.638   1.543  24.043  0.00  0.00    +0.168 C 
ENDBRANCH  10   9
BRANCH  14  15
ATOM     15  S   UNL     1      -3.163  -0.113  24.494  0.00  0.00    -0.075 S 
BRANCH  15  16
ATOM     16  C   UNL     1      -3.320  -0.890  24.720  0.00  0.00    +0.055 C 
ATOM     17  C   UNL     1      -3.475  -1.522  24.212  0.00  0.00    +0.011 C 
ATOM     18  C   UNL     1      -3.601  -2.195  24.673  0.00  0.00    +0.001 C 
ATOM     19  C   UNL     1      -3.524  -1.980  25.465  0.00  0.00    +0.001 C 
ATOM     20  C   UNL     1      -3.351  -1.174  25.495  0.00  0.00    +0.011 C 
ENDBRANCH  15  16
ENDBRANCH  14  15
TORSDOF 3
ENDMDL
MODEL 5
REMARK VINA RESULT:      -8.9      2.458      4.189
REMARK  Name = 
REMARK  3 active torsions:
REMARK  status: ('A' for Active; 'I' for Inactive)
REMARK    1  A    between atoms: C_9  and  N_10
REMARK    2  A    between atoms: C_14  and  S_15
REMARK    3  A    between atoms: S_15  and  C_16
REMARK                            x       y       z     vdW  Elec       q    Type
REMARK                         _______ _______ _______ _____ _____    ______ ____
ROOT
ATOM     10  N   UNL     1      -3.401   0.607  24.171  0.00  0.00    -0.205 N 
ATOM     11  N   UNL     1      -3.027   0.831  23.470  0.00  0.00    -0.042 NA
ATOM     12  N   UNL     1      -3.278   1.593  23.279  0.00  0.00    -0.022 NA
ATOM     13  N   UNL     1      -3.807   1.841  23.862  0.00  0.00    -0.101 NA
ATOM     14  C   UNL     1      -3.883   1.232  24.413  0.00  0.00    +0.211 A 
ENDROOT
BRANCH  10   9
ATOM      1  O   UNL     1      -3.593  -2.859  25.010  0.00  0.00    -0.218 OA
ATOM      2  C   UNL     1      -3.685  -2.138  24.619  0.00  0.00    +0.211 C 
ATOM      3  C   UNL     1      -4.092  -2.018  23.912  0.00  0.00    +0.178 C 
ATOM      4  O   UNL     1      -4.045  -1.216  23.722  0.00  0.00    -0.349 OA
ATOM      5  C   UNL     1      -3.608  -0.840  24.313  0.00  0.00    +0.170 C 
ATOM      6  C   UNL     1      -3.386  -1.410  24.867  0.00  0.00    +0.177 C 
ATOM      7  O   UNL     1      -2.950  -1.035  25.458  0.00  0.00    -0.349 OA
ATOM      8  C   UNL     1      -2.902  -0.233  25.269  0.00  0.00    +0.169 C 
ATOM      9  C   UNL     1      -3.309  -0.113  24.561  0.00  0.00    +0.168 C 
ENDBRANCH  10   9
BRANCH  14  15
ATOM     15  S   UNL     1      -4.357   1.245  25.088  0.00  0.00    -0.075 S 
BRANCH  15  16
ATOM     16  C   UNL     1      -4.885   1.867  25.209  0.00  0.00    +0.055 C 
ATOM     17  C   UNL     1      -4.701   2.604  25.531  0.00  0.00    +0.011 C 
ATOM     18  C   UNL     1      -5.392   3.054  25.550  0.00  0.00    +0.001 C 
ATOM     19  C   UNL     1      -6.003   2.596  25.240  0.00  0.00    +0.001 C 
ATOM     20  C   UNL     1      -5.690   1.863  25.029  0.00  0.00    +0.011 C 
ENDBRANCH  15  16
ENDBRANCH  14  15
TORSDOF 3
ENDMDL
MODEL 6
REMARK VINA RESULT:      -8.7      2.084      4.041
REMARK  Name = 
REMARK  3 active torsions:
REMARK  status: ('A' for Active; 'I' for Inactive)
REMARK    1  A    between atoms: C_9  and  N_10
REMARK    2  A    between atoms: C_14  and  S_15
REMARK    3  A    between atoms: S_15  and  C_16
REMARK                            x       y       z     vdW  Elec       q    Type
REMARK                         _______ _______ _______ _____ _____    ______ ____
ROOT
ATOM     10  N   UNL     1      -3.163   1.424  23.984  0.00  0.00    -0.205 N 
ATOM     11  N   UNL     1      -3.088   1.375  23.164  0.00  0.00    -0.042 NA
ATOM     12  N   UNL     1      -2.740   2.074  22.898  0.00  0.00    -0.022 NA
ATOM     13  N   UNL     1      -2.599   2.555  23.554  0.00  0.00    -0.101 NA
ATOM     14  C   UNL     1      -2.861   2.153  24.225  0.00  0.00    +0.211 A 
ENDROOT
BRANCH  10   9
ATOM      1  O   UNL     1      -3.632  -1.596  25.832  0.00  0.00    -0.218 OA
ATOM      2  C   UNL     1      -3.311  -1.017  25.339  0.00  0.00    +0.211 C 
ATOM      3  C   UNL     1      -2.594  -1.068  24.936  0.00  0.00    +0.178 C 
ATOM      4  O   UNL     1      -2.490  -0.368  24.510  0.00  0.00    -0.349 OA
ATOM      5  C   UNL     1      -3.144   0.115  24.652  0.00  0.00    +0.170 C 
ATOM      6  C   UNL     1      -3.652  -0.286  25.164  0.00  0.00    +0.177 C 
ATOM      7  O   UNL     1      -4.305   0.196  25.305  0.00  0.00    -0.349 OA
ATOM      8  C   UNL     1      -4.202   0.896  24.881  0.00  0.00    +0.169 C 
ATOM      9  C   UNL     1      -3.484   0.845  24.476  0.00  0.00    +0.168 C 
ENDBRANCH  10   9
BRANCH  14  15
ATOM     15  S   UNL     1      -2.827   2.431  25.001  0.00  0.00    -0.075 S 
BRANCH  15  16
ATOM     16  C   UNL     1      -2.410   3.121  25.174  0.00  0.00    +0.055 C 
ATOM     17  C   UNL     1      -2.726   3.882  25.215  0.00  0.00    +0.011 C 
ATOM     18  C   UNL     1      -2.114   4.403  25.403  0.00  0.00    +0.001 C 
ATOM     19  C   UNL     1      -1.420   3.964  25.477  0.00  0.00    +0.001 C 
ATOM     20  C   UNL     1      -1.602   3.172  25.336  0.00  0.00    +0.011 C 
ENDBRANCH  15  16
ENDBRANCH  14  15
TORSDOF 3
ENDMDL
MODEL 7
REMARK VINA RESULT:      -8.6      2.041      2.759
REMARK  Name = 
REMARK  3 active torsions:
REMARK  status: ('A' for Active; 'I' for Inactive)
REMARK    1  A    between atoms: C_9  and  N_10
REMARK    2  A    between atoms: C_14  and  S_15
REMARK    3  A    between atoms: S_15  and  C_16
REMARK                            x       y       z     vdW  Elec       q    Type
REMARK                         _______ _______ _______ _____ _____    ______ ____
ROOT
ATOM     10  N   UNL     1      -2.306   2.530  24.062  0.00  0.00    -0.205 N 
ATOM     11  N   UNL     1      -2.124   2.391  23.269  0.00  0.00    -0.042 NA
ATOM     12  N   UNL     1      -2.813   2.142  22.889  0.00  0.00    -0.022 NA
ATOM     13  N   UNL     1      -3.421   2.128  23.447  0.00  0.00    -0.101 NA
ATOM     14  C   UNL     1      -3.108   2.367  24.171  0.00  0.00    +0.211 A 
ENDROOT
BRANCH  10   9
ATOM      1  O   UNL     1       0.418   2.664  26.367  0.00  0.00    -0.218 OA
ATOM      2  C   UNL     1      -0.109   2.408  25.786  0.00  0.00    +0.211 C 
ATOM      3  C   UNL     1      -0.077   1.686  25.388  0.00  0.00    +0.178 C 
ATOM      4  O   UNL     1      -0.709   1.660  24.857  0.00  0.00    -0.349 OA
ATOM      5  C   UNL     1      -1.130   2.366  24.927  0.00  0.00    +0.170 C 
ATOM      6  C   UNL     1      -0.760   2.828  25.501  0.00  0.00    +0.177 C 
ATOM      7  O   UNL     1      -1.180   3.534  25.572  0.00  0.00    -0.349 OA
ATOM      8  C   UNL     1      -1.811   3.508  25.041  0.00  0.00    +0.169 C 
ATOM      9  C   UNL     1      -1.780   2.786  24.642  0.00  0.00    +0.168 C 
ENDBRANCH  10   9
BRANCH  14  15
ATOM     15  S   UNL     1      -3.523   2.432  24.881  0.00  0.00    -0.075 S 
BRANCH  15  16
ATOM     16  C   UNL     1      -4.299   2.159  24.931  0.00  0.00    +0.055 C 
ATOM     17  C   UNL     1      -4.532   1.378  25.064  0.00  0.00    +0.011 C 
ATOM     18  C   UNL     1      -5.356   1.355  25.072  0.00  0.00    +0.001 C 
ATOM     19  C   UNL     1      -5.634   2.121  24.945  0.00  0.00    +0.001 C 
ATOM     20  C   UNL     1      -4.982   2.618  24.858  0.00  0.00    +0.011 C 
ENDBRANCH  15  16
ENDBRANCH  14  15
TORSDOF 3
ENDMDL
MODEL 8
REMARK VINA RESULT:      -8.5      2.104      3.521
REMARK  Name = 
REMARK  3 active torsions:
REMARK  status: ('A' for Active; 'I' for Inactive)
REMARK    1  A    between atoms: C_9  and  N_10
REMARK    2  A    between atoms: C_14  and  S_15
REMARK    3  A    between atoms: S_15  and  C_16
REMARK                            x       y       z     vdW  Elec       q    Type
REMARK                         _______ _______ _______ _____ _____    ______ ____
ROOT
ATOM     10  N   UNL     1      -2.956   2.406  23.930  0.00  0.00    -0.205 N 
ATOM     11  N   UNL     1      -2.841   2.100  23.172  0.00  0.00    -0.042 NA
ATOM     12  N   UNL     1      -2.029   2.015  23.052  0.00  0.00    -0.022 NA
ATOM     13  N   UNL     1      -1.642   2.269  23.735  0.00  0.00    -0.101 NA
ATOM     14  C   UNL     1      -2.215   2.511  24.278  0.00  0.00    +0.211 A 
ENDROOT
BRANCH  10   9
ATOM      1  O   UNL     1      -6.170   2.057  25.448  0.00  0.00    -0.218 OA
ATOM      2  C   UNL     1      -5.442   1.886  25.099  0.00  0.00    +0.211 C 
ATOM      3  C   UNL     1      -5.144   1.132  24.944  0.00  0.00    +0.178 C 
ATOM      4  O   UNL     1      -4.402   1.218  24.594  0.00  0.00    -0.349 OA
ATOM      5  C   UNL     1      -4.241   2.026  24.532  0.00  0.00    +0.170 C 
ATOM      6  C   UNL     1      -4.883   2.438  24.845  0.00  0.00    +0.177 C 
ATOM      7  O   UNL     1      -4.723   3.244  24.784  0.00  0.00    -0.349 OA
ATOM      8  C   UNL     1      -3.981   3.331  24.433  0.00  0.00    +0.169 C 
ATOM      9  C   UNL     1      -3.683   2.577  24.278  0.00  0.00    +0.168 C 
ENDBRANCH  10   9
BRANCH  14  15
ATOM     15  S   UNL     1      -2.072   2.805  25.035  0.00  0.00    -0.075 S 
BRANCH  15  16
ATOM     16  C   UNL     1      -1.312   2.774  25.353  0.00  0.00    +0.055 C 
ATOM     17  C   UNL     1      -0.750   3.378  25.329  0.00  0.00    +0.011 C 
ATOM     18  C   UNL     1      -0.071   3.110  25.712  0.00  0.00    +0.001 C 
ATOM     19  C   UNL     1      -0.211   2.341  25.973  0.00  0.00    +0.001 C 
ATOM     20  C   UNL     1      -0.978   2.132  25.752  0.00  0.00    +0.011 C 
ENDBRANCH  15  16
ENDBRANCH  14  15
TORSDOF 3
ENDMDL
