MODEL 1
REMARK VINA RESULT:      -9.3      0.000      0.000
REMARK  Name = 
REMARK  6 active torsions:
REMARK  status: ('A' for Active; 'I' for Inactive)
REMARK    1  A    between atoms: O_2  and  C_3
REMARK    2  A    between atoms: C_6  and  C_9
REMARK    3  A    between atoms: N_14  and  C_15
REMARK    4  A    between atoms: C_19  and  N_23
REMARK    5  A    between atoms: N_23  and  C_24
REMARK    6  A    between atoms: C_24  and  C_25
REMARK                            x       y       z     vdW  Elec       q    Type
REMARK                         _______ _______ _______ _____ _____    ______ ____
ROOT
ATOM     15  C   UNL     1      -0.366   1.331  24.373  0.00  0.00    +0.154 C 
ATOM     16  C   UNL     1       0.114   1.947  24.637  0.00  0.00    +0.166 C 
ATOM     17  O   UNL     1       0.864   1.844  24.309  0.00  0.00    -0.350 OA
ATOM     18  C   UNL     1       0.848   1.165  23.843  0.00  0.00    +0.162 C 
ATOM     19  C   UNL     1       1.300   0.680  23.352  0.00  0.00    +0.132 C 
ATOM     20  C   UNL     1       0.820   0.064  23.087  0.00  0.00    +0.162 C 
ATOM     21  O   UNL     1       0.070   0.167  23.415  0.00  0.00    -0.350 OA
ATOM     22  C   UNL     1       0.087   0.848  23.882  0.00  0.00    +0.166 C 
ENDROOT
BRANCH  15  14
ATOM      9  C   UNL     1      -3.026   2.352  24.602  0.00  0.00    +0.086 A 
ATOM     10  C   UNL     1      -2.768   3.087  24.332  0.00  0.00    +0.040 A 
ATOM     11  C   UNL     1      -1.973   3.199  24.139  0.00  0.00    +0.103 A 
ATOM     12  N   UNL     1      -1.437   2.577  24.217  0.00  0.00    -0.211 NA
ATOM     13  C   UNL     1      -1.696   1.841  24.488  0.00  0.00    +0.237 A 
ATOM     14  N   UNL     1      -1.161   1.219  24.566  0.00  0.00    -0.200 NA
ATOM     31  N   UNL     1      -2.490   1.729  24.680  0.00  0.00    -0.212 NA
BRANCH   9   6
ATOM      3  C   UNL     1      -5.409   2.016  25.181  0.00  0.00    +0.139 A 
ATOM      4  C   UNL     1      -5.018   1.467  24.704  0.00  0.00    +0.037 A 
ATOM      5  C   UNL     1      -4.225   1.579  24.511  0.00  0.00    +0.005 A 
ATOM      6  C   UNL     1      -3.820   2.240  24.795  0.00  0.00    +0.018 A 
ATOM      7  C   UNL     1      -4.210   2.788  25.271  0.00  0.00    +0.005 A 
ATOM      8  C   UNL     1      -5.005   2.676  25.464  0.00  0.00    +0.037 A 
BRANCH   3   2
ATOM      1  C   UNL     1      -6.437   1.884  26.164  0.00  0.00    +0.252 C 
ATOM      2  O   UNL     1      -6.203   1.904  25.373  0.00  0.00    -0.471 OA
ENDBRANCH   3   2
ENDBRANCH   9   6
ENDBRANCH  15  14
BRANCH  19  23
ATOM     23  N   UNL     1       2.095   0.792  23.159  0.00  0.00    -0.210 NA
BRANCH  23  24
ATOM     24  C   UNL     1       2.554   0.153  22.913  0.00  0.00    +0.115 C 
BRANCH  24  25
ATOM     25  C   UNL     1       3.375   0.182  22.986  0.00  0.00    -0.005 A 
ATOM     26  C   UNL     1       3.780  -0.442  23.342  0.00  0.00    -0.003 A 
ATOM     27  C   UNL     1       4.602  -0.413  23.415  0.00  0.00    -0.000 A 
ATOM     28  C   UNL     1       5.018   0.242  23.132  0.00  0.00    -0.000 A 
ATOM     29  C   UNL     1       4.612   0.865  22.776  0.00  0.00    -0.000 A 
ATOM     30  C   UNL     1       3.791   0.836  22.702  0.00  0.00    -0.003 A 
ENDBRANCH  24  25
ENDBRANCH  23  24
ENDBRANCH  19  23
TORSDOF 6
ENDMDL
MODEL 2
REMARK VINA RESULT:      -9.1      1.245      7.210
REMARK  Name = 
REMARK  6 active torsions:
REMARK  status: ('A' for Active; 'I' for Inactive)
REMARK    1  A    between atoms: O_2  and  C_3
REMARK    2  A    between atoms: C_6  and  C_9
REMARK    3  A    between atoms: N_14  and  C_15
REMARK    4  A    between atoms: C_19  and  N_23
REMARK    5  A    between atoms: N_23  and  C_24
REMARK    6  A    between atoms: C_24  and  C_25
REMARK                            x       y       z     vdW  Elec       q    Type
REMARK                         _______ _______ _______ _____ _____    ______ ____
ROOT
ATOM     15  C   UNL     1      -0.517   1.057  24.242  0.00  0.00    +0.154 C 
ATOM     16  C   UNL     1      -0.969   0.368  24.274  0.00  0.00    +0.166 C 
ATOM     17  O   UNL     1      -1.763   0.587  24.315  0.00  0.00    -0.350 OA
ATOM     18  C   UNL     1      -1.802   1.410  24.308  0.00  0.00    +0.162 C 
ATOM     19  C   UNL     1      -2.316   2.055  24.328  0.00  0.00    +0.132 C 
ATOM     20  C   UNL     1      -1.864   2.744  24.296  0.00  0.00    +0.162 C 
ATOM     21  O   UNL     1      -1.070   2.525  24.255  0.00  0.00    -0.350 OA
ATOM     22  C   UNL     1      -1.031   1.701  24.262  0.00  0.00    +0.166 C 
ENDROOT
BRANCH  15  14
ATOM      9  C   UNL     1       1.936   0.241  23.021  0.00  0.00    +0.086 A 
ATOM     10  C   UNL     1       1.516  -0.243  22.501  0.00  0.00    +0.040 A 
ATOM     11  C   UNL     1       0.693  -0.281  22.546  0.00  0.00    +0.103 A 
ATOM     12  N   UNL     1       0.289   0.165  23.111  0.00  0.00    -0.211 NA
ATOM     13  C   UNL     1       0.710   0.649  23.631  0.00  0.00    +0.237 A 
ATOM     14  N   UNL     1       0.306   1.095  24.196  0.00  0.00    -0.200 NA
ATOM     31  N   UNL     1       1.532   0.687  23.586  0.00  0.00    -0.212 NA
BRANCH   9   6
ATOM      3  C   UNL     1       4.405   0.353  22.885  0.00  0.00    +0.139 A 
ATOM      4  C   UNL     1       3.949   1.010  22.680  0.00  0.00    +0.037 A 
ATOM      5  C   UNL     1       3.127   0.973  22.725  0.00  0.00    +0.005 A 
ATOM      6  C   UNL     1       2.758   0.278  22.975  0.00  0.00    +0.018 A 
ATOM      7  C   UNL     1       3.213  -0.379  23.180  0.00  0.00    +0.005 A 
ATOM      8  C   UNL     1       4.036  -0.341  23.135  0.00  0.00    +0.037 A 
BRANCH   3   2
ATOM      1  C   UNL     1       5.687   0.142  23.477  0.00  0.00    +0.252 C 
ATOM      2  O   UNL     1       5.227   0.391  22.839  0.00  0.00    -0.471 OA
ENDBRANCH   3   2
ENDBRANCH   9   6
ENDBRANCH  15  14
BRANCH  19  23
ATOM     23  N   UNL     1      -3.139   2.017  24.374  0.00  0.00    -0.210 NA
BRANCH  23  24
ATOM     24  C   UNL     1      -3.572   2.688  24.580  0.00  0.00    +0.115 C 
BRANCH  24  25
ATOM     25  C   UNL     1      -4.348   2.612  24.852  0.00  0.00    -0.005 A 
ATOM     26  C   UNL     1      -4.835   2.020  24.548  0.00  0.00    -0.003 A 
ATOM     27  C   UNL     1      -5.610   1.942  24.820  0.00  0.00    -0.000 A 
ATOM     28  C   UNL     1      -5.897   2.458  25.397  0.00  0.00    -0.000 A 
ATOM     29  C   UNL     1      -5.410   3.050  25.701  0.00  0.00    -0.000 A 
ATOM     30  C   UNL     1      -4.635   3.127  25.429  0.00  0.00    -0.003 A 
ENDBRANCH  24  25
ENDBRANCH  23  24
ENDBRANCH  19  23
TORSDOF 6
ENDMDL
MODEL 3
REMARK VINA RESULT:      -6.2     17.881     19.700
REMARK  Name = 
REMARK  6 active torsions:
REMARK  status: ('A' for Active; 'I' for Inactive)
REMARK    1  A    between atoms: O_2  and  C_3
REMARK    2  A    between atoms: C_6  and  C_9
REMARK    3  A    between atoms: N_14  and  C_15
REMARK    4  A    between atoms: C_19  and  N_23
REMARK    5  A    between atoms: N_23  and  C_24
REMARK    6  A    between atoms: C_24  and  C_25
REMARK                            x       y       z     vdW  Elec       q    Type
REMARK                         _______ _______ _______ _____ _____    ______ ____
ROOT
ATOM     15  C   UNL     1      17.175  -6.346  25.624  0.00  0.00    +0.154 C 
ATOM     16  C   UNL     1      17.178  -6.540  24.822  0.00  0.00    +0.166 C 
ATOM     17  O   UNL     1      17.150  -5.837  24.391  0.00  0.00    -0.350 OA
ATOM     18  C   UNL     1      17.128  -5.210  24.925  0.00  0.00    +0.162 C 
ATOM     19  C   UNL     1      17.097  -4.388  24.989  0.00  0.00    +0.132 C 
ATOM     20  C   UNL     1      17.094  -4.194  25.791  0.00  0.00    +0.162 C 
ATOM     21  O   UNL     1      17.123  -4.897  26.222  0.00  0.00    -0.350 OA
ATOM     22  C   UNL     1      17.144  -5.525  25.687  0.00  0.00    +0.166 C 
ENDROOT
BRANCH  15  14
ATOM      9  C   UNL     1      16.120  -8.642  26.961  0.00  0.00    +0.086 A 
ATOM     10  C   UNL     1      15.547  -8.720  26.373  0.00  0.00    +0.040 A 
ATOM     11  C   UNL     1      15.523  -8.186  25.745  0.00  0.00    +0.103 A 
ATOM     12  N   UNL     1      16.074  -7.572  25.704  0.00  0.00    -0.211 NA
ATOM     13  C   UNL     1      16.648  -7.494  26.293  0.00  0.00    +0.237 A 
ATOM     14  N   UNL     1      17.198  -6.881  26.252  0.00  0.00    -0.200 NA
ATOM     31  N   UNL     1      16.671  -8.028  26.920  0.00  0.00    -0.212 NA
BRANCH   9   6
ATOM      3  C   UNL     1      16.190 -10.246  28.844  0.00  0.00    +0.139 A 
ATOM      4  C   UNL     1      15.747  -9.553  28.908  0.00  0.00    +0.037 A 
ATOM      5  C   UNL     1      15.724  -9.018  28.281  0.00  0.00    +0.005 A 
ATOM      6  C   UNL     1      16.143  -9.176  27.588  0.00  0.00    +0.018 A 
ATOM      7  C   UNL     1      16.586  -9.869  27.523  0.00  0.00    +0.005 A 
ATOM      8  C   UNL     1      16.609 -10.404  28.151  0.00  0.00    +0.037 A 
BRANCH   3   2
ATOM      1  C   UNL     1      16.384 -10.515  30.233  0.00  0.00    +0.252 C 
ATOM      2  O   UNL     1      16.213 -10.781  29.472  0.00  0.00    -0.471 OA
ENDBRANCH   3   2
ENDBRANCH   9   6
ENDBRANCH  15  14
BRANCH  19  23
ATOM     23  N   UNL     1      17.074  -3.853  24.361  0.00  0.00    -0.210 NA
BRANCH  23  24
ATOM     24  C   UNL     1      16.776  -3.093  24.478  0.00  0.00    +0.115 C 
BRANCH  24  25
ATOM     25  C   UNL     1      16.754  -2.558  23.850  0.00  0.00    -0.005 A 
ATOM     26  C   UNL     1      16.083  -2.510  23.372  0.00  0.00    -0.003 A 
ATOM     27  C   UNL     1      16.061  -1.975  22.744  0.00  0.00    -0.000 A 
ATOM     28  C   UNL     1      16.710  -1.488  22.595  0.00  0.00    -0.000 A 
ATOM     29  C   UNL     1      17.380  -1.536  23.073  0.00  0.00    -0.000 A 
ATOM     30  C   UNL     1      17.403  -2.071  23.700  0.00  0.00    -0.003 A 
ENDBRANCH  24  25
ENDBRANCH  23  24
ENDBRANCH  19  23
TORSDOF 6
ENDMDL
MODEL 4
REMARK VINA RESULT:      -6.0     16.474     17.368
REMARK  Name = 
REMARK  6 active torsions:
REMARK  status: ('A' for Active; 'I' for Inactive)
REMARK    1  A    between atoms: O_2  and  C_3
REMARK    2  A    between atoms: C_6  and  C_9
REMARK    3  A    between atoms: N_14  and  C_15
REMARK    4  A    between atoms: C_19  and  N_23
REMARK    5  A    between atoms: N_23  and  C_24
REMARK    6  A    between atoms: C_24  and  C_25
REMARK                            x       y       z     vdW  Elec       q    Type
REMARK                         _______ _______ _______ _____ _____    ______ ____
ROOT
ATOM     15  C   UNL     1      -4.905 -10.499  12.207  0.00  0.00    +0.154 C 
ATOM     16  C   UNL     1      -5.222 -10.696  12.942  0.00  0.00    +0.166 C 
ATOM     17  O   UNL     1      -4.597 -10.781  13.474  0.00  0.00    -0.350 OA
ATOM     18  C   UNL     1      -3.894 -10.638  13.068  0.00  0.00    +0.162 C 
ATOM     19  C   UNL     1      -3.074 -10.601  13.144  0.00  0.00    +0.132 C 
ATOM     20  C   UNL     1      -2.757 -10.405  12.408  0.00  0.00    +0.162 C 
ATOM     21  O   UNL     1      -3.381 -10.319  11.877  0.00  0.00    -0.350 OA
ATOM     22  C   UNL     1      -4.085 -10.463  12.284  0.00  0.00    +0.166 C 
ENDROOT
BRANCH  15  14
ATOM      9  C   UNL     1      -7.203  -9.426  10.890  0.00  0.00    +0.086 A 
ATOM     10  C   UNL     1      -7.496  -9.162  11.615  0.00  0.00    +0.040 A 
ATOM     11  C   UNL     1      -7.067  -9.299  12.307  0.00  0.00    +0.103 A 
ATOM     12  N   UNL     1      -6.346  -9.699  12.274  0.00  0.00    -0.211 NA
ATOM     13  C   UNL     1      -6.054  -9.963  11.548  0.00  0.00    +0.237 A 
ATOM     14  N   UNL     1      -5.333 -10.363  11.515  0.00  0.00    -0.200 NA
ATOM     31  N   UNL     1      -6.482  -9.826  10.857  0.00  0.00    -0.212 NA
BRANCH   9   6
ATOM      3  C   UNL     1      -8.489  -9.016   8.815  0.00  0.00    +0.139 A 
ATOM      4  C   UNL     1      -8.080  -8.397   9.177  0.00  0.00    +0.037 A 
ATOM      5  C   UNL     1      -7.652  -8.534   9.868  0.00  0.00    +0.005 A 
ATOM      6  C   UNL     1      -7.632  -9.289  10.199  0.00  0.00    +0.018 A 
ATOM      7  C   UNL     1      -8.040  -9.908   9.838  0.00  0.00    +0.005 A 
ATOM      8  C   UNL     1      -8.469  -9.772   9.146  0.00  0.00    +0.037 A 
BRANCH   3   2
ATOM      1  C   UNL     1      -9.738  -8.966   8.124  0.00  0.00    +0.252 C 
ATOM      2  O   UNL     1      -8.918  -8.880   8.124  0.00  0.00    -0.471 OA
ENDBRANCH   3   2
ENDBRANCH   9   6
ENDBRANCH  15  14
BRANCH  19  23
ATOM     23  N   UNL     1      -2.645 -10.738  13.836  0.00  0.00    -0.210 NA
BRANCH  23  24
ATOM     24  C   UNL     1      -2.019 -10.240  14.038  0.00  0.00    +0.115 C 
BRANCH  24  25
ATOM     25  C   UNL     1      -1.669 -10.300  14.784  0.00  0.00    -0.005 A 
ATOM     26  C   UNL     1      -2.051 -10.713  15.387  0.00  0.00    -0.003 A 
ATOM     27  C   UNL     1      -1.702 -10.772  16.132  0.00  0.00    -0.000 A 
ATOM     28  C   UNL     1      -0.970 -10.418  16.273  0.00  0.00    -0.000 A 
ATOM     29  C   UNL     1      -0.589 -10.005  15.670  0.00  0.00    -0.000 A 
ATOM     30  C   UNL     1      -0.938  -9.945  14.925  0.00  0.00    -0.003 A 
ENDBRANCH  24  25
ENDBRANCH  23  24
ENDBRANCH  19  23
TORSDOF 6
ENDMDL
