MODEL 1
REMARK VINA RESULT:     -11.2      0.000      0.000
REMARK  Name = 
REMARK  5 active torsions:
REMARK  status: ('A' for Active; 'I' for Inactive)
REMARK    1  A    between atoms: C_5  and  C_8
REMARK    2  A    between atoms: N_10  and  C_11
REMARK    3  A    between atoms: C_11  and  C_12
REMARK    4  A    between atoms: C_14  and  C_15
REMARK    5  A    between atoms: C_15  and  C_16
REMARK                            x       y       z     vdW  Elec       q    Type
REMARK                         _______ _______ _______ _____ _____    ______ ____
ROOT
ATOM     12  C   UNL     1      -4.696   3.249  25.617  0.00  0.00    +0.170 C 
ATOM     13  O   UNL     1      -4.434   2.556  25.254  0.00  0.00    -0.351 OA
ATOM     14  C   UNL     1      -5.096   2.099  25.070  0.00  0.00    +0.157 C 
ATOM     30  C   UNL     1      -5.767   2.509  25.319  0.00  0.00    +0.212 C 
ATOM     31  O   UNL     1      -6.548   2.254  25.244  0.00  0.00    -0.218 OA
ATOM     32  C   UNL     1      -5.520   3.220  25.657  0.00  0.00    +0.213 C 
ATOM     33  O   UNL     1      -6.010   3.800  25.978  0.00  0.00    -0.218 OA
ENDROOT
BRANCH  12  11
ATOM     11  C   UNL     1      -4.218   3.864  25.891  0.00  0.00    +0.148 C 
BRANCH  11  10
ATOM      8  C   UNL     1      -2.866   4.317  25.963  0.00  0.00    +0.265 C 
ATOM      9  O   UNL     1      -2.955   4.455  26.771  0.00  0.00    -0.268 OA
ATOM     10  N   UNL     1      -3.497   4.022  25.523  0.00  0.00    -0.199 NA
BRANCH   8   5
ATOM      1  C   UNL     1       0.019   4.949  24.490  0.00  0.00    +0.031 C 
ATOM      2  C   UNL     1      -0.702   4.792  24.858  0.00  0.00    -0.022 A 
ATOM      3  C   UNL     1      -1.270   5.386  24.924  0.00  0.00    -0.004 A 
ATOM      4  C   UNL     1      -1.991   5.228  25.293  0.00  0.00    +0.004 A 
ATOM      5  C   UNL     1      -2.144   4.476  25.594  0.00  0.00    +0.055 A 
ATOM      6  C   UNL     1      -1.576   3.881  25.528  0.00  0.00    +0.004 A 
ATOM      7  C   UNL     1      -0.855   4.039  25.160  0.00  0.00    -0.004 A 
ENDBRANCH   8   5
ENDBRANCH  11  10
ENDBRANCH  12  11
BRANCH  14  15
ATOM     15  C   UNL     1      -5.088   1.361  24.702  0.00  0.00    +0.117 C 
BRANCH  15  16
ATOM     16  C   UNL     1      -4.444   1.139  24.235  0.00  0.00    +0.228 C 
ATOM     17  O   UNL     1      -4.134   1.669  23.684  0.00  0.00    -0.275 OA
ATOM     18  N   UNL     1      -4.112   0.389  24.319  0.00  0.00    -0.276 N 
ATOM     19  C   UNL     1      -3.469   0.168  23.852  0.00  0.00    +0.115 C 
ATOM     20  C   UNL     1      -3.137  -0.582  23.936  0.00  0.00    +0.114 C 
ATOM     21  N   UNL     1      -3.447  -1.112  24.487  0.00  0.00    -0.290 N 
ATOM     22  C   UNL     1      -4.091  -0.890  24.954  0.00  0.00    +0.114 C 
ATOM     23  C   UNL     1      -4.423  -0.140  24.870  0.00  0.00    +0.115 C 
ATOM     24  C   UNL     1      -3.115  -1.862  24.570  0.00  0.00    +0.132 A 
ATOM     25  N   UNL     1      -2.472  -2.083  24.103  0.00  0.00    -0.229 NA
ATOM     26  C   UNL     1      -2.140  -2.834  24.188  0.00  0.00    +0.100 A 
ATOM     27  C   UNL     1      -2.451  -3.363  24.739  0.00  0.00    +0.021 A 
ATOM     28  C   UNL     1      -3.094  -3.142  25.206  0.00  0.00    +0.004 A 
ATOM     29  C   UNL     1      -3.426  -2.392  25.122  0.00  0.00    +0.034 A 
ENDBRANCH  15  16
ENDBRANCH  14  15
TORSDOF 5
ENDMDL
MODEL 2
REMARK VINA RESULT:     -11.0      1.870      3.699
REMARK  Name = 
REMARK  5 active torsions:
REMARK  status: ('A' for Active; 'I' for Inactive)
REMARK    1  A    between atoms: C_5  and  C_8
REMARK    2  A    between atoms: N_10  and  C_11
REMARK    3  A    between atoms: C_11  and  C_12
REMARK    4  A    between atoms: C_14  and  C_15
REMARK    5  A    between atoms: C_15  and  C_16
REMARK                            x       y       z     vdW  Elec       q    Type
REMARK                         _______ _______ _______ _____ _____    ______ ____
ROOT
ATOM     12  C   UNL     1      -1.565   3.141  25.282  0.00  0.00    +0.170 C 
ATOM     13  O   UNL     1      -1.476   2.321  25.281  0.00  0.00    -0.351 OA
ATOM     14  C   UNL     1      -0.694   2.149  25.479  0.00  0.00    +0.157 C 
ATOM     30  C   UNL     1      -0.298   2.863  25.601  0.00  0.00    +0.212 C 
ATOM     31  O   UNL     1       0.495   2.948  25.809  0.00  0.00    -0.218 OA
ATOM     32  C   UNL     1      -0.837   3.476  25.479  0.00  0.00    +0.213 C 
ATOM     33  O   UNL     1      -0.676   4.282  25.544  0.00  0.00    -0.218 OA
ENDROOT
BRANCH  12  11
ATOM     11  C   UNL     1      -2.259   3.554  25.114  0.00  0.00    +0.148 C 
BRANCH  11  10
ATOM      8  C   UNL     1      -3.660   3.485  24.844  0.00  0.00    +0.265 C 
ATOM      9  O   UNL     1      -3.596   4.137  24.342  0.00  0.00    -0.268 OA
ATOM     10  N   UNL     1      -2.992   3.194  25.230  0.00  0.00    -0.199 NA
BRANCH   8   5
ATOM      1  C   UNL     1      -6.592   2.043  25.308  0.00  0.00    +0.031 C 
ATOM      2  C   UNL     1      -5.860   2.404  25.192  0.00  0.00    -0.022 A 
ATOM      3  C   UNL     1      -5.657   3.075  25.625  0.00  0.00    -0.004 A 
ATOM      4  C   UNL     1      -4.924   3.436  25.510  0.00  0.00    +0.004 A 
ATOM      5  C   UNL     1      -4.394   3.125  24.960  0.00  0.00    +0.055 A 
ATOM      6  C   UNL     1      -4.596   2.452  24.526  0.00  0.00    +0.004 A 
ATOM      7  C   UNL     1      -5.329   2.092  24.642  0.00  0.00    -0.004 A 
ENDBRANCH   8   5
ENDBRANCH  11  10
ENDBRANCH  12  11
BRANCH  14  15
ATOM     15  C   UNL     1      -0.365   1.395  25.542  0.00  0.00    +0.117 C 
BRANCH  15  16
ATOM     16  C   UNL     1      -0.368   0.887  24.892  0.00  0.00    +0.228 C 
ATOM     17  O   UNL     1       0.127   1.037  24.250  0.00  0.00    -0.275 OA
ATOM     18  N   UNL     1      -0.865   0.229  24.885  0.00  0.00    -0.276 N 
ATOM     19  C   UNL     1      -0.868  -0.279  24.235  0.00  0.00    +0.115 C 
ATOM     20  C   UNL     1      -1.365  -0.937  24.228  0.00  0.00    +0.114 C 
ATOM     21  N   UNL     1      -1.861  -1.087  24.871  0.00  0.00    -0.290 N 
ATOM     22  C   UNL     1      -1.857  -0.579  25.521  0.00  0.00    +0.114 C 
ATOM     23  C   UNL     1      -1.360   0.079  25.528  0.00  0.00    +0.115 C 
ATOM     24  C   UNL     1      -2.358  -1.745  24.863  0.00  0.00    +0.132 A 
ATOM     25  N   UNL     1      -2.361  -2.253  24.214  0.00  0.00    -0.229 NA
ATOM     26  C   UNL     1      -2.859  -2.911  24.207  0.00  0.00    +0.100 A 
ATOM     27  C   UNL     1      -3.353  -3.061  24.850  0.00  0.00    +0.021 A 
ATOM     28  C   UNL     1      -3.351  -2.553  25.500  0.00  0.00    +0.004 A 
ATOM     29  C   UNL     1      -2.853  -1.895  25.507  0.00  0.00    +0.034 A 
ENDBRANCH  15  16
ENDBRANCH  14  15
TORSDOF 5
ENDMDL
MODEL 3
REMARK VINA RESULT:     -10.3      2.592      6.293
REMARK  Name = 
REMARK  5 active torsions:
REMARK  status: ('A' for Active; 'I' for Inactive)
REMARK    1  A    between atoms: C_5  and  C_8
REMARK    2  A    between atoms: N_10  and  C_11
REMARK    3  A    between atoms: C_11  and  C_12
REMARK    4  A    between atoms: C_14  and  C_15
REMARK    5  A    between atoms: C_15  and  C_16
REMARK                            x       y       z     vdW  Elec       q    Type
REMARK                         _______ _______ _______ _____ _____    ______ ____
ROOT
ATOM     12  C   UNL     1       0.008  -0.140  24.198  0.00  0.00    +0.170 C 
ATOM     13  O   UNL     1      -0.356   0.563  24.428  0.00  0.00    -0.351 OA
ATOM     14  C   UNL     1       0.080   1.191  24.117  0.00  0.00    +0.157 C 
ATOM     30  C   UNL     1       0.714   0.876  23.694  0.00  0.00    +0.212 C 
ATOM     31  O   UNL     1       1.291   1.306  23.292  0.00  0.00    -0.218 OA
ATOM     32  C   UNL     1       0.670   0.053  23.744  0.00  0.00    +0.213 C 
ATOM     33  O   UNL     1       1.195  -0.482  23.402  0.00  0.00    -0.218 OA
ENDROOT
BRANCH  12  11
ATOM     11  C   UNL     1      -0.244  -0.902  24.389  0.00  0.00    +0.148 C 
BRANCH  11  10
ATOM      8  C   UNL     1      -1.362  -1.735  24.697  0.00  0.00    +0.265 C 
ATOM      9  O   UNL     1      -0.912  -2.131  25.263  0.00  0.00    -0.268 OA
ATOM     10  N   UNL     1      -1.029  -1.121  24.260  0.00  0.00    -0.199 NA
BRANCH   8   5
ATOM      1  C   UNL     1      -4.501  -2.612  24.179  0.00  0.00    +0.031 C 
ATOM      2  C   UNL     1      -3.717  -2.393  24.309  0.00  0.00    -0.022 A 
ATOM      3  C   UNL     1      -3.544  -1.667  24.658  0.00  0.00    -0.004 A 
ATOM      4  C   UNL     1      -2.760  -1.447  24.788  0.00  0.00    +0.004 A 
ATOM      5  C   UNL     1      -2.148  -1.954  24.567  0.00  0.00    +0.055 A 
ATOM      6  C   UNL     1      -2.321  -2.682  24.217  0.00  0.00    +0.004 A 
ATOM      7  C   UNL     1      -3.105  -2.901  24.088  0.00  0.00    -0.004 A 
ENDBRANCH   8   5
ENDBRANCH  11  10
ENDBRANCH  12  11
BRANCH  14  15
ATOM     15  C   UNL     1      -0.089   1.993  24.212  0.00  0.00    +0.117 C 
BRANCH  15  16
ATOM     16  C   UNL     1      -0.363   2.274  24.937  0.00  0.00    +0.228 C 
ATOM     17  O   UNL     1       0.134   2.268  25.596  0.00  0.00    -0.275 OA
ATOM     18  N   UNL     1      -1.134   2.561  25.004  0.00  0.00    -0.276 N 
ATOM     19  C   UNL     1      -1.408   2.842  25.729  0.00  0.00    +0.115 C 
ATOM     20  C   UNL     1      -2.178   3.129  25.796  0.00  0.00    +0.114 C 
ATOM     21  N   UNL     1      -2.675   3.135  25.138  0.00  0.00    -0.290 N 
ATOM     22  C   UNL     1      -2.401   2.853  24.412  0.00  0.00    +0.114 C 
ATOM     23  C   UNL     1      -1.630   2.567  24.345  0.00  0.00    +0.115 C 
ATOM     24  C   UNL     1      -3.445   3.422  25.205  0.00  0.00    +0.132 A 
ATOM     25  N   UNL     1      -3.719   3.703  25.930  0.00  0.00    -0.229 NA
ATOM     26  C   UNL     1      -4.491   3.990  25.996  0.00  0.00    +0.100 A 
ATOM     27  C   UNL     1      -4.986   3.995  25.338  0.00  0.00    +0.021 A 
ATOM     28  C   UNL     1      -4.713   3.714  24.612  0.00  0.00    +0.004 A 
ATOM     29  C   UNL     1      -3.942   3.427  24.546  0.00  0.00    +0.034 A 
ENDBRANCH  15  16
ENDBRANCH  14  15
TORSDOF 5
ENDMDL
MODEL 4
REMARK VINA RESULT:     -10.0      3.252      5.034
REMARK  Name = 
REMARK  5 active torsions:
REMARK  status: ('A' for Active; 'I' for Inactive)
REMARK    1  A    between atoms: C_5  and  C_8
REMARK    2  A    between atoms: N_10  and  C_11
REMARK    3  A    between atoms: C_11  and  C_12
REMARK    4  A    between atoms: C_14  and  C_15
REMARK    5  A    between atoms: C_15  and  C_16
REMARK                            x       y       z     vdW  Elec       q    Type
REMARK                         _______ _______ _______ _____ _____    ______ ____
ROOT
ATOM     12  C   UNL     1      -3.404  -0.610  24.752  0.00  0.00    +0.170 C 
ATOM     13  O   UNL     1      -2.714  -0.285  24.440  0.00  0.00    -0.351 OA
ATOM     14  C   UNL     1      -2.116  -0.851  24.498  0.00  0.00    +0.157 C 
ATOM     30  C   UNL     1      -2.438  -1.526  24.846  0.00  0.00    +0.212 C 
ATOM     31  O   UNL     1      -2.035  -2.227  25.009  0.00  0.00    -0.218 OA
ATOM     32  C   UNL     1      -3.234  -1.377  25.004  0.00  0.00    +0.213 C 
ATOM     33  O   UNL     1      -3.766  -1.902  25.352  0.00  0.00    -0.218 OA
ENDROOT
BRANCH  12  11
ATOM     11  C   UNL     1      -4.137  -0.234  24.805  0.00  0.00    +0.148 C 
BRANCH  11  10
ATOM      8  C   UNL     1      -4.891   0.977  24.883  0.00  0.00    +0.265 C 
ATOM      9  O   UNL     1      -5.569   0.571  24.647  0.00  0.00    -0.268 OA
ATOM     10  N   UNL     1      -4.176   0.575  24.962  0.00  0.00    -0.199 NA
BRANCH   8   5
ATOM      1  C   UNL     1      -5.043   4.213  25.511  0.00  0.00    +0.031 C 
ATOM      2  C   UNL     1      -5.005   3.405  25.354  0.00  0.00    -0.022 A 
ATOM      3  C   UNL     1      -5.450   2.876  25.804  0.00  0.00    -0.004 A 
ATOM      4  C   UNL     1      -5.412   2.067  25.647  0.00  0.00    +0.004 A 
ATOM      5  C   UNL     1      -4.929   1.787  25.040  0.00  0.00    +0.055 A 
ATOM      6  C   UNL     1      -4.483   2.316  24.590  0.00  0.00    +0.004 A 
ATOM      7  C   UNL     1      -4.522   3.125  24.747  0.00  0.00    -0.004 A 
ENDBRANCH   8   5
ENDBRANCH  11  10
ENDBRANCH  12  11
BRANCH  14  15
ATOM     15  C   UNL     1      -1.335  -0.758  24.250  0.00  0.00    +0.117 C 
BRANCH  15  16
ATOM     16  C   UNL     1      -0.929  -0.059  24.417  0.00  0.00    +0.228 C 
ATOM     17  O   UNL     1      -1.264   0.501  24.922  0.00  0.00    -0.275 OA
ATOM     18  N   UNL     1      -0.189   0.079  24.080  0.00  0.00    -0.276 N 
ATOM     19  C   UNL     1       0.216   0.777  24.247  0.00  0.00    +0.115 C 
ATOM     20  C   UNL     1       0.956   0.916  23.910  0.00  0.00    +0.114 C 
ATOM     21  N   UNL     1       1.291   0.355  23.405  0.00  0.00    -0.290 N 
ATOM     22  C   UNL     1       0.885  -0.343  23.238  0.00  0.00    +0.114 C 
ATOM     23  C   UNL     1       0.145  -0.482  23.575  0.00  0.00    +0.115 C 
ATOM     24  C   UNL     1       2.031   0.494  23.068  0.00  0.00    +0.132 A 
ATOM     25  N   UNL     1       2.436   1.192  23.235  0.00  0.00    -0.229 NA
ATOM     26  C   UNL     1       3.177   1.330  22.897  0.00  0.00    +0.100 A 
ATOM     27  C   UNL     1       3.510   0.770  22.393  0.00  0.00    +0.021 A 
ATOM     28  C   UNL     1       3.105   0.071  22.225  0.00  0.00    +0.004 A 
ATOM     29  C   UNL     1       2.365  -0.067  22.563  0.00  0.00    +0.034 A 
ENDBRANCH  15  16
ENDBRANCH  14  15
TORSDOF 5
ENDMDL
MODEL 5
REMARK VINA RESULT:      -9.7      4.161      6.171
REMARK  Name = 
REMARK  5 active torsions:
REMARK  status: ('A' for Active; 'I' for Inactive)
REMARK    1  A    between atoms: C_5  and  C_8
REMARK    2  A    between atoms: N_10  and  C_11
REMARK    3  A    between atoms: C_11  and  C_12
REMARK    4  A    between atoms: C_14  and  C_15
REMARK    5  A    between atoms: C_15  and  C_16
REMARK                            x       y       z     vdW  Elec       q    Type
REMARK                         _______ _______ _______ _____ _____    ______ ____
ROOT
ATOM     12  C   UNL     1       0.435   0.032  23.443  0.00  0.00    +0.170 C 
ATOM     13  O   UNL     1       0.116   0.707  23.793  0.00  0.00    -0.351 OA
ATOM     14  C   UNL     1      -0.472   0.468  24.321  0.00  0.00    +0.157 C 
ATOM     30  C   UNL     1      -0.516  -0.355  24.297  0.00  0.00    +0.212 C 
ATOM     31  O   UNL     1      -1.030  -0.827  24.737  0.00  0.00    -0.218 OA
ATOM     32  C   UNL     1       0.044  -0.625  23.754  0.00  0.00    +0.213 C 
ATOM     33  O   UNL     1       0.188  -1.412  23.557  0.00  0.00    -0.218 OA
ENDROOT
BRANCH  12  11
ATOM     11  C   UNL     1       1.038   0.017  22.880  0.00  0.00    +0.148 C 
BRANCH  11  10
ATOM      8  C   UNL     1       2.426   0.095  22.553  0.00  0.00    +0.265 C 
ATOM      9  O   UNL     1       2.242   0.021  21.752  0.00  0.00    -0.268 OA
ATOM     10  N   UNL     1       1.825   0.093  23.116  0.00  0.00    -0.199 NA
BRANCH   8   5
ATOM      1  C   UNL     1       5.573   0.402  23.499  0.00  0.00    +0.031 C 
ATOM      2  C   UNL     1       4.787   0.326  23.263  0.00  0.00    -0.022 A 
ATOM      3  C   UNL     1       4.387  -0.385  23.386  0.00  0.00    -0.004 A 
ATOM      4  C   UNL     1       3.600  -0.462  23.149  0.00  0.00    +0.004 A 
ATOM      5  C   UNL     1       3.213   0.172  22.790  0.00  0.00    +0.055 A 
ATOM      6  C   UNL     1       3.614   0.883  22.666  0.00  0.00    +0.004 A 
ATOM      7  C   UNL     1       4.400   0.960  22.903  0.00  0.00    -0.004 A 
ENDBRANCH   8   5
ENDBRANCH  11  10
ENDBRANCH  12  11
BRANCH  14  15
ATOM     15  C   UNL     1      -0.934   0.965  24.790  0.00  0.00    +0.117 C 
BRANCH  15  16
ATOM     16  C   UNL     1      -1.117   1.727  24.530  0.00  0.00    +0.228 C 
ATOM     17  O   UNL     1      -0.558   2.163  24.108  0.00  0.00    -0.275 OA
ATOM     18  N   UNL     1      -1.858   2.051  24.690  0.00  0.00    -0.276 N 
ATOM     19  C   UNL     1      -2.041   2.812  24.430  0.00  0.00    +0.115 C 
ATOM     20  C   UNL     1      -2.782   3.136  24.591  0.00  0.00    +0.114 C 
ATOM     21  N   UNL     1      -3.341   2.699  25.012  0.00  0.00    -0.290 N 
ATOM     22  C   UNL     1      -3.158   1.938  25.273  0.00  0.00    +0.114 C 
ATOM     23  C   UNL     1      -2.417   1.613  25.112  0.00  0.00    +0.115 C 
ATOM     24  C   UNL     1      -4.082   3.024  25.173  0.00  0.00    +0.132 A 
ATOM     25  N   UNL     1      -4.265   3.785  24.913  0.00  0.00    -0.229 NA
ATOM     26  C   UNL     1      -5.006   4.109  25.074  0.00  0.00    +0.100 A 
ATOM     27  C   UNL     1      -5.564   3.671  25.495  0.00  0.00    +0.021 A 
ATOM     28  C   UNL     1      -5.382   2.911  25.756  0.00  0.00    +0.004 A 
ATOM     29  C   UNL     1      -4.641   2.586  25.595  0.00  0.00    +0.034 A 
ENDBRANCH  15  16
ENDBRANCH  14  15
TORSDOF 5
ENDMDL
MODEL 6
REMARK VINA RESULT:      -9.3      2.334      5.470
REMARK  Name = 
REMARK  5 active torsions:
REMARK  status: ('A' for Active; 'I' for Inactive)
REMARK    1  A    between atoms: C_5  and  C_8
REMARK    2  A    between atoms: N_10  and  C_11
REMARK    3  A    between atoms: C_11  and  C_12
REMARK    4  A    between atoms: C_14  and  C_15
REMARK    5  A    between atoms: C_15  and  C_16
REMARK                            x       y       z     vdW  Elec       q    Type
REMARK                         _______ _______ _______ _____ _____    ______ ____
ROOT
ATOM     12  C   UNL     1      -2.673  -1.070  24.913  0.00  0.00    +0.170 C 
ATOM     13  O   UNL     1      -2.085  -0.493  24.953  0.00  0.00    -0.351 OA
ATOM     14  C   UNL     1      -1.356  -0.874  25.019  0.00  0.00    +0.157 C 
ATOM     30  C   UNL     1      -1.493  -1.688  25.020  0.00  0.00    +0.212 C 
ATOM     31  O   UNL     1      -0.918  -2.276  25.076  0.00  0.00    -0.218 OA
ATOM     32  C   UNL     1      -2.307  -1.809  24.955  0.00  0.00    +0.213 C 
ATOM     33  O   UNL     1      -2.687  -2.540  24.934  0.00  0.00    -0.218 OA
ENDROOT
BRANCH  12  11
ATOM     11  C   UNL     1      -3.483  -0.934  24.844  0.00  0.00    +0.148 C 
BRANCH  11  10
ATOM      8  C   UNL     1      -4.503   0.054  24.692  0.00  0.00    +0.265 C 
ATOM      9  O   UNL     1      -4.902  -0.438  24.163  0.00  0.00    -0.268 OA
ATOM     10  N   UNL     1      -3.795  -0.194  25.032  0.00  0.00    -0.199 NA
BRANCH   8   5
ATOM      1  C   UNL     1      -5.748   3.016  25.443  0.00  0.00    +0.031 C 
ATOM      2  C   UNL     1      -5.437   2.276  25.255  0.00  0.00    -0.022 A 
ATOM      3  C   UNL     1      -5.778   1.594  25.569  0.00  0.00    -0.004 A 
ATOM      4  C   UNL     1      -5.467   0.853  25.382  0.00  0.00    +0.004 A 
ATOM      5  C   UNL     1      -4.815   0.795  24.880  0.00  0.00    +0.055 A 
ATOM      6  C   UNL     1      -4.474   1.478  24.565  0.00  0.00    +0.004 A 
ATOM      7  C   UNL     1      -4.785   2.218  24.753  0.00  0.00    -0.004 A 
ENDBRANCH   8   5
ENDBRANCH  11  10
ENDBRANCH  12  11
BRANCH  14  15
ATOM     15  C   UNL     1      -0.620  -0.506  25.074  0.00  0.00    +0.117 C 
BRANCH  15  16
ATOM     16  C   UNL     1      -0.360  -0.009  24.468  0.00  0.00    +0.228 C 
ATOM     17  O   UNL     1      -0.028  -0.331  23.785  0.00  0.00    -0.275 OA
ATOM     18  N   UNL     1      -0.432   0.809  24.546  0.00  0.00    -0.276 N 
ATOM     19  C   UNL     1      -0.173   1.305  23.941  0.00  0.00    +0.115 C 
ATOM     20  C   UNL     1      -0.245   2.123  24.018  0.00  0.00    +0.114 C 
ATOM     21  N   UNL     1      -0.577   2.445  24.701  0.00  0.00    -0.290 N 
ATOM     22  C   UNL     1      -0.837   1.948  25.307  0.00  0.00    +0.114 C 
ATOM     23  C   UNL     1      -0.765   1.130  25.229  0.00  0.00    +0.115 C 
ATOM     24  C   UNL     1      -0.649   3.263  24.778  0.00  0.00    +0.132 A 
ATOM     25  N   UNL     1      -0.390   3.760  24.173  0.00  0.00    -0.229 NA
ATOM     26  C   UNL     1      -0.462   4.578  24.251  0.00  0.00    +0.100 A 
ATOM     27  C   UNL     1      -0.794   4.899  24.935  0.00  0.00    +0.021 A 
ATOM     28  C   UNL     1      -1.054   4.403  25.540  0.00  0.00    +0.004 A 
ATOM     29  C   UNL     1      -0.982   3.585  25.462  0.00  0.00    +0.034 A 
ENDBRANCH  15  16
ENDBRANCH  14  15
TORSDOF 5
ENDMDL
