MODEL 1
REMARK VINA RESULT:     -12.9      0.000      0.000
REMARK  Name = 
REMARK  5 active torsions:
REMARK  status: ('A' for Active; 'I' for Inactive)
REMARK    1  A    between atoms: C_2  and  C_3
REMARK    2  A    between atoms: C_6  and  C_7
REMARK    3  A    between atoms: C_7  and  N_8
REMARK    4  A    between atoms: C_13  and  C_14
REMARK    5  A    between atoms: C_16  and  C_19
REMARK                            x       y       z     vdW  Elec       q    Type
REMARK                         _______ _______ _______ _____ _____    ______ ____
ROOT
ATOM      8  N   UNL     1      -3.506   2.499  24.937  0.00  0.00    -0.254 NA
ATOM      9  C   UNL     1      -3.715   3.237  25.239  0.00  0.00    +0.121 C 
ATOM     10  C   UNL     1      -4.508   3.419  25.374  0.00  0.00    +0.090 A 
ATOM     11  C   UNL     1      -5.093   2.862  25.207  0.00  0.00    +0.077 A 
ATOM     12  C   UNL     1      -4.884   2.122  24.905  0.00  0.00    +0.073 C 
ATOM     13  C   UNL     1      -4.091   1.942  24.770  0.00  0.00    +0.144 C 
ATOM     27  N   UNL     1      -5.823   3.195  25.395  0.00  0.00    -0.227 NA
ATOM     28  C   UNL     1      -5.691   3.958  25.678  0.00  0.00    +0.198 A 
ATOM     29  N   UNL     1      -4.878   4.096  25.665  0.00  0.00    -0.226 NA
ENDROOT
BRANCH  13  14
ATOM     14  C   UNL     1      -3.883   1.203  24.468  0.00  0.00    +0.251 A 
ATOM     15  N   UNL     1      -3.929   0.484  24.869  0.00  0.00    -0.190 NA
ATOM     16  C   UNL     1      -3.667  -0.111  24.361  0.00  0.00    +0.203 A 
ATOM     17  N   UNL     1      -3.458   0.241  23.645  0.00  0.00    -0.056 NA
ATOM     18  O   UNL     1      -3.592   1.053  23.711  0.00  0.00    -0.336 OA
BRANCH  16  19
ATOM     19  C   UNL     1      -3.621  -0.915  24.538  0.00  0.00    +0.040 A 
ATOM     20  C   UNL     1      -3.210  -1.168  25.207  0.00  0.00    +0.006 A 
ATOM     21  C   UNL     1      -3.165  -1.973  25.383  0.00  0.00    +0.031 A 
ATOM     22  C   UNL     1      -3.530  -2.524  24.891  0.00  0.00    +0.151 A 
ATOM     23  F   UNL     1      -3.485  -3.329  25.067  0.00  0.00    -0.203 F 
ATOM     24  C   UNL     1      -3.941  -2.272  24.222  0.00  0.00    +0.085 A 
ATOM     25 CL   UNL     1      -4.307  -2.823  23.728  0.00  0.00    -0.080 Cl
ATOM     26  C   UNL     1      -3.987  -1.467  24.045  0.00  0.00    +0.017 A 
ENDBRANCH  16  19
ENDBRANCH  13  14
BRANCH   8   7
ATOM      7  C   UNL     1      -2.713   2.318  24.802  0.00  0.00    +0.138 C 
BRANCH   7   6
ATOM      3  C   UNL     1      -1.268   3.870  25.049  0.00  0.00    +0.156 A 
ATOM      4  C   UNL     1      -1.165   3.444  25.748  0.00  0.00    +0.038 A 
ATOM      5  C   UNL     1      -1.695   2.810  25.740  0.00  0.00    +0.037 A 
ATOM      6  C   UNL     1      -2.124   2.845  25.037  0.00  0.00    +0.139 A 
ATOM     30  O   UNL     1      -1.860   3.500  24.609  0.00  0.00    -0.458 OA
BRANCH   3   2
ATOM      1  O   UNL     1      -1.117   5.290  25.068  0.00  0.00    -0.212 OA
ATOM      2  C   UNL     1      -0.852   4.546  24.828  0.00  0.00    +0.246 C 
ENDBRANCH   3   2
ENDBRANCH   7   6
ENDBRANCH   8   7
TORSDOF 5
ENDMDL
MODEL 2
REMARK VINA RESULT:     -11.6      2.737      4.738
REMARK  Name = 
REMARK  5 active torsions:
REMARK  status: ('A' for Active; 'I' for Inactive)
REMARK    1  A    between atoms: C_2  and  C_3
REMARK    2  A    between atoms: C_6  and  C_7
REMARK    3  A    between atoms: C_7  and  N_8
REMARK    4  A    between atoms: C_13  and  C_14
REMARK    5  A    between atoms: C_16  and  C_19
REMARK                            x       y       z     vdW  Elec       q    Type
REMARK                         _______ _______ _______ _____ _____    ______ ____
ROOT
ATOM      8  N   UNL     1      -2.868  -0.709  24.543  0.00  0.00    -0.254 NA
ATOM      9  C   UNL     1      -2.714  -1.516  24.607  0.00  0.00    +0.121 C 
ATOM     10  C   UNL     1      -3.282  -2.066  24.371  0.00  0.00    +0.090 A 
ATOM     11  C   UNL     1      -4.006  -1.807  24.071  0.00  0.00    +0.077 A 
ATOM     12  C   UNL     1      -4.161  -0.999  24.007  0.00  0.00    +0.073 C 
ATOM     13  C   UNL     1      -3.592  -0.450  24.243  0.00  0.00    +0.144 C 
ATOM     27  N   UNL     1      -4.456  -2.472  23.883  0.00  0.00    -0.227 NA
ATOM     28  C   UNL     1      -4.012  -3.141  24.067  0.00  0.00    +0.198 A 
ATOM     29  N   UNL     1      -3.287  -2.890  24.369  0.00  0.00    -0.226 NA
ENDROOT
BRANCH  13  14
ATOM     14  C   UNL     1      -3.747   0.357  24.179  0.00  0.00    +0.251 A 
ATOM     15  N   UNL     1      -4.133   0.824  24.739  0.00  0.00    -0.190 NA
ATOM     16  C   UNL     1      -4.168   1.595  24.449  0.00  0.00    +0.203 A 
ATOM     17  N   UNL     1      -3.804   1.606  23.710  0.00  0.00    -0.056 NA
ATOM     18  O   UNL     1      -3.543   0.841  23.542  0.00  0.00    -0.336 OA
BRANCH  16  19
ATOM     19  C   UNL     1      -4.508   2.242  24.832  0.00  0.00    +0.040 A 
ATOM     20  C   UNL     1      -5.326   2.279  24.932  0.00  0.00    +0.006 A 
ATOM     21  C   UNL     1      -5.665   2.927  25.316  0.00  0.00    +0.031 A 
ATOM     22  C   UNL     1      -5.187   3.536  25.598  0.00  0.00    +0.151 A 
ATOM     23  F   UNL     1      -5.526   4.183  25.982  0.00  0.00    -0.203 F 
ATOM     24  C   UNL     1      -4.369   3.499  25.498  0.00  0.00    +0.085 A 
ATOM     25 CL   UNL     1      -3.890   4.109  25.781  0.00  0.00    -0.080 Cl
ATOM     26  C   UNL     1      -4.029   2.852  25.115  0.00  0.00    +0.017 A 
ENDBRANCH  16  19
ENDBRANCH  13  14
BRANCH   8   7
ATOM      7  C   UNL     1      -2.300  -0.160  24.780  0.00  0.00    +0.138 C 
BRANCH   7   6
ATOM      3  C   UNL     1      -0.263  -0.528  24.256  0.00  0.00    +0.156 A 
ATOM      4  C   UNL     1      -0.267  -0.753  25.050  0.00  0.00    +0.038 A 
ATOM      5  C   UNL     1      -1.031  -0.643  25.343  0.00  0.00    +0.037 A 
ATOM      6  C   UNL     1      -1.499  -0.350  24.730  0.00  0.00    +0.139 A 
ATOM     30  O   UNL     1      -1.024  -0.279  24.058  0.00  0.00    -0.458 OA
BRANCH   3   2
ATOM      1  O   UNL     1       0.509   0.064  23.209  0.00  0.00    -0.212 OA
ATOM      2  C   UNL     1       0.387  -0.549  23.750  0.00  0.00    +0.246 C 
ENDBRANCH   3   2
ENDBRANCH   7   6
ENDBRANCH   8   7
TORSDOF 5
ENDMDL
MODEL 3
REMARK VINA RESULT:     -11.5      2.626      5.243
REMARK  Name = 
REMARK  5 active torsions:
REMARK  status: ('A' for Active; 'I' for Inactive)
REMARK    1  A    between atoms: C_2  and  C_3
REMARK    2  A    between atoms: C_6  and  C_7
REMARK    3  A    between atoms: C_7  and  N_8
REMARK    4  A    between atoms: C_13  and  C_14
REMARK    5  A    between atoms: C_16  and  C_19
REMARK                            x       y       z     vdW  Elec       q    Type
REMARK                         _______ _______ _______ _____ _____    ______ ____
ROOT
ATOM      8  N   UNL     1      -2.162   0.044  24.495  0.00  0.00    -0.254 NA
ATOM      9  C   UNL     1      -1.526  -0.473  24.586  0.00  0.00    +0.121 C 
ATOM     10  C   UNL     1      -0.783  -0.271  24.291  0.00  0.00    +0.090 A 
ATOM     11  C   UNL     1      -0.676   0.450  23.905  0.00  0.00    +0.077 A 
ATOM     12  C   UNL     1      -1.312   0.968  23.813  0.00  0.00    +0.073 C 
ATOM     13  C   UNL     1      -2.055   0.765  24.109  0.00  0.00    +0.144 C 
ATOM     27  N   UNL     1       0.114   0.501  23.673  0.00  0.00    -0.227 NA
ATOM     28  C   UNL     1       0.495  -0.189  23.916  0.00  0.00    +0.198 A 
ATOM     29  N   UNL     1      -0.059  -0.665  24.298  0.00  0.00    -0.226 NA
ENDROOT
BRANCH  13  14
ATOM     14  C   UNL     1      -2.690   1.283  24.017  0.00  0.00    +0.251 A 
ATOM     15  N   UNL     1      -3.026   1.749  24.608  0.00  0.00    -0.190 NA
ATOM     16  C   UNL     1      -3.645   2.180  24.274  0.00  0.00    +0.203 A 
ATOM     17  N   UNL     1      -3.692   1.980  23.476  0.00  0.00    -0.056 NA
ATOM     18  O   UNL     1      -3.102   1.425  23.316  0.00  0.00    -0.336 OA
BRANCH  16  19
ATOM     19  C   UNL     1      -4.131   2.717  24.670  0.00  0.00    +0.040 A 
ATOM     20  C   UNL     1      -3.911   3.510  24.724  0.00  0.00    +0.006 A 
ATOM     21  C   UNL     1      -4.398   4.046  25.120  0.00  0.00    +0.031 A 
ATOM     22  C   UNL     1      -5.103   3.789  25.461  0.00  0.00    +0.151 A 
ATOM     23  F   UNL     1      -5.590   4.325  25.857  0.00  0.00    -0.203 F 
ATOM     24  C   UNL     1      -5.323   2.996  25.406  0.00  0.00    +0.085 A 
ATOM     25 CL   UNL     1      -6.029   2.738  25.748  0.00  0.00    -0.080 Cl
ATOM     26  C   UNL     1      -4.837   2.459  25.011  0.00  0.00    +0.017 A 
ENDBRANCH  16  19
ENDBRANCH  13  14
BRANCH   8   7
ATOM      7  C   UNL     1      -2.904  -0.159  24.790  0.00  0.00    +0.138 C 
BRANCH   7   6
ATOM      3  C   UNL     1      -3.465  -2.213  24.628  0.00  0.00    +0.156 A 
ATOM      4  C   UNL     1      -3.371  -2.137  25.444  0.00  0.00    +0.038 A 
ATOM      5  C   UNL     1      -3.149  -1.359  25.604  0.00  0.00    +0.037 A 
ATOM      6  C   UNL     1      -3.107  -0.953  24.887  0.00  0.00    +0.139 A 
ATOM     30  O   UNL     1      -3.302  -1.481  24.283  0.00  0.00    -0.458 OA
BRANCH   3   2
ATOM      1  O   UNL     1      -4.372  -2.908  23.770  0.00  0.00    -0.212 OA
ATOM      2  C   UNL     1      -3.684  -2.899  24.226  0.00  0.00    +0.246 C 
ENDBRANCH   3   2
ENDBRANCH   7   6
ENDBRANCH   8   7
TORSDOF 5
ENDMDL
MODEL 4
REMARK VINA RESULT:     -11.3      1.582      2.834
REMARK  Name = 
REMARK  5 active torsions:
REMARK  status: ('A' for Active; 'I' for Inactive)
REMARK    1  A    between atoms: C_2  and  C_3
REMARK    2  A    between atoms: C_6  and  C_7
REMARK    3  A    between atoms: C_7  and  N_8
REMARK    4  A    between atoms: C_13  and  C_14
REMARK    5  A    between atoms: C_16  and  C_19
REMARK                            x       y       z     vdW  Elec       q    Type
REMARK                         _______ _______ _______ _____ _____    ______ ____
ROOT
ATOM      8  N   UNL     1      -2.183   2.036  24.908  0.00  0.00    -0.254 NA
ATOM      9  C   UNL     1      -1.932   2.723  25.287  0.00  0.00    +0.121 C 
ATOM     10  C   UNL     1      -1.208   2.736  25.683  0.00  0.00    +0.090 A 
ATOM     11  C   UNL     1      -0.736   2.060  25.699  0.00  0.00    +0.077 A 
ATOM     12  C   UNL     1      -0.987   1.371  25.320  0.00  0.00    +0.073 C 
ATOM     13  C   UNL     1      -1.711   1.360  24.924  0.00  0.00    +0.144 C 
ATOM     27  N   UNL     1      -0.055   2.235  26.130  0.00  0.00    -0.227 NA
ATOM     28  C   UNL     1      -0.106   3.019  26.379  0.00  0.00    +0.198 A 
ATOM     29  N   UNL     1      -0.818   3.328  26.103  0.00  0.00    -0.226 NA
ENDROOT
BRANCH  13  14
ATOM     14  C   UNL     1      -1.962   0.671  24.545  0.00  0.00    +0.251 A 
ATOM     15  N   UNL     1      -2.338   0.030  24.902  0.00  0.00    -0.190 NA
ATOM     16  C   UNL     1      -2.489  -0.534  24.319  0.00  0.00    +0.203 A 
ATOM     17  N   UNL     1      -2.206  -0.242  23.602  0.00  0.00    -0.056 NA
ATOM     18  O   UNL     1      -1.880   0.504  23.741  0.00  0.00    -0.336 OA
BRANCH  16  19
ATOM     19  C   UNL     1      -2.858  -1.263  24.434  0.00  0.00    +0.040 A 
ATOM     20  C   UNL     1      -2.517  -1.824  24.933  0.00  0.00    +0.006 A 
ATOM     21  C   UNL     1      -2.887  -2.553  25.048  0.00  0.00    +0.031 A 
ATOM     22  C   UNL     1      -3.597  -2.720  24.664  0.00  0.00    +0.151 A 
ATOM     23  F   UNL     1      -3.967  -3.449  24.778  0.00  0.00    -0.203 F 
ATOM     24  C   UNL     1      -3.938  -2.159  24.165  0.00  0.00    +0.085 A 
ATOM     25 CL   UNL     1      -4.649  -2.326  23.780  0.00  0.00    -0.080 Cl
ATOM     26  C   UNL     1      -3.569  -1.430  24.050  0.00  0.00    +0.017 A 
ENDBRANCH  16  19
ENDBRANCH  13  14
BRANCH   8   7
ATOM      7  C   UNL     1      -2.906   2.024  24.512  0.00  0.00    +0.138 C 
BRANCH   7   6
ATOM      3  C   UNL     1      -4.459   3.295  25.242  0.00  0.00    +0.156 A 
ATOM      4  C   UNL     1      -4.220   3.706  24.568  0.00  0.00    +0.038 A 
ATOM      5  C   UNL     1      -3.609   3.280  24.213  0.00  0.00    +0.037 A 
ATOM      6  C   UNL     1      -3.471   2.605  24.667  0.00  0.00    +0.139 A 
ATOM     30  O   UNL     1      -3.997   2.614  25.303  0.00  0.00    -0.458 OA
BRANCH   3   2
ATOM      1  O   UNL     1      -5.505   2.950  26.152  0.00  0.00    -0.212 OA
ATOM      2  C   UNL     1      -5.057   3.523  25.763  0.00  0.00    +0.246 C 
ENDBRANCH   3   2
ENDBRANCH   7   6
ENDBRANCH   8   7
TORSDOF 5
ENDMDL
MODEL 5
REMARK VINA RESULT:     -11.3      1.696      2.974
REMARK  Name = 
REMARK  5 active torsions:
REMARK  status: ('A' for Active; 'I' for Inactive)
REMARK    1  A    between atoms: C_2  and  C_3
REMARK    2  A    between atoms: C_6  and  C_7
REMARK    3  A    between atoms: C_7  and  N_8
REMARK    4  A    between atoms: C_13  and  C_14
REMARK    5  A    between atoms: C_16  and  C_19
REMARK                            x       y       z     vdW  Elec       q    Type
REMARK                         _______ _______ _______ _____ _____    ______ ____
ROOT
ATOM      8  N   UNL     1      -2.237   1.756  24.668  0.00  0.00    -0.254 NA
ATOM      9  C   UNL     1      -1.927   2.485  24.439  0.00  0.00    +0.121 C 
ATOM     10  C   UNL     1      -1.110   2.595  24.408  0.00  0.00    +0.090 A 
ATOM     11  C   UNL     1      -0.603   1.976  24.607  0.00  0.00    +0.077 A 
ATOM     12  C   UNL     1      -0.912   1.245  24.836  0.00  0.00    +0.073 C 
ATOM     13  C   UNL     1      -1.729   1.136  24.866  0.00  0.00    +0.144 C 
ATOM     27  N   UNL     1       0.172   2.245  24.525  0.00  0.00    -0.227 NA
ATOM     28  C   UNL     1       0.145   3.031  24.277  0.00  0.00    +0.198 A 
ATOM     29  N   UNL     1      -0.648   3.247  24.205  0.00  0.00    -0.226 NA
ENDROOT
BRANCH  13  14
ATOM     14  C   UNL     1      -2.038   0.406  25.095  0.00  0.00    +0.251 A 
ATOM     15  N   UNL     1      -2.341  -0.173  24.592  0.00  0.00    -0.190 NA
ATOM     16  C   UNL     1      -2.589  -0.810  25.054  0.00  0.00    +0.203 A 
ATOM     17  N   UNL     1      -2.440  -0.624  25.843  0.00  0.00    -0.056 NA
ATOM     18  O   UNL     1      -2.100   0.127  25.870  0.00  0.00    -0.336 OA
BRANCH  16  19
ATOM     19  C   UNL     1      -2.926  -1.509  24.775  0.00  0.00    +0.040 A 
ATOM     20  C   UNL     1      -2.547  -2.230  24.903  0.00  0.00    +0.006 A 
ATOM     21  C   UNL     1      -2.885  -2.929  24.623  0.00  0.00    +0.031 A 
ATOM     22  C   UNL     1      -3.602  -2.906  24.216  0.00  0.00    +0.151 A 
ATOM     23  F   UNL     1      -3.940  -3.606  23.936  0.00  0.00    -0.203 F 
ATOM     24  C   UNL     1      -3.981  -2.185  24.088  0.00  0.00    +0.085 A 
ATOM     25 CL   UNL     1      -4.698  -2.162  23.680  0.00  0.00    -0.080 Cl
ATOM     26  C   UNL     1      -3.643  -1.486  24.367  0.00  0.00    +0.017 A 
ENDBRANCH  16  19
ENDBRANCH  13  14
BRANCH   8   7
ATOM      7  C   UNL     1      -3.053   1.646  24.699  0.00  0.00    +0.138 C 
BRANCH   7   6
ATOM      3  C   UNL     1      -4.305   3.324  25.115  0.00  0.00    +0.156 A 
ATOM      4  C   UNL     1      -4.362   3.283  24.293  0.00  0.00    +0.038 A 
ATOM      5  C   UNL     1      -3.900   2.648  24.037  0.00  0.00    +0.037 A 
ATOM      6  C   UNL     1      -3.557   2.298  24.701  0.00  0.00    +0.139 A 
ATOM     30  O   UNL     1      -3.808   2.716  25.367  0.00  0.00    -0.458 OA
BRANCH   3   2
ATOM      1  O   UNL     1      -5.494   3.833  25.722  0.00  0.00    -0.212 OA
ATOM      2  C   UNL     1      -4.679   3.877  25.599  0.00  0.00    +0.246 C 
ENDBRANCH   3   2
ENDBRANCH   7   6
ENDBRANCH   8   7
TORSDOF 5
ENDMDL
MODEL 6
REMARK VINA RESULT:     -11.3      2.558      4.252
REMARK  Name = 
REMARK  5 active torsions:
REMARK  status: ('A' for Active; 'I' for Inactive)
REMARK    1  A    between atoms: C_2  and  C_3
REMARK    2  A    between atoms: C_6  and  C_7
REMARK    3  A    between atoms: C_7  and  N_8
REMARK    4  A    between atoms: C_13  and  C_14
REMARK    5  A    between atoms: C_16  and  C_19
REMARK                            x       y       z     vdW  Elec       q    Type
REMARK                         _______ _______ _______ _____ _____    ______ ____
ROOT
ATOM      8  N   UNL     1      -1.519   0.443  24.521  0.00  0.00    -0.254 NA
ATOM      9  C   UNL     1      -0.879  -0.050  24.686  0.00  0.00    +0.121 C 
ATOM     10  C   UNL     1      -1.000  -0.856  24.816  0.00  0.00    +0.090 A 
ATOM     11  C   UNL     1      -1.763  -1.169  24.779  0.00  0.00    +0.077 A 
ATOM     12  C   UNL     1      -2.404  -0.676  24.614  0.00  0.00    +0.073 C 
ATOM     13  C   UNL     1      -2.282   0.129  24.484  0.00  0.00    +0.144 C 
ATOM     27  N   UNL     1      -1.713  -1.978  24.930  0.00  0.00    -0.227 NA
ATOM     28  C   UNL     1      -0.921  -2.165  25.060  0.00  0.00    +0.198 A 
ATOM     29  N   UNL     1      -0.481  -1.471  24.989  0.00  0.00    -0.226 NA
ENDROOT
BRANCH  13  14
ATOM     14  C   UNL     1      -2.923   0.621  24.319  0.00  0.00    +0.251 A 
ATOM     15  N   UNL     1      -3.409   0.989  24.874  0.00  0.00    -0.190 NA
ATOM     16  C   UNL     1      -3.977   1.427  24.466  0.00  0.00    +0.203 A 
ATOM     17  N   UNL     1      -3.842   1.330  23.659  0.00  0.00    -0.056 NA
ATOM     18  O   UNL     1      -3.190   0.832  23.566  0.00  0.00    -0.336 OA
BRANCH  16  19
ATOM     19  C   UNL     1      -4.575   1.882  24.807  0.00  0.00    +0.040 A 
ATOM     20  C   UNL     1      -5.305   1.540  24.981  0.00  0.00    +0.006 A 
ATOM     21  C   UNL     1      -5.903   1.996  25.322  0.00  0.00    +0.031 A 
ATOM     22  C   UNL     1      -5.770   2.793  25.489  0.00  0.00    +0.151 A 
ATOM     23  F   UNL     1      -6.368   3.249  25.830  0.00  0.00    -0.203 F 
ATOM     24  C   UNL     1      -5.040   3.134  25.314  0.00  0.00    +0.085 A 
ATOM     25 CL   UNL     1      -4.907   3.932  25.481  0.00  0.00    -0.080 Cl
ATOM     26  C   UNL     1      -4.442   2.679  24.974  0.00  0.00    +0.017 A 
ENDBRANCH  16  19
ENDBRANCH  13  14
BRANCH   8   7
ATOM      7  C   UNL     1      -1.398   1.248  24.391  0.00  0.00    +0.138 C 
BRANCH   7   6
ATOM      3  C   UNL     1      -0.111   2.257  25.764  0.00  0.00    +0.156 A 
ATOM      4  C   UNL     1       0.353   2.256  25.082  0.00  0.00    +0.038 A 
ATOM      5  C   UNL     1      -0.073   1.877  24.484  0.00  0.00    +0.037 A 
ATOM      6  C   UNL     1      -0.800   1.645  24.797  0.00  0.00    +0.139 A 
ATOM     30  O   UNL     1      -0.824   1.880  25.588  0.00  0.00    -0.458 OA
BRANCH   3   2
ATOM      1  O   UNL     1       0.894   2.608  26.717  0.00  0.00    -0.212 OA
ATOM      2  C   UNL     1       0.100   2.579  26.493  0.00  0.00    +0.246 C 
ENDBRANCH   3   2
ENDBRANCH   7   6
ENDBRANCH   8   7
TORSDOF 5
ENDMDL
MODEL 7
REMARK VINA RESULT:     -11.0      3.337      5.894
REMARK  Name = 
REMARK  5 active torsions:
REMARK  status: ('A' for Active; 'I' for Inactive)
REMARK    1  A    between atoms: C_2  and  C_3
REMARK    2  A    between atoms: C_6  and  C_7
REMARK    3  A    between atoms: C_7  and  N_8
REMARK    4  A    between atoms: C_13  and  C_14
REMARK    5  A    between atoms: C_16  and  C_19
REMARK                            x       y       z     vdW  Elec       q    Type
REMARK                         _______ _______ _______ _____ _____    ______ ____
ROOT
ATOM      8  N   UNL     1      -0.957   0.318  24.823  0.00  0.00    -0.254 NA
ATOM      9  C   UNL     1      -0.799  -0.365  24.389  0.00  0.00    +0.121 C 
ATOM     10  C   UNL     1      -0.169  -0.380  23.856  0.00  0.00    +0.090 A 
ATOM     11  C   UNL     1       0.303   0.290  23.757  0.00  0.00    +0.077 A 
ATOM     12  C   UNL     1       0.145   0.974  24.191  0.00  0.00    +0.073 C 
ATOM     13  C   UNL     1      -0.485   0.988  24.724  0.00  0.00    +0.144 C 
ATOM     27  N   UNL     1       0.881   0.114  23.197  0.00  0.00    -0.227 NA
ATOM     28  C   UNL     1       0.767  -0.665  22.949  0.00  0.00    +0.198 A 
ATOM     29  N   UNL     1       0.118  -0.969  23.357  0.00  0.00    -0.226 NA
ENDROOT
BRANCH  13  14
ATOM     14  C   UNL     1      -0.642   1.672  25.157  0.00  0.00    +0.251 A 
ATOM     15  N   UNL     1      -0.947   2.377  24.858  0.00  0.00    -0.190 NA
ATOM     16  C   UNL     1      -1.016   2.912  25.482  0.00  0.00    +0.203 A 
ATOM     17  N   UNL     1      -0.753   2.537  26.168  0.00  0.00    -0.056 NA
ATOM     18  O   UNL     1      -0.522   1.770  25.968  0.00  0.00    -0.336 OA
BRANCH  16  19
ATOM     19  C   UNL     1      -1.298   3.686  25.429  0.00  0.00    +0.040 A 
ATOM     20  C   UNL     1      -2.045   3.873  25.722  0.00  0.00    +0.006 A 
ATOM     21  C   UNL     1      -2.327   4.648  25.669  0.00  0.00    +0.031 A 
ATOM     22  C   UNL     1      -1.860   5.233  25.323  0.00  0.00    +0.151 A 
ATOM     23  F   UNL     1      -2.142   6.007  25.269  0.00  0.00    -0.203 F 
ATOM     24  C   UNL     1      -1.113   5.045  25.029  0.00  0.00    +0.085 A 
ATOM     25 CL   UNL     1      -0.646   5.631  24.682  0.00  0.00    -0.080 Cl
ATOM     26  C   UNL     1      -0.831   4.271  25.082  0.00  0.00    +0.017 A 
ENDBRANCH  16  19
ENDBRANCH  13  14
BRANCH   8   7
ATOM      7  C   UNL     1      -1.586   0.333  25.355  0.00  0.00    +0.138 C 
BRANCH   7   6
ATOM      3  C   UNL     1      -3.357  -0.725  24.803  0.00  0.00    +0.156 A 
ATOM      4  C   UNL     1      -3.054  -1.217  25.392  0.00  0.00    +0.038 A 
ATOM      5  C   UNL     1      -2.354  -0.880  25.671  0.00  0.00    +0.037 A 
ATOM      6  C   UNL     1      -2.224  -0.181  25.254  0.00  0.00    +0.139 A 
ATOM     30  O   UNL     1      -2.843  -0.084  24.717  0.00  0.00    -0.458 OA
BRANCH   3   2
ATOM      1  O   UNL     1      -4.154  -1.555  23.956  0.00  0.00    -0.212 OA
ATOM      2  C   UNL     1      -4.050  -0.851  24.374  0.00  0.00    +0.246 C 
ENDBRANCH   3   2
ENDBRANCH   7   6
ENDBRANCH   8   7
TORSDOF 5
ENDMDL
