MODEL 1
REMARK VINA RESULT:     -11.9      0.000      0.000
REMARK  Name = 
REMARK  8 active torsions:
REMARK  status: ('A' for Active; 'I' for Inactive)
REMARK    1  A    between atoms: N_2  and  C_3
REMARK    2  A    between atoms: N_2  and  C_24
REMARK    3  A    between atoms: C_3  and  C_4
REMARK    4  A    between atoms: C_6  and  C_7
REMARK    5  A    between atoms: C_7  and  C_8
REMARK    6  A    between atoms: C_10  and  N_11
REMARK    7  A    between atoms: N_11  and  C_12
REMARK    8  A    between atoms: C_12  and  C_13
REMARK                            x       y       z     vdW  Elec       q    Type
REMARK                         _______ _______ _______ _____ _____    ______ ____
ROOT
ATOM      7  C   UNL     1      -4.695   3.007  25.082  0.00  0.00    +0.049 C 
ENDROOT
BRANCH   7   8
ATOM      8  C   UNL     1      -4.680   2.190  24.966  0.00  0.00    +0.009 C 
ATOM      9  C   UNL     1      -4.099   1.640  24.767  0.00  0.00    +0.018 C 
ATOM     10  C   UNL     1      -4.659   1.035  24.803  0.00  0.00    +0.073 C 
ATOM     19  C   UNL     1      -5.241   1.586  25.002  0.00  0.00    +0.015 C 
ATOM     20  C   UNL     1      -5.921   1.127  25.083  0.00  0.00    +0.001 C 
ATOM     21  C   UNL     1      -5.937   1.980  25.203  0.00  0.00    +0.001 C 
BRANCH  10  11
ATOM     11  N   UNL     1      -4.644   0.218  24.687  0.00  0.00    -0.213 NA
BRANCH  11  12
ATOM     12  C   UNL     1      -3.939  -0.156  24.479  0.00  0.00    +0.134 C 
BRANCH  12  13
ATOM     13  C   UNL     1      -3.902  -0.979  24.452  0.00  0.00    +0.077 A 
ATOM     14  N   UNL     1      -4.253  -1.388  23.826  0.00  0.00    -0.247 NA
ATOM     15  C   UNL     1      -4.216  -2.212  23.799  0.00  0.00    +0.098 A 
ATOM     16  C   UNL     1      -3.828  -2.627  24.398  0.00  0.00    +0.021 A 
ATOM     17  C   UNL     1      -3.477  -2.219  25.022  0.00  0.00    +0.003 A 
ATOM     18  C   UNL     1      -3.514  -1.395  25.049  0.00  0.00    +0.016 A 
ENDBRANCH  12  13
ENDBRANCH  11  12
ENDBRANCH  10  11
ENDBRANCH   7   8
BRANCH   7   6
ATOM      4  C   UNL     1      -2.782   3.912  25.364  0.00  0.00    +0.174 A 
ATOM      5  C   UNL     1      -3.371   3.383  25.598  0.00  0.00    +0.055 A 
ATOM      6  C   UNL     1      -3.992   3.439  25.058  0.00  0.00    +0.100 A 
ATOM     22  N   UNL     1      -3.787   4.003  24.491  0.00  0.00    -0.082 NA
ATOM     23  O   UNL     1      -3.040   4.295  24.680  0.00  0.00    -0.356 OA
BRANCH   4   3
ATOM      3  C   UNL     1      -2.062   4.037  25.748  0.00  0.00    +0.159 C 
BRANCH   3   2
ATOM      1  C   UNL     1      -1.190   4.645  24.793  0.00  0.00    +0.113 C 
ATOM      2  N   UNL     1      -1.359   4.030  25.317  0.00  0.00    -0.299 N 
BRANCH   2  24
ATOM     24  C   UNL     1      -0.824   3.409  25.410  0.00  0.00    +0.048 A 
ATOM     25  C   UNL     1      -0.631   3.140  26.165  0.00  0.00    +0.015 A 
ATOM     26  C   UNL     1      -0.096   2.518  26.257  0.00  0.00    +0.001 A 
ATOM     27  C   UNL     1       0.245   2.166  25.594  0.00  0.00    +0.000 A 
ATOM     28  C   UNL     1       0.052   2.436  24.838  0.00  0.00    +0.001 A 
ATOM     29  C   UNL     1      -0.483   3.057  24.746  0.00  0.00    +0.015 A 
ENDBRANCH   2  24
ENDBRANCH   3   2
ENDBRANCH   4   3
ENDBRANCH   7   6
TORSDOF 8
ENDMDL
MODEL 2
REMARK VINA RESULT:     -10.9      1.722      2.428
REMARK  Name = 
REMARK  8 active torsions:
REMARK  status: ('A' for Active; 'I' for Inactive)
REMARK    1  A    between atoms: N_2  and  C_3
REMARK    2  A    between atoms: N_2  and  C_24
REMARK    3  A    between atoms: C_3  and  C_4
REMARK    4  A    between atoms: C_6  and  C_7
REMARK    5  A    between atoms: C_7  and  C_8
REMARK    6  A    between atoms: C_10  and  N_11
REMARK    7  A    between atoms: N_11  and  C_12
REMARK    8  A    between atoms: C_12  and  C_13
REMARK                            x       y       z     vdW  Elec       q    Type
REMARK                         _______ _______ _______ _____ _____    ______ ____
ROOT
ATOM      7  C   UNL     1      -4.755   1.330  24.749  0.00  0.00    +0.049 C 
ENDROOT
BRANCH   7   8
ATOM      8  C   UNL     1      -4.160   0.760  24.785  0.00  0.00    +0.009 C 
ATOM      9  C   UNL     1      -3.377   0.750  25.044  0.00  0.00    +0.018 C 
ATOM     10  C   UNL     1      -3.318  -0.046  24.837  0.00  0.00    +0.073 C 
ATOM     19  C   UNL     1      -4.102  -0.037  24.578  0.00  0.00    +0.015 C 
ATOM     20  C   UNL     1      -4.227  -0.808  24.317  0.00  0.00    +0.001 C 
ATOM     21  C   UNL     1      -4.849  -0.213  24.278  0.00  0.00    +0.001 C 
BRANCH  10  11
ATOM     11  N   UNL     1      -2.722  -0.616  24.874  0.00  0.00    -0.213 NA
BRANCH  11  12
ATOM     12  C   UNL     1      -2.007  -0.442  25.247  0.00  0.00    +0.134 C 
BRANCH  12  13
ATOM     13  C   UNL     1      -1.329  -0.872  25.058  0.00  0.00    +0.077 A 
ATOM     14  N   UNL     1      -0.804  -0.586  24.489  0.00  0.00    -0.247 NA
ATOM     15  C   UNL     1      -0.125  -1.016  24.300  0.00  0.00    +0.098 A 
ATOM     16  C   UNL     1       0.028  -1.732  24.682  0.00  0.00    +0.021 A 
ATOM     17  C   UNL     1      -0.496  -2.017  25.251  0.00  0.00    +0.003 A 
ATOM     18  C   UNL     1      -1.174  -1.587  25.439  0.00  0.00    +0.016 A 
ENDBRANCH  12  13
ENDBRANCH  11  12
ENDBRANCH  10  11
ENDBRANCH   7   8
BRANCH   7   6
ATOM      4  C   UNL     1      -4.084   3.303  25.211  0.00  0.00    +0.174 A 
ATOM      5  C   UNL     1      -4.023   2.605  24.776  0.00  0.00    +0.055 A 
ATOM      6  C   UNL     1      -4.615   2.091  25.035  0.00  0.00    +0.100 A 
ATOM     22  N   UNL     1      -5.041   2.473  25.629  0.00  0.00    -0.082 NA
ATOM     23  O   UNL     1      -4.713   3.222  25.738  0.00  0.00    -0.356 OA
BRANCH   4   3
ATOM      3  C   UNL     1      -3.600   3.967  25.133  0.00  0.00    +0.159 C 
BRANCH   3   2
ATOM      1  C   UNL     1      -3.165   4.011  26.493  0.00  0.00    +0.113 C 
ATOM      2  N   UNL     1      -3.010   4.116  25.689  0.00  0.00    -0.299 N 
BRANCH   2  24
ATOM     24  C   UNL     1      -2.264   4.369  25.443  0.00  0.00    +0.048 A 
ATOM     25  C   UNL     1      -1.631   3.842  25.437  0.00  0.00    +0.015 A 
ATOM     26  C   UNL     1      -0.885   4.095  25.190  0.00  0.00    +0.001 A 
ATOM     27  C   UNL     1      -0.773   4.876  24.951  0.00  0.00    +0.000 A 
ATOM     28  C   UNL     1      -1.408   5.405  24.957  0.00  0.00    +0.001 A 
ATOM     29  C   UNL     1      -2.153   5.150  25.203  0.00  0.00    +0.015 A 
ENDBRANCH   2  24
ENDBRANCH   3   2
ENDBRANCH   4   3
ENDBRANCH   7   6
TORSDOF 8
ENDMDL
MODEL 3
REMARK VINA RESULT:     -10.9      1.450      4.959
REMARK  Name = 
REMARK  8 active torsions:
REMARK  status: ('A' for Active; 'I' for Inactive)
REMARK    1  A    between atoms: N_2  and  C_3
REMARK    2  A    between atoms: N_2  and  C_24
REMARK    3  A    between atoms: C_3  and  C_4
REMARK    4  A    between atoms: C_6  and  C_7
REMARK    5  A    between atoms: C_7  and  C_8
REMARK    6  A    between atoms: C_10  and  N_11
REMARK    7  A    between atoms: N_11  and  C_12
REMARK    8  A    between atoms: C_12  and  C_13
REMARK                            x       y       z     vdW  Elec       q    Type
REMARK                         _______ _______ _______ _____ _____    ______ ____
ROOT
ATOM      7  C   UNL     1      -5.025   1.706  24.789  0.00  0.00    +0.049 C 
ENDROOT
BRANCH   7   8
ATOM      8  C   UNL     1      -4.496   2.331  24.892  0.00  0.00    +0.009 C 
ATOM      9  C   UNL     1      -3.677   2.414  24.851  0.00  0.00    +0.018 C 
ATOM     10  C   UNL     1      -3.748   3.214  25.037  0.00  0.00    +0.073 C 
ATOM     19  C   UNL     1      -4.569   3.131  25.078  0.00  0.00    +0.015 C 
ATOM     20  C   UNL     1      -4.830   3.890  25.268  0.00  0.00    +0.001 C 
ATOM     21  C   UNL     1      -5.382   3.237  25.161  0.00  0.00    +0.001 C 
BRANCH  10  11
ATOM     11  N   UNL     1      -3.219   3.839  25.140  0.00  0.00    -0.213 NA
BRANCH  11  12
ATOM     12  C   UNL     1      -2.468   3.696  25.450  0.00  0.00    +0.134 C 
BRANCH  12  13
ATOM     13  C   UNL     1      -1.832   4.171  25.224  0.00  0.00    +0.077 A 
ATOM     14  N   UNL     1      -1.142   3.825  24.929  0.00  0.00    -0.247 NA
ATOM     15  C   UNL     1      -0.507   4.300  24.703  0.00  0.00    +0.098 A 
ATOM     16  C   UNL     1      -0.561   5.120  24.772  0.00  0.00    +0.021 A 
ATOM     17  C   UNL     1      -1.249   5.466  25.066  0.00  0.00    +0.003 A 
ATOM     18  C   UNL     1      -1.884   4.991  25.292  0.00  0.00    +0.016 A 
ENDBRANCH  12  13
ENDBRANCH  11  12
ENDBRANCH  10  11
ENDBRANCH   7   8
BRANCH   7   6
ATOM      4  C   UNL     1      -4.255  -0.279  24.946  0.00  0.00    +0.174 A 
ATOM      5  C   UNL     1      -4.345   0.428  24.531  0.00  0.00    +0.055 A 
ATOM      6  C   UNL     1      -4.801   0.938  24.993  0.00  0.00    +0.100 A 
ATOM     22  N   UNL     1      -4.992   0.546  25.693  0.00  0.00    -0.082 NA
ATOM     23  O   UNL     1      -4.655  -0.207  25.664  0.00  0.00    -0.356 OA
BRANCH   4   3
ATOM      3  C   UNL     1      -3.838  -0.943  24.689  0.00  0.00    +0.159 C 
BRANCH   3   2
ATOM      1  C   UNL     1      -3.425  -1.291  26.011  0.00  0.00    +0.113 C 
ATOM      2  N   UNL     1      -3.307  -1.319  25.195  0.00  0.00    -0.299 N 
BRANCH   2  24
ATOM     24  C   UNL     1      -2.657  -1.723  24.886  0.00  0.00    +0.048 A 
ATOM     25  C   UNL     1      -2.762  -2.456  24.523  0.00  0.00    +0.015 A 
ATOM     26  C   UNL     1      -2.112  -2.860  24.214  0.00  0.00    +0.001 A 
ATOM     27  C   UNL     1      -1.358  -2.530  24.269  0.00  0.00    +0.000 A 
ATOM     28  C   UNL     1      -1.253  -1.797  24.632  0.00  0.00    +0.001 A 
ATOM     29  C   UNL     1      -1.903  -1.393  24.941  0.00  0.00    +0.015 A 
ENDBRANCH   2  24
ENDBRANCH   3   2
ENDBRANCH   4   3
ENDBRANCH   7   6
TORSDOF 8
ENDMDL
MODEL 4
REMARK VINA RESULT:     -10.5      1.576      3.465
REMARK  Name = 
REMARK  8 active torsions:
REMARK  status: ('A' for Active; 'I' for Inactive)
REMARK    1  A    between atoms: N_2  and  C_3
REMARK    2  A    between atoms: N_2  and  C_24
REMARK    3  A    between atoms: C_3  and  C_4
REMARK    4  A    between atoms: C_6  and  C_7
REMARK    5  A    between atoms: C_7  and  C_8
REMARK    6  A    between atoms: C_10  and  N_11
REMARK    7  A    between atoms: N_11  and  C_12
REMARK    8  A    between atoms: C_12  and  C_13
REMARK                            x       y       z     vdW  Elec       q    Type
REMARK                         _______ _______ _______ _____ _____    ______ ____
ROOT
ATOM      7  C   UNL     1      -0.198   1.397  24.900  0.00  0.00    +0.049 C 
ENDROOT
BRANCH   7   8
ATOM      8  C   UNL     1      -0.645   0.708  24.819  0.00  0.00    +0.009 C 
ATOM      9  C   UNL     1      -1.389   0.462  25.075  0.00  0.00    +0.018 C 
ATOM     10  C   UNL     1      -1.277  -0.266  24.704  0.00  0.00    +0.073 C 
ATOM     19  C   UNL     1      -0.532  -0.020  24.447  0.00  0.00    +0.015 C 
ATOM     20  C   UNL     1      -0.249  -0.670  24.026  0.00  0.00    +0.001 C 
ATOM     21  C   UNL     1       0.218   0.050  24.111  0.00  0.00    +0.001 C 
BRANCH  10  11
ATOM     11  N   UNL     1      -1.724  -0.955  24.622  0.00  0.00    -0.213 NA
BRANCH  11  12
ATOM     12  C   UNL     1      -2.491  -0.987  24.926  0.00  0.00    +0.134 C 
BRANCH  12  13
ATOM     13  C   UNL     1      -3.017  -1.563  24.658  0.00  0.00    +0.077 A 
ATOM     14  N   UNL     1      -2.890  -2.357  24.846  0.00  0.00    -0.247 NA
ATOM     15  C   UNL     1      -3.416  -2.934  24.578  0.00  0.00    +0.098 A 
ATOM     16  C   UNL     1      -4.068  -2.716  24.122  0.00  0.00    +0.021 A 
ATOM     17  C   UNL     1      -4.195  -1.924  23.934  0.00  0.00    +0.003 A 
ATOM     18  C   UNL     1      -3.669  -1.347  24.202  0.00  0.00    +0.016 A 
ENDBRANCH  12  13
ENDBRANCH  11  12
ENDBRANCH  10  11
ENDBRANCH   7   8
BRANCH   7   6
ATOM      4  C   UNL     1      -1.333   3.168  25.262  0.00  0.00    +0.174 A 
ATOM      5  C   UNL     1      -1.139   2.521  24.789  0.00  0.00    +0.055 A 
ATOM      6  C   UNL     1      -0.554   2.088  25.177  0.00  0.00    +0.100 A 
ATOM     22  N   UNL     1      -0.387   2.468  25.890  0.00  0.00    -0.082 NA
ATOM     23  O   UNL     1      -0.869   3.136  25.943  0.00  0.00    -0.356 OA
BRANCH   4   3
ATOM      3  C   UNL     1      -1.895   3.747  25.086  0.00  0.00    +0.159 C 
BRANCH   3   2
ATOM      1  C   UNL     1      -2.440   4.075  26.365  0.00  0.00    +0.113 C 
ATOM      2  N   UNL     1      -2.548   3.852  25.578  0.00  0.00    -0.299 N 
BRANCH   2  24
ATOM     24  C   UNL     1      -3.310   3.733  25.284  0.00  0.00    +0.048 A 
ATOM     25  C   UNL     1      -3.485   3.925  24.502  0.00  0.00    +0.015 A 
ATOM     26  C   UNL     1      -4.247   3.805  24.208  0.00  0.00    +0.001 A 
ATOM     27  C   UNL     1      -4.833   3.494  24.697  0.00  0.00    +0.000 A 
ATOM     28  C   UNL     1      -4.658   3.302  25.481  0.00  0.00    +0.001 A 
ATOM     29  C   UNL     1      -3.896   3.421  25.774  0.00  0.00    +0.015 A 
ENDBRANCH   2  24
ENDBRANCH   3   2
ENDBRANCH   4   3
ENDBRANCH   7   6
TORSDOF 8
ENDMDL
MODEL 5
REMARK VINA RESULT:     -10.4      1.422      3.451
REMARK  Name = 
REMARK  8 active torsions:
REMARK  status: ('A' for Active; 'I' for Inactive)
REMARK    1  A    between atoms: N_2  and  C_3
REMARK    2  A    between atoms: N_2  and  C_24
REMARK    3  A    between atoms: C_3  and  C_4
REMARK    4  A    between atoms: C_6  and  C_7
REMARK    5  A    between atoms: C_7  and  C_8
REMARK    6  A    between atoms: C_10  and  N_11
REMARK    7  A    between atoms: N_11  and  C_12
REMARK    8  A    between atoms: C_12  and  C_13
REMARK                            x       y       z     vdW  Elec       q    Type
REMARK                         _______ _______ _______ _____ _____    ______ ____
ROOT
ATOM      7  C   UNL     1      -0.766   1.894  25.007  0.00  0.00    +0.049 C 
ENDROOT
BRANCH   7   8
ATOM      8  C   UNL     1      -1.054   1.127  24.912  0.00  0.00    +0.009 C 
ATOM      9  C   UNL     1      -1.740   0.729  25.139  0.00  0.00    +0.018 C 
ATOM     10  C   UNL     1      -1.462   0.042  24.777  0.00  0.00    +0.073 C 
ATOM     19  C   UNL     1      -0.775   0.440  24.549  0.00  0.00    +0.015 C 
ATOM     20  C   UNL     1      -0.345  -0.135  24.144  0.00  0.00    +0.001 C 
ATOM     21  C   UNL     1      -0.043   0.666  24.244  0.00  0.00    +0.001 C 
BRANCH  10  11
ATOM     11  N   UNL     1      -1.750  -0.725  24.681  0.00  0.00    -0.213 NA
BRANCH  11  12
ATOM     12  C   UNL     1      -2.453  -0.950  25.051  0.00  0.00    +0.134 C 
BRANCH  12  13
ATOM     13  C   UNL     1      -2.895  -1.578  24.749  0.00  0.00    +0.077 A 
ATOM     14  N   UNL     1      -2.615  -2.352  24.820  0.00  0.00    -0.247 NA
ATOM     15  C   UNL     1      -3.057  -2.980  24.518  0.00  0.00    +0.098 A 
ATOM     16  C   UNL     1      -3.778  -2.834  24.145  0.00  0.00    +0.021 A 
ATOM     17  C   UNL     1      -4.057  -2.062  24.073  0.00  0.00    +0.003 A 
ATOM     18  C   UNL     1      -3.616  -1.434  24.375  0.00  0.00    +0.016 A 
ENDBRANCH  12  13
ENDBRANCH  11  12
ENDBRANCH  10  11
ENDBRANCH   7   8
BRANCH   7   6
ATOM      4  C   UNL     1      -2.351   3.320  25.106  0.00  0.00    +0.174 A 
ATOM      5  C   UNL     1      -2.033   2.583  25.294  0.00  0.00    +0.055 A 
ATOM      6  C   UNL     1      -1.280   2.537  24.957  0.00  0.00    +0.100 A 
ATOM     22  N   UNL     1      -1.135   3.246  24.562  0.00  0.00    -0.082 NA
ATOM     23  O   UNL     1      -1.796   3.731  24.654  0.00  0.00    -0.356 OA
BRANCH   4   3
ATOM      3  C   UNL     1      -3.094   3.600  25.332  0.00  0.00    +0.159 C 
BRANCH   3   2
ATOM      1  C   UNL     1      -3.664   3.896  24.056  0.00  0.00    +0.113 C 
ATOM      2  N   UNL     1      -3.727   3.558  24.806  0.00  0.00    -0.299 N 
BRANCH   2  24
ATOM     24  C   UNL     1      -4.425   3.178  25.029  0.00  0.00    +0.048 A 
ATOM     25  C   UNL     1      -4.820   3.410  25.714  0.00  0.00    +0.015 A 
ATOM     26  C   UNL     1      -5.518   3.031  25.937  0.00  0.00    +0.001 A 
ATOM     27  C   UNL     1      -5.820   2.418  25.474  0.00  0.00    +0.000 A 
ATOM     28  C   UNL     1      -5.425   2.185  24.788  0.00  0.00    +0.001 A 
ATOM     29  C   UNL     1      -4.727   2.566  24.566  0.00  0.00    +0.015 A 
ENDBRANCH   2  24
ENDBRANCH   3   2
ENDBRANCH   4   3
ENDBRANCH   7   6
TORSDOF 8
ENDMDL
MODEL 6
REMARK VINA RESULT:     -10.4      1.840      4.848
REMARK  Name = 
REMARK  8 active torsions:
REMARK  status: ('A' for Active; 'I' for Inactive)
REMARK    1  A    between atoms: N_2  and  C_3
REMARK    2  A    between atoms: N_2  and  C_24
REMARK    3  A    between atoms: C_3  and  C_4
REMARK    4  A    between atoms: C_6  and  C_7
REMARK    5  A    between atoms: C_7  and  C_8
REMARK    6  A    between atoms: C_10  and  N_11
REMARK    7  A    between atoms: N_11  and  C_12
REMARK    8  A    between atoms: C_12  and  C_13
REMARK                            x       y       z     vdW  Elec       q    Type
REMARK                         _______ _______ _______ _____ _____    ______ ____
ROOT
ATOM      7  C   UNL     1      -0.642   2.110  24.226  0.00  0.00    +0.049 C 
ENDROOT
BRANCH   7   8
ATOM      8  C   UNL     1      -1.365   2.462  24.408  0.00  0.00    +0.009 C 
ATOM      9  C   UNL     1      -2.155   2.229  24.362  0.00  0.00    +0.018 C 
ATOM     10  C   UNL     1      -2.389   2.959  24.666  0.00  0.00    +0.073 C 
ATOM     19  C   UNL     1      -1.598   3.193  24.713  0.00  0.00    +0.015 C 
ATOM     20  C   UNL     1      -1.641   3.957  25.020  0.00  0.00    +0.001 C 
ATOM     21  C   UNL     1      -0.885   3.589  24.829  0.00  0.00    +0.001 C 
BRANCH  10  11
ATOM     11  N   UNL     1      -3.113   3.311  24.848  0.00  0.00    -0.213 NA
BRANCH  11  12
ATOM     12  C   UNL     1      -3.807   3.029  24.503  0.00  0.00    +0.134 C 
BRANCH  12  13
ATOM     13  C   UNL     1      -4.518   3.065  24.919  0.00  0.00    +0.077 A 
ATOM     14  N   UNL     1      -4.787   3.787  25.215  0.00  0.00    -0.247 NA
ATOM     15  C   UNL     1      -5.499   3.824  25.630  0.00  0.00    +0.098 A 
ATOM     16  C   UNL     1      -5.942   3.138  25.750  0.00  0.00    +0.021 A 
ATOM     17  C   UNL     1      -5.673   2.416  25.455  0.00  0.00    +0.003 A 
ATOM     18  C   UNL     1      -4.962   2.380  25.039  0.00  0.00    +0.016 A 
ENDBRANCH  12  13
ENDBRANCH  11  12
ENDBRANCH  10  11
ENDBRANCH   7   8
BRANCH   7   6
ATOM      4  C   UNL     1      -0.727  -0.016  24.399  0.00  0.00    +0.174 A 
ATOM      5  C   UNL     1      -1.060   0.702  24.166  0.00  0.00    +0.055 A 
ATOM      6  C   UNL     1      -0.530   1.304  24.361  0.00  0.00    +0.100 A 
ATOM     22  N   UNL     1       0.130   0.957  24.715  0.00  0.00    -0.082 NA
ATOM     23  O   UNL     1       0.008   0.141  24.738  0.00  0.00    -0.356 OA
BRANCH   4   3
ATOM      3  C   UNL     1      -1.069  -0.762  24.309  0.00  0.00    +0.159 C 
BRANCH   3   2
ATOM      1  C   UNL     1      -1.042  -1.076  25.702  0.00  0.00    +0.113 C 
ATOM      2  N   UNL     1      -1.396  -1.147  24.961  0.00  0.00    -0.299 N 
BRANCH   2  24
ATOM     24  C   UNL     1      -2.078  -1.603  24.871  0.00  0.00    +0.048 A 
ATOM     25  C   UNL     1      -2.779  -1.373  25.238  0.00  0.00    +0.015 A 
ATOM     26  C   UNL     1      -3.461  -1.830  25.149  0.00  0.00    +0.001 A 
ATOM     27  C   UNL     1      -3.440  -2.516  24.692  0.00  0.00    +0.000 A 
ATOM     28  C   UNL     1      -2.738  -2.747  24.324  0.00  0.00    +0.001 A 
ATOM     29  C   UNL     1      -2.057  -2.290  24.414  0.00  0.00    +0.015 A 
ENDBRANCH   2  24
ENDBRANCH   3   2
ENDBRANCH   4   3
ENDBRANCH   7   6
TORSDOF 8
ENDMDL
