MODEL 1
REMARK VINA RESULT:      -7.6      0.000      0.000
REMARK  Name = 
REMARK  7 active torsions:
REMARK  status: ('A' for Active; 'I' for Inactive)
REMARK    1  A    between atoms: C_2  and  C_4
REMARK    2  A    between atoms: C_4  and  N_5
REMARK    3  A    between atoms: N_5  and  C_6
REMARK    4  A    between atoms: C_6  and  C_7
REMARK    5  A    between atoms: C_7  and  C_8
REMARK    6  A    between atoms: C_11  and  C_12
REMARK    7  A    between atoms: C_12  and  N_13
REMARK                            x       y       z     vdW  Elec       q    Type
REMARK                         _______ _______ _______ _____ _____    ______ ____
ROOT
ATOM      7  C   UNL     1      -4.447   1.827  24.490  0.00  0.00    +0.070 C 
ENDROOT
BRANCH   7   8
ATOM      8  C   UNL     1      -4.271   1.043  24.678  0.00  0.00    +0.102 A 
ATOM      9  N   UNL     1      -4.531   0.633  25.345  0.00  0.00    -0.082 NA
ATOM     10  O   UNL     1      -4.223  -0.132  25.311  0.00  0.00    -0.357 OA
ATOM     11  C   UNL     1      -3.773  -0.194  24.623  0.00  0.00    +0.170 A 
ATOM     16  C   UNL     1      -3.803   0.531  24.232  0.00  0.00    +0.055 A 
BRANCH  11  12
ATOM     12  C   UNL     1      -3.365  -0.866  24.370  0.00  0.00    +0.141 C 
BRANCH  12  13
ATOM     13  N   UNL     1      -3.708  -1.612  24.453  0.00  0.00    -0.264 NA
ATOM     14  C   UNL     1      -3.514  -2.085  25.100  0.00  0.00    +0.090 C 
ATOM     15  C   UNL     1      -4.244  -1.884  23.888  0.00  0.00    +0.090 C 
ENDBRANCH  12  13
ENDBRANCH  11  12
ENDBRANCH   7   8
BRANCH   7   6
ATOM      6  C   UNL     1      -4.828   2.307  25.043  0.00  0.00    +0.119 C 
ATOM     17  C   UNL     1      -5.209   2.787  25.595  0.00  0.00    +0.161 C 
ATOM     18  O   UNL     1      -5.932   2.443  25.397  0.00  0.00    -0.351 OA
ATOM     19  C   UNL     1      -5.551   1.963  24.844  0.00  0.00    +0.161 C 
BRANCH   6   5
ATOM      5  N   UNL     1      -4.105   2.650  25.241  0.00  0.00    -0.215 NA
BRANCH   5   4
ATOM      4  C   UNL     1      -4.028   3.471  25.258  0.00  0.00    +0.089 C 
BRANCH   4   2
ATOM      1  C   UNL     1      -2.797   4.033  24.797  0.00  0.00    +0.001 C 
ATOM      2  C   UNL     1      -3.295   3.814  25.418  0.00  0.00    +0.017 C 
ATOM      3  C   UNL     1      -3.059   3.938  26.199  0.00  0.00    +0.001 C 
ENDBRANCH   4   2
ENDBRANCH   5   4
ENDBRANCH   6   5
ENDBRANCH   7   6
TORSDOF 7
ENDMDL
MODEL 2
REMARK VINA RESULT:      -7.6      0.954      4.334
REMARK  Name = 
REMARK  7 active torsions:
REMARK  status: ('A' for Active; 'I' for Inactive)
REMARK    1  A    between atoms: C_2  and  C_4
REMARK    2  A    between atoms: C_4  and  N_5
REMARK    3  A    between atoms: N_5  and  C_6
REMARK    4  A    between atoms: C_6  and  C_7
REMARK    5  A    between atoms: C_7  and  C_8
REMARK    6  A    between atoms: C_11  and  C_12
REMARK    7  A    between atoms: C_12  and  N_13
REMARK                            x       y       z     vdW  Elec       q    Type
REMARK                         _______ _______ _______ _____ _____    ______ ____
ROOT
ATOM      7  C   UNL     1      -3.465   0.142  24.286  0.00  0.00    +0.070 C 
ENDROOT
BRANCH   7   8
ATOM      8  C   UNL     1      -3.966   0.729  24.576  0.00  0.00    +0.102 A 
ATOM      9  N   UNL     1      -4.466   0.662  25.229  0.00  0.00    -0.082 NA
ATOM     10  O   UNL     1      -4.865   1.378  25.321  0.00  0.00    -0.357 OA
ATOM     11  C   UNL     1      -4.612   1.888  24.724  0.00  0.00    +0.170 A 
ATOM     16  C   UNL     1      -4.056   1.487  24.264  0.00  0.00    +0.055 A 
BRANCH  11  12
ATOM     12  C   UNL     1      -4.869   2.664  24.607  0.00  0.00    +0.141 C 
BRANCH  12  13
ATOM     13  N   UNL     1      -4.854   3.202  25.234  0.00  0.00    -0.264 NA
ATOM     14  C   UNL     1      -5.520   3.299  25.709  0.00  0.00    +0.090 C 
ATOM     15  C   UNL     1      -4.172   3.641  25.383  0.00  0.00    +0.090 C 
ENDBRANCH  12  13
ENDBRANCH  11  12
ENDBRANCH   7   8
BRANCH   7   6
ATOM      6  C   UNL     1      -2.950  -0.250  24.799  0.00  0.00    +0.119 C 
ATOM     17  C   UNL     1      -2.436  -0.642  25.311  0.00  0.00    +0.161 C 
ATOM     18  O   UNL     1      -1.967   0.035  25.360  0.00  0.00    -0.351 OA
ATOM     19  C   UNL     1      -2.482   0.427  24.847  0.00  0.00    +0.161 C 
BRANCH   6   5
ATOM      5  N   UNL     1      -3.419  -0.927  24.749  0.00  0.00    -0.215 NA
BRANCH   5   4
ATOM      4  C   UNL     1      -3.104  -1.627  24.448  0.00  0.00    +0.089 C 
BRANCH   4   2
ATOM      1  C   UNL     1      -3.499  -2.883  25.004  0.00  0.00    +0.001 C 
ATOM      2  C   UNL     1      -3.567  -2.309  24.416  0.00  0.00    +0.017 C 
ATOM      3  C   UNL     1      -4.100  -2.416  23.795  0.00  0.00    +0.001 C 
ENDBRANCH   4   2
ENDBRANCH   5   4
ENDBRANCH   6   5
ENDBRANCH   7   6
TORSDOF 7
ENDMDL
MODEL 3
REMARK VINA RESULT:      -7.5      1.374      3.990
REMARK  Name = 
REMARK  7 active torsions:
REMARK  status: ('A' for Active; 'I' for Inactive)
REMARK    1  A    between atoms: C_2  and  C_4
REMARK    2  A    between atoms: C_4  and  N_5
REMARK    3  A    between atoms: N_5  and  C_6
REMARK    4  A    between atoms: C_6  and  C_7
REMARK    5  A    between atoms: C_7  and  C_8
REMARK    6  A    between atoms: C_11  and  C_12
REMARK    7  A    between atoms: C_12  and  N_13
REMARK                            x       y       z     vdW  Elec       q    Type
REMARK                         _______ _______ _______ _____ _____    ______ ____
ROOT
ATOM      7  C   UNL     1      -4.007   2.057  24.304  0.00  0.00    +0.070 C 
ENDROOT
BRANCH   7   8
ATOM      8  C   UNL     1      -3.616   2.738  24.558  0.00  0.00    +0.102 A 
ATOM      9  N   UNL     1      -3.809   3.513  24.354  0.00  0.00    -0.082 NA
ATOM     10  O   UNL     1      -3.275   4.017  24.731  0.00  0.00    -0.357 OA
ATOM     11  C   UNL     1      -2.752   3.552  25.168  0.00  0.00    +0.170 A 
ATOM     16  C   UNL     1      -2.963   2.762  25.061  0.00  0.00    +0.055 A 
BRANCH  11  12
ATOM     12  C   UNL     1      -2.127   3.830  25.631  0.00  0.00    +0.141 C 
BRANCH  12  13
ATOM     13  N   UNL     1      -1.473   4.182  25.272  0.00  0.00    -0.264 NA
ATOM     14  C   UNL     1      -1.458   4.996  25.148  0.00  0.00    +0.090 C 
ATOM     15  C   UNL     1      -0.833   3.717  25.037  0.00  0.00    +0.090 C 
ENDBRANCH  12  13
ENDBRANCH  11  12
ENDBRANCH   7   8
BRANCH   7   6
ATOM      6  C   UNL     1      -4.615   1.737  24.761  0.00  0.00    +0.119 C 
ATOM     17  C   UNL     1      -5.222   1.416  25.218  0.00  0.00    +0.161 C 
ATOM     18  O   UNL     1      -5.666   2.103  25.111  0.00  0.00    -0.351 OA
ATOM     19  C   UNL     1      -5.058   2.424  24.654  0.00  0.00    +0.161 C 
BRANCH   6   5
ATOM      5  N   UNL     1      -4.171   1.049  24.868  0.00  0.00    -0.215 NA
BRANCH   5   4
ATOM      4  C   UNL     1      -4.523   0.311  24.771  0.00  0.00    +0.089 C 
BRANCH   4   2
ATOM      1  C   UNL     1      -3.758  -0.660  25.489  0.00  0.00    +0.001 C 
ATOM      2  C   UNL     1      -4.060  -0.372  24.778  0.00  0.00    +0.017 C 
ATOM      3  C   UNL     1      -3.899  -0.768  24.071  0.00  0.00    +0.001 C 
ENDBRANCH   4   2
ENDBRANCH   5   4
ENDBRANCH   6   5
ENDBRANCH   7   6
TORSDOF 7
ENDMDL
MODEL 4
REMARK VINA RESULT:      -7.5      1.272      1.714
REMARK  Name = 
REMARK  7 active torsions:
REMARK  status: ('A' for Active; 'I' for Inactive)
REMARK    1  A    between atoms: C_2  and  C_4
REMARK    2  A    between atoms: C_4  and  N_5
REMARK    3  A    between atoms: N_5  and  C_6
REMARK    4  A    between atoms: C_6  and  C_7
REMARK    5  A    between atoms: C_7  and  C_8
REMARK    6  A    between atoms: C_11  and  C_12
REMARK    7  A    between atoms: C_12  and  N_13
REMARK                            x       y       z     vdW  Elec       q    Type
REMARK                         _______ _______ _______ _____ _____    ______ ____
ROOT
ATOM      7  C   UNL     1      -4.120   1.017  24.410  0.00  0.00    +0.070 C 
ENDROOT
BRANCH   7   8
ATOM      8  C   UNL     1      -3.724   0.366  24.727  0.00  0.00    +0.102 A 
ATOM      9  N   UNL     1      -2.961   0.367  25.042  0.00  0.00    -0.082 NA
ATOM     10  O   UNL     1      -2.788  -0.399  25.294  0.00  0.00    -0.357 OA
ATOM     11  C   UNL     1      -3.444  -0.874  25.136  0.00  0.00    +0.170 A 
ATOM     16  C   UNL     1      -4.022  -0.401  24.785  0.00  0.00    +0.055 A 
BRANCH  11  12
ATOM     12  C   UNL     1      -3.509  -1.681  25.299  0.00  0.00    +0.141 C 
BRANCH  12  13
ATOM     13  N   UNL     1      -3.221  -2.235  24.760  0.00  0.00    -0.264 NA
ATOM     14  C   UNL     1      -2.413  -2.389  24.719  0.00  0.00    +0.090 C 
ATOM     15  C   UNL     1      -3.744  -2.635  24.262  0.00  0.00    +0.090 C 
ENDBRANCH  12  13
ENDBRANCH  11  12
ENDBRANCH   7   8
BRANCH   7   6
ATOM      6  C   UNL     1      -3.690   1.663  24.129  0.00  0.00    +0.119 C 
ATOM     17  C   UNL     1      -3.261   2.308  23.848  0.00  0.00    +0.161 C 
ATOM     18  O   UNL     1      -3.018   1.865  23.196  0.00  0.00    -0.351 OA
ATOM     19  C   UNL     1      -3.447   1.219  23.478  0.00  0.00    +0.161 C 
BRANCH   6   5
ATOM      5  N   UNL     1      -3.933   2.106  24.781  0.00  0.00    -0.215 NA
BRANCH   5   4
ATOM      4  C   UNL     1      -4.320   2.826  24.669  0.00  0.00    +0.089 C 
BRANCH   4   2
ATOM      1  C   UNL     1      -4.091   3.702  25.776  0.00  0.00    +0.001 C 
ATOM      2  C   UNL     1      -4.605   3.246  25.319  0.00  0.00    +0.017 C 
ATOM      3  C   UNL     1      -5.407   3.211  25.513  0.00  0.00    +0.001 C 
ENDBRANCH   4   2
ENDBRANCH   5   4
ENDBRANCH   6   5
ENDBRANCH   7   6
TORSDOF 7
ENDMDL
