MODEL 1
REMARK VINA RESULT:      -9.5      0.000      0.000
REMARK  Name = 
REMARK  7 active torsions:
REMARK  status: ('A' for Active; 'I' for Inactive)
REMARK    1  A    between atoms: S_2  and  C_3
REMARK    2  A    between atoms: C_3  and  C_4
REMARK    3  A    between atoms: C_8  and  N_19
REMARK    4  A    between atoms: C_10  and  C_11
REMARK    5  A    between atoms: N_13  and  C_15
REMARK    6  A    between atoms: C_15  and  C_16
REMARK    7  A    between atoms: N_22  and  C_23
REMARK                            x       y       z     vdW  Elec       q    Type
REMARK                         _______ _______ _______ _____ _____    ______ ____
ROOT
ATOM      4  C   UNL     1      -1.419  -0.356  24.544  0.00  0.00    +0.237 C 
ATOM      5  O   UNL     1      -0.600  -0.408  24.455  0.00  0.00    -0.274 OA
ATOM      6  N   UNL     1      -1.794   0.377  24.497  0.00  0.00    -0.270 N 
ATOM      7  C   UNL     1      -2.604   0.513  24.575  0.00  0.00    +0.116 C 
ATOM      8  C   UNL     1      -2.736   1.323  24.491  0.00  0.00    +0.119 C 
ATOM      9  C   UNL     1      -2.007   1.687  24.360  0.00  0.00    +0.053 C 
ATOM     10  C   UNL     1      -1.425   1.103  24.364  0.00  0.00    +0.154 C 
ENDROOT
BRANCH  10  11
ATOM     11  C   UNL     1      -0.616   1.223  24.255  0.00  0.00    +0.244 C 
ATOM     12  O   UNL     1      -0.222   0.839  23.639  0.00  0.00    -0.273 OA
ATOM     13  N   UNL     1      -0.202   1.726  24.760  0.00  0.00    -0.268 N 
ATOM     14  C   UNL     1       0.607   1.846  24.650  0.00  0.00    +0.115 C 
BRANCH  13  15
ATOM     15  C   UNL     1      -0.595   2.109  25.375  0.00  0.00    +0.183 C 
BRANCH  15  16
ATOM     16  C   UNL     1      -0.188   2.636  25.861  0.00  0.00    +0.281 C 
ATOM     17  N   UNL     1       0.179   2.365  26.549  0.00  0.00    -0.086 NA
ATOM     18  O   UNL     1      -0.147   3.435  25.659  0.00  0.00    -0.270 OA
ENDBRANCH  15  16
ENDBRANCH  13  15
ENDBRANCH  10  11
BRANCH   8  19
ATOM     19  N   UNL     1      -3.467   1.702  24.529  0.00  0.00    -0.187 NA
ATOM     20  C   UNL     1      -3.800   2.029  23.848  0.00  0.00    +0.339 C 
ATOM     21  O   UNL     1      -3.401   1.975  23.129  0.00  0.00    -0.249 OA
ATOM     22  N   UNL     1      -4.532   2.408  23.887  0.00  0.00    -0.189 NA
BRANCH  22  23
ATOM     23  C   UNL     1      -4.930   2.461  24.607  0.00  0.00    +0.097 C 
ATOM     24  C   UNL     1      -4.794   3.103  25.109  0.00  0.00    +0.022 C 
ATOM     25  C   UNL     1      -5.194   3.154  25.829  0.00  0.00    +0.002 C 
ATOM     26  C   UNL     1      -5.729   2.565  26.048  0.00  0.00    +0.000 C 
ATOM     27  C   UNL     1      -5.864   1.925  25.547  0.00  0.00    +0.002 C 
ATOM     28  C   UNL     1      -5.465   1.872  24.827  0.00  0.00    +0.022 C 
ENDBRANCH  22  23
ENDBRANCH   8  19
BRANCH   4   3
ATOM      3  C   UNL     1      -1.862  -1.038  24.681  0.00  0.00    +0.143 C 
BRANCH   3   2
ATOM      1  C   UNL     1      -1.942  -2.465  24.688  0.00  0.00    +0.070 C 
ATOM      2  S   UNL     1      -1.491  -1.775  24.702  0.00  0.00    -0.130 S 
ENDBRANCH   3   2
ENDBRANCH   4   3
TORSDOF 7
ENDMDL
MODEL 2
REMARK VINA RESULT:      -9.2      2.091      3.311
REMARK  Name = 
REMARK  7 active torsions:
REMARK  status: ('A' for Active; 'I' for Inactive)
REMARK    1  A    between atoms: S_2  and  C_3
REMARK    2  A    between atoms: C_3  and  C_4
REMARK    3  A    between atoms: C_8  and  N_19
REMARK    4  A    between atoms: C_10  and  C_11
REMARK    5  A    between atoms: N_13  and  C_15
REMARK    6  A    between atoms: C_15  and  C_16
REMARK    7  A    between atoms: N_22  and  C_23
REMARK                            x       y       z     vdW  Elec       q    Type
REMARK                         _______ _______ _______ _____ _____    ______ ____
ROOT
ATOM      4  C   UNL     1       0.237   0.848  24.030  0.00  0.00    +0.237 C 
ATOM      5  O   UNL     1       0.633   1.555  24.185  0.00  0.00    -0.274 OA
ATOM      6  N   UNL     1      -0.462   0.669  24.431  0.00  0.00    -0.270 N 
ATOM      7  C   UNL     1      -0.916  -0.013  24.334  0.00  0.00    +0.116 C 
ATOM      8  C   UNL     1      -1.564   0.038  24.842  0.00  0.00    +0.119 C 
ATOM      9  C   UNL     1      -1.510   0.752  25.253  0.00  0.00    +0.053 C 
ATOM     10  C   UNL     1      -0.830   1.142  24.999  0.00  0.00    +0.154 C 
ENDROOT
BRANCH  10  11
ATOM     11  C   UNL     1      -0.563   1.876  25.265  0.00  0.00    +0.244 C 
ATOM     12  O   UNL     1       0.196   1.949  25.580  0.00  0.00    -0.273 OA
ATOM     13  N   UNL     1      -1.055   2.536  25.217  0.00  0.00    -0.268 N 
ATOM     14  C   UNL     1      -0.788   3.269  25.483  0.00  0.00    +0.115 C 
BRANCH  13  15
ATOM     15  C   UNL     1      -1.814   2.463  24.901  0.00  0.00    +0.183 C 
BRANCH  15  16
ATOM     16  C   UNL     1      -2.293   3.129  24.819  0.00  0.00    +0.281 C 
ATOM     17  N   UNL     1      -2.776   3.370  25.443  0.00  0.00    -0.086 NA
ATOM     18  O   UNL     1      -2.288   3.555  24.113  0.00  0.00    -0.270 OA
ENDBRANCH  15  16
ENDBRANCH  13  15
ENDBRANCH  10  11
BRANCH   8  19
ATOM     19  N   UNL     1      -2.160  -0.525  24.926  0.00  0.00    -0.187 NA
ATOM     20  C   UNL     1      -2.267  -0.911  25.648  0.00  0.00    +0.339 C 
ATOM     21  O   UNL     1      -1.777  -0.732  26.286  0.00  0.00    -0.249 OA
ATOM     22  N   UNL     1      -2.864  -1.474  25.731  0.00  0.00    -0.189 NA
BRANCH  22  23
ATOM     23  C   UNL     1      -3.354  -1.652  25.092  0.00  0.00    +0.097 C 
ATOM     24  C   UNL     1      -3.950  -1.127  24.869  0.00  0.00    +0.022 C 
ATOM     25  C   UNL     1      -4.440  -1.306  24.230  0.00  0.00    +0.002 C 
ATOM     26  C   UNL     1      -4.334  -2.010  23.812  0.00  0.00    +0.000 C 
ATOM     27  C   UNL     1      -3.738  -2.535  24.036  0.00  0.00    +0.002 C 
ATOM     28  C   UNL     1      -3.248  -2.357  24.675  0.00  0.00    +0.022 C 
ENDBRANCH  22  23
ENDBRANCH   8  19
BRANCH   4   3
ATOM      3  C   UNL     1       0.540   0.319  23.475  0.00  0.00    +0.143 C 
BRANCH   3   2
ATOM      1  C   UNL     1       1.576  -0.067  22.570  0.00  0.00    +0.070 C 
ATOM      2  S   UNL     1       1.263   0.473  23.110  0.00  0.00    -0.130 S 
ENDBRANCH   3   2
ENDBRANCH   4   3
TORSDOF 7
ENDMDL
MODEL 3
REMARK VINA RESULT:      -9.2      2.144      3.608
REMARK  Name = 
REMARK  7 active torsions:
REMARK  status: ('A' for Active; 'I' for Inactive)
REMARK    1  A    between atoms: S_2  and  C_3
REMARK    2  A    between atoms: C_3  and  C_4
REMARK    3  A    between atoms: C_8  and  N_19
REMARK    4  A    between atoms: C_10  and  C_11
REMARK    5  A    between atoms: N_13  and  C_15
REMARK    6  A    between atoms: C_15  and  C_16
REMARK    7  A    between atoms: N_22  and  C_23
REMARK                            x       y       z     vdW  Elec       q    Type
REMARK                         _______ _______ _______ _____ _____    ______ ____
ROOT
ATOM      4  C   UNL     1      -0.029  -0.195  23.899  0.00  0.00    +0.237 C 
ATOM      5  O   UNL     1      -0.150  -1.011  23.879  0.00  0.00    -0.274 OA
ATOM      6  N   UNL     1      -0.464   0.273  24.419  0.00  0.00    -0.270 N 
ATOM      7  C   UNL     1      -0.404   1.092  24.501  0.00  0.00    +0.116 C 
ATOM      8  C   UNL     1      -0.939   1.331  25.082  0.00  0.00    +0.119 C 
ATOM      9  C   UNL     1      -1.330   0.659  25.359  0.00  0.00    +0.053 C 
ATOM     10  C   UNL     1      -1.037   0.006  24.950  0.00  0.00    +0.154 C 
ENDROOT
BRANCH  10  11
ATOM     11  C   UNL     1      -1.274  -0.778  25.053  0.00  0.00    +0.244 C 
ATOM     12  O   UNL     1      -0.719  -1.353  25.258  0.00  0.00    -0.273 OA
ATOM     13  N   UNL     1      -2.066  -0.985  24.951  0.00  0.00    -0.268 N 
ATOM     14  C   UNL     1      -2.303  -1.768  25.054  0.00  0.00    +0.115 C 
BRANCH  13  15
ATOM     15  C   UNL     1      -2.621  -0.410  24.746  0.00  0.00    +0.183 C 
BRANCH  15  16
ATOM     16  C   UNL     1      -3.417  -0.611  24.673  0.00  0.00    +0.281 C 
ATOM     17  N   UNL     1      -3.735  -0.776  23.929  0.00  0.00    -0.086 NA
ATOM     18  O   UNL     1      -3.896  -0.649  25.343  0.00  0.00    -0.270 OA
ENDBRANCH  15  16
ENDBRANCH  13  15
ENDBRANCH  10  11
BRANCH   8  19
ATOM     19  N   UNL     1      -1.061   2.104  25.341  0.00  0.00    -0.187 NA
ATOM     20  C   UNL     1      -0.616   2.406  25.967  0.00  0.00    +0.339 C 
ATOM     21  O   UNL     1      -0.050   1.934  26.334  0.00  0.00    -0.249 OA
ATOM     22  N   UNL     1      -0.740   3.180  26.225  0.00  0.00    -0.189 NA
BRANCH  22  23
ATOM     23  C   UNL     1      -1.307   3.652  25.857  0.00  0.00    +0.097 C 
ATOM     24  C   UNL     1      -2.096   3.612  26.097  0.00  0.00    +0.022 C 
ATOM     25  C   UNL     1      -2.663   4.085  25.728  0.00  0.00    +0.002 C 
ATOM     26  C   UNL     1      -2.441   4.597  25.120  0.00  0.00    +0.000 C 
ATOM     27  C   UNL     1      -1.653   4.636  24.881  0.00  0.00    +0.002 C 
ATOM     28  C   UNL     1      -1.086   4.164  25.249  0.00  0.00    +0.022 C 
ENDBRANCH  22  23
ENDBRANCH   8  19
BRANCH   4   3
ATOM      3  C   UNL     1       0.527   0.152  23.399  0.00  0.00    +0.143 C 
BRANCH   3   2
ATOM      1  C   UNL     1       1.642  -0.005  22.518  0.00  0.00    +0.070 C 
ATOM      2  S   UNL     1       0.977  -0.319  22.891  0.00  0.00    -0.130 S 
ENDBRANCH   3   2
ENDBRANCH   4   3
TORSDOF 7
ENDMDL
MODEL 4
REMARK VINA RESULT:      -9.0      1.801      4.178
REMARK  Name = 
REMARK  7 active torsions:
REMARK  status: ('A' for Active; 'I' for Inactive)
REMARK    1  A    between atoms: S_2  and  C_3
REMARK    2  A    between atoms: C_3  and  C_4
REMARK    3  A    between atoms: C_8  and  N_19
REMARK    4  A    between atoms: C_10  and  C_11
REMARK    5  A    between atoms: N_13  and  C_15
REMARK    6  A    between atoms: C_15  and  C_16
REMARK    7  A    between atoms: N_22  and  C_23
REMARK                            x       y       z     vdW  Elec       q    Type
REMARK                         _______ _______ _______ _____ _____    ______ ____
ROOT
ATOM      4  C   UNL     1      -1.777   2.187  24.964  0.00  0.00    +0.237 C 
ATOM      5  O   UNL     1      -1.900   2.963  24.714  0.00  0.00    -0.274 OA
ATOM      6  N   UNL     1      -2.339   1.606  24.799  0.00  0.00    -0.270 N 
ATOM      7  C   UNL     1      -2.291   0.810  25.012  0.00  0.00    +0.116 C 
ATOM      8  C   UNL     1      -2.970   0.431  24.737  0.00  0.00    +0.119 C 
ATOM      9  C   UNL     1      -3.437   0.992  24.353  0.00  0.00    +0.053 C 
ATOM     10  C   UNL     1      -3.048   1.718  24.391  0.00  0.00    +0.154 C 
ENDROOT
BRANCH  10  11
ATOM     11  C   UNL     1      -3.318   2.431  24.077  0.00  0.00    +0.244 C 
ATOM     12  O   UNL     1      -2.894   2.804  23.476  0.00  0.00    -0.273 OA
ATOM     13  N   UNL     1      -4.013   2.771  24.364  0.00  0.00    -0.268 N 
ATOM     14  C   UNL     1      -4.283   3.484  24.050  0.00  0.00    +0.115 C 
BRANCH  13  15
ATOM     15  C   UNL     1      -4.437   2.398  24.965  0.00  0.00    +0.183 C 
BRANCH  15  16
ATOM     16  C   UNL     1      -5.113   2.753  25.276  0.00  0.00    +0.281 C 
ATOM     17  N   UNL     1      -5.860   2.473  25.067  0.00  0.00    -0.086 NA
ATOM     18  O   UNL     1      -5.042   3.391  25.795  0.00  0.00    -0.270 OA
ENDBRANCH  15  16
ENDBRANCH  13  15
ENDBRANCH  10  11
BRANCH   8  19
ATOM     19  N   UNL     1      -3.150  -0.369  24.828  0.00  0.00    -0.187 NA
ATOM     20  C   UNL     1      -3.422  -0.650  25.555  0.00  0.00    +0.339 C 
ATOM     21  O   UNL     1      -3.514  -0.132  26.189  0.00  0.00    -0.249 OA
ATOM     22  N   UNL     1      -3.603  -1.451  25.646  0.00  0.00    -0.189 NA
BRANCH  22  23
ATOM     23  C   UNL     1      -3.510  -1.969  25.011  0.00  0.00    +0.097 C 
ATOM     24  C   UNL     1      -2.803  -2.384  24.917  0.00  0.00    +0.022 C 
ATOM     25  C   UNL     1      -2.712  -2.902  24.281  0.00  0.00    +0.002 C 
ATOM     26  C   UNL     1      -3.327  -3.005  23.740  0.00  0.00    +0.000 C 
ATOM     27  C   UNL     1      -4.033  -2.589  23.835  0.00  0.00    +0.002 C 
ATOM     28  C   UNL     1      -4.125  -2.071  24.470  0.00  0.00    +0.022 C 
ENDBRANCH  22  23
ENDBRANCH   8  19
BRANCH   4   3
ATOM      3  C   UNL     1      -1.092   1.991  25.379  0.00  0.00    +0.143 C 
BRANCH   3   2
ATOM      1  C   UNL     1       0.086   2.393  26.082  0.00  0.00    +0.070 C 
ATOM      2  S   UNL     1      -0.579   2.585  25.633  0.00  0.00    -0.130 S 
ENDBRANCH   3   2
ENDBRANCH   4   3
TORSDOF 7
ENDMDL
MODEL 5
REMARK VINA RESULT:      -8.9      1.781      3.647
REMARK  Name = 
REMARK  7 active torsions:
REMARK  status: ('A' for Active; 'I' for Inactive)
REMARK    1  A    between atoms: S_2  and  C_3
REMARK    2  A    between atoms: C_3  and  C_4
REMARK    3  A    between atoms: C_8  and  N_19
REMARK    4  A    between atoms: C_10  and  C_11
REMARK    5  A    between atoms: N_13  and  C_15
REMARK    6  A    between atoms: C_15  and  C_16
REMARK    7  A    between atoms: N_22  and  C_23
REMARK                            x       y       z     vdW  Elec       q    Type
REMARK                         _______ _______ _______ _____ _____    ______ ____
ROOT
ATOM      4  C   UNL     1      -3.566   3.004  25.081  0.00  0.00    +0.237 C 
ATOM      5  O   UNL     1      -3.160   3.721  25.039  0.00  0.00    -0.274 OA
ATOM      6  N   UNL     1      -3.198   2.307  24.842  0.00  0.00    -0.270 N 
ATOM      7  C   UNL     1      -3.533   1.553  24.852  0.00  0.00    +0.116 C 
ATOM      8  C   UNL     1      -2.971   1.020  24.567  0.00  0.00    +0.119 C 
ATOM      9  C   UNL     1      -2.289   1.445  24.380  0.00  0.00    +0.053 C 
ATOM     10  C   UNL     1      -2.428   2.240  24.550  0.00  0.00    +0.154 C 
ENDROOT
BRANCH  10  11
ATOM     11  C   UNL     1      -1.894   2.859  24.446  0.00  0.00    +0.244 C 
ATOM     12  O   UNL     1      -2.083   3.488  23.946  0.00  0.00    -0.273 OA
ATOM     13  N   UNL     1      -1.170   2.850  24.841  0.00  0.00    -0.268 N 
ATOM     14  C   UNL     1      -0.635   3.469  24.738  0.00  0.00    +0.115 C 
BRANCH  13  15
ATOM     15  C   UNL     1      -0.981   2.221  25.341  0.00  0.00    +0.183 C 
BRANCH  15  16
ATOM     16  C   UNL     1      -0.261   2.216  25.744  0.00  0.00    +0.281 C 
ATOM     17  N   UNL     1      -0.230   2.440  26.537  0.00  0.00    -0.086 NA
ATOM     18  O   UNL     1       0.428   1.986  25.353  0.00  0.00    -0.270 OA
ENDBRANCH  15  16
ENDBRANCH  13  15
ENDBRANCH  10  11
BRANCH   8  19
ATOM     19  N   UNL     1      -3.073   0.206  24.483  0.00  0.00    -0.187 NA
ATOM     20  C   UNL     1      -3.464  -0.096  23.821  0.00  0.00    +0.339 C 
ATOM     21  O   UNL     1      -3.752   0.417  23.244  0.00  0.00    -0.249 OA
ATOM     22  N   UNL     1      -3.566  -0.910  23.738  0.00  0.00    -0.189 NA
BRANCH  22  23
ATOM     23  C   UNL     1      -3.278  -1.423  24.316  0.00  0.00    +0.097 C 
ATOM     24  C   UNL     1      -3.748  -1.619  24.965  0.00  0.00    +0.022 C 
ATOM     25  C   UNL     1      -3.458  -2.132  25.543  0.00  0.00    +0.002 C 
ATOM     26  C   UNL     1      -2.699  -2.449  25.472  0.00  0.00    +0.000 C 
ATOM     27  C   UNL     1      -2.231  -2.253  24.822  0.00  0.00    +0.002 C 
ATOM     28  C   UNL     1      -2.519  -1.740  24.244  0.00  0.00    +0.022 C 
ENDBRANCH  22  23
ENDBRANCH   8  19
BRANCH   4   3
ATOM      3  C   UNL     1      -4.341   2.986  25.362  0.00  0.00    +0.143 C 
BRANCH   3   2
ATOM      1  C   UNL     1      -5.550   3.679  25.678  0.00  0.00    +0.070 C 
ATOM      2  S   UNL     1      -4.741   3.690  25.517  0.00  0.00    -0.130 S 
ENDBRANCH   3   2
ENDBRANCH   4   3
TORSDOF 7
ENDMDL
MODEL 6
REMARK VINA RESULT:      -8.8      1.273      2.693
REMARK  Name = 
REMARK  7 active torsions:
REMARK  status: ('A' for Active; 'I' for Inactive)
REMARK    1  A    between atoms: S_2  and  C_3
REMARK    2  A    between atoms: C_3  and  C_4
REMARK    3  A    between atoms: C_8  and  N_19
REMARK    4  A    between atoms: C_10  and  C_11
REMARK    5  A    between atoms: N_13  and  C_15
REMARK    6  A    between atoms: C_15  and  C_16
REMARK    7  A    between atoms: N_22  and  C_23
REMARK                            x       y       z     vdW  Elec       q    Type
REMARK                         _______ _______ _______ _____ _____    ______ ____
ROOT
ATOM      4  C   UNL     1      -0.603   1.697  25.251  0.00  0.00    +0.237 C 
ATOM      5  O   UNL     1       0.023   1.204  25.036  0.00  0.00    -0.274 OA
ATOM      6  N   UNL     1      -1.355   1.568  24.939  0.00  0.00    -0.270 N 
ATOM      7  C   UNL     1      -2.031   2.013  25.103  0.00  0.00    +0.116 C 
ATOM      8  C   UNL     1      -2.657   1.692  24.673  0.00  0.00    +0.119 C 
ATOM      9  C   UNL     1      -2.369   1.048  24.245  0.00  0.00    +0.053 C 
ATOM     10  C   UNL     1      -1.565   0.971  24.409  0.00  0.00    +0.154 C 
ENDROOT
BRANCH  10  11
ATOM     11  C   UNL     1      -1.058   0.399  24.098  0.00  0.00    +0.244 C 
ATOM     12  O   UNL     1      -0.415   0.627  23.634  0.00  0.00    -0.273 OA
ATOM     13  N   UNL     1      -1.195  -0.399  24.251  0.00  0.00    -0.268 N 
ATOM     14  C   UNL     1      -0.689  -0.971  23.940  0.00  0.00    +0.115 C 
BRANCH  13  15
ATOM     15  C   UNL     1      -1.838  -0.627  24.715  0.00  0.00    +0.183 C 
BRANCH  15  16
ATOM     16  C   UNL     1      -1.947  -1.420  24.910  0.00  0.00    +0.281 C 
ATOM     17  N   UNL     1      -2.531  -1.863  24.531  0.00  0.00    -0.086 NA
ATOM     18  O   UNL     1      -1.470  -1.773  25.484  0.00  0.00    -0.270 OA
ENDBRANCH  15  16
ENDBRANCH  13  15
ENDBRANCH  10  11
BRANCH   8  19
ATOM     19  N   UNL     1      -3.435   1.965  24.673  0.00  0.00    -0.187 NA
ATOM     20  C   UNL     1      -3.710   2.428  24.046  0.00  0.00    +0.339 C 
ATOM     21  O   UNL     1      -3.206   2.616  23.422  0.00  0.00    -0.249 OA
ATOM     22  N   UNL     1      -4.489   2.701  24.046  0.00  0.00    -0.189 NA
BRANCH  22  23
ATOM     23  C   UNL     1      -4.992   2.512  24.671  0.00  0.00    +0.097 C 
ATOM     24  C   UNL     1      -5.439   1.819  24.647  0.00  0.00    +0.022 C 
ATOM     25  C   UNL     1      -5.942   1.631  25.273  0.00  0.00    +0.002 C 
ATOM     26  C   UNL     1      -5.999   2.136  25.924  0.00  0.00    +0.000 C 
ATOM     27  C   UNL     1      -5.552   2.828  25.947  0.00  0.00    +0.002 C 
ATOM     28  C   UNL     1      -5.049   3.017  25.322  0.00  0.00    +0.022 C 
ENDBRANCH  22  23
ENDBRANCH   8  19
BRANCH   4   3
ATOM      3  C   UNL     1      -0.476   2.318  25.778  0.00  0.00    +0.143 C 
BRANCH   3   2
ATOM      1  C   UNL     1       0.312   2.782  26.877  0.00  0.00    +0.070 C 
ATOM      2  S   UNL     1       0.258   2.406  26.144  0.00  0.00    -0.130 S 
ENDBRANCH   3   2
ENDBRANCH   4   3
TORSDOF 7
ENDMDL
MODEL 7
REMARK VINA RESULT:      -8.7      1.816      3.187
REMARK  Name = 
REMARK  7 active torsions:
REMARK  status: ('A' for Active; 'I' for Inactive)
REMARK    1  A    between atoms: S_2  and  C_3
REMARK    2  A    between atoms: C_3  and  C_4
REMARK    3  A    between atoms: C_8  and  N_19
REMARK    4  A    between atoms: C_10  and  C_11
REMARK    5  A    between atoms: N_13  and  C_15
REMARK    6  A    between atoms: C_15  and  C_16
REMARK    7  A    between atoms: N_22  and  C_23
REMARK                            x       y       z     vdW  Elec       q    Type
REMARK                         _______ _______ _______ _____ _____    ______ ____
ROOT
ATOM      4  C   UNL     1      -0.377  -0.196  24.039  0.00  0.00    +0.237 C 
ATOM      5  O   UNL     1      -0.303  -1.002  24.199  0.00  0.00    -0.274 OA
ATOM      6  N   UNL     1      -1.010   0.230  24.352  0.00  0.00    -0.270 N 
ATOM      7  C   UNL     1      -1.155   1.035  24.241  0.00  0.00    +0.116 C 
ATOM      8  C   UNL     1      -1.844   1.228  24.651  0.00  0.00    +0.119 C 
ATOM      9  C   UNL     1      -2.125   0.543  25.016  0.00  0.00    +0.053 C 
ATOM     10  C   UNL     1      -1.610  -0.074  24.831  0.00  0.00    +0.154 C 
ENDROOT
BRANCH  10  11
ATOM     11  C   UNL     1      -1.681  -0.856  25.081  0.00  0.00    +0.244 C 
ATOM     12  O   UNL     1      -1.063  -1.215  25.493  0.00  0.00    -0.273 OA
ATOM     13  N   UNL     1      -2.370  -1.280  24.919  0.00  0.00    -0.268 N 
ATOM     14  C   UNL     1      -2.441  -2.063  25.169  0.00  0.00    +0.115 C 
BRANCH  13  15
ATOM     15  C   UNL     1      -2.988  -0.921  24.507  0.00  0.00    +0.183 C 
BRANCH  15  16
ATOM     16  C   UNL     1      -3.701  -1.321  24.402  0.00  0.00    +0.281 C 
ATOM     17  N   UNL     1      -3.871  -1.681  23.679  0.00  0.00    -0.086 NA
ATOM     18  O   UNL     1      -4.246  -1.361  25.020  0.00  0.00    -0.270 OA
ENDBRANCH  15  16
ENDBRANCH  13  15
ENDBRANCH  10  11
BRANCH   8  19
ATOM     19  N   UNL     1      -2.192   1.975  24.690  0.00  0.00    -0.187 NA
ATOM     20  C   UNL     1      -2.552   2.299  24.021  0.00  0.00    +0.339 C 
ATOM     21  O   UNL     1      -2.564   1.875  23.314  0.00  0.00    -0.249 OA
ATOM     22  N   UNL     1      -2.900   3.047  24.061  0.00  0.00    -0.189 NA
BRANCH  22  23
ATOM     23  C   UNL     1      -2.887   3.470  24.768  0.00  0.00    +0.097 C 
ATOM     24  C   UNL     1      -2.238   3.945  24.954  0.00  0.00    +0.022 C 
ATOM     25  C   UNL     1      -2.226   4.368  25.662  0.00  0.00    +0.002 C 
ATOM     26  C   UNL     1      -2.863   4.317  26.185  0.00  0.00    +0.000 C 
ATOM     27  C   UNL     1      -3.511   3.842  25.999  0.00  0.00    +0.002 C 
ATOM     28  C   UNL     1      -3.524   3.419  25.291  0.00  0.00    +0.022 C 
ENDBRANCH  22  23
ENDBRANCH   8  19
BRANCH   4   3
ATOM      3  C   UNL     1       0.183   0.184  23.567  0.00  0.00    +0.143 C 
BRANCH   3   2
ATOM      1  C   UNL     1       1.370   0.131  22.774  0.00  0.00    +0.070 C 
ATOM      2  S   UNL     1       0.776  -0.254  23.197  0.00  0.00    -0.130 S 
ENDBRANCH   3   2
ENDBRANCH   4   3
TORSDOF 7
ENDMDL
MODEL 8
REMARK VINA RESULT:      -8.7      1.603      1.988
REMARK  Name = 
REMARK  7 active torsions:
REMARK  status: ('A' for Active; 'I' for Inactive)
REMARK    1  A    between atoms: S_2  and  C_3
REMARK    2  A    between atoms: C_3  and  C_4
REMARK    3  A    between atoms: C_8  and  N_19
REMARK    4  A    between atoms: C_10  and  C_11
REMARK    5  A    between atoms: N_13  and  C_15
REMARK    6  A    between atoms: C_15  and  C_16
REMARK    7  A    between atoms: N_22  and  C_23
REMARK                            x       y       z     vdW  Elec       q    Type
REMARK                         _______ _______ _______ _____ _____    ______ ____
ROOT
ATOM      4  C   UNL     1      -2.890  -1.378  24.571  0.00  0.00    +0.237 C 
ATOM      5  O   UNL     1      -2.263  -1.889  24.733  0.00  0.00    -0.274 OA
ATOM      6  N   UNL     1      -2.798  -0.565  24.674  0.00  0.00    -0.270 N 
ATOM      7  C   UNL     1      -3.373   0.010  24.535  0.00  0.00    +0.116 C 
ATOM      8  C   UNL     1      -3.045   0.746  24.709  0.00  0.00    +0.119 C 
ATOM      9  C   UNL     1      -2.267   0.626  24.956  0.00  0.00    +0.053 C 
ATOM     10  C   UNL     1      -2.114  -0.184  24.935  0.00  0.00    +0.154 C 
ENDROOT
BRANCH  10  11
ATOM     11  C   UNL     1      -1.403  -0.549  25.138  0.00  0.00    +0.244 C 
ATOM     12  O   UNL     1      -1.383  -1.098  25.754  0.00  0.00    -0.273 OA
ATOM     13  N   UNL     1      -0.713  -0.366  24.726  0.00  0.00    -0.268 N 
ATOM     14  C   UNL     1      -0.002  -0.731  24.929  0.00  0.00    +0.115 C 
BRANCH  13  15
ATOM     15  C   UNL     1      -0.733   0.183  24.110  0.00  0.00    +0.183 C 
BRANCH  15  16
ATOM     16  C   UNL     1      -0.040   0.377  23.707  0.00  0.00    +0.281 C 
ATOM     17  N   UNL     1       0.358   1.077  23.884  0.00  0.00    -0.086 NA
ATOM     18  O   UNL     1       0.255  -0.129  23.126  0.00  0.00    -0.270 OA
ENDBRANCH  15  16
ENDBRANCH  13  15
ENDBRANCH  10  11
BRANCH   8  19
ATOM     19  N   UNL     1      -3.427   1.475  24.647  0.00  0.00    -0.187 NA
ATOM     20  C   UNL     1      -3.525   1.828  23.908  0.00  0.00    +0.339 C 
ATOM     21  O   UNL     1      -3.241   1.453  23.231  0.00  0.00    -0.249 OA
ATOM     22  N   UNL     1      -3.908   2.557  23.847  0.00  0.00    -0.189 NA
BRANCH  22  23
ATOM     23  C   UNL     1      -4.191   2.932  24.525  0.00  0.00    +0.097 C 
ATOM     24  C   UNL     1      -3.712   3.466  24.932  0.00  0.00    +0.022 C 
ATOM     25  C   UNL     1      -3.997   3.840  25.610  0.00  0.00    +0.002 C 
ATOM     26  C   UNL     1      -4.761   3.681  25.881  0.00  0.00    +0.000 C 
ATOM     27  C   UNL     1      -5.238   3.147  25.473  0.00  0.00    +0.002 C 
ATOM     28  C   UNL     1      -4.955   2.772  24.795  0.00  0.00    +0.022 C 
ENDBRANCH  22  23
ENDBRANCH   8  19
BRANCH   4   3
ATOM      3  C   UNL     1      -3.610  -1.681  24.305  0.00  0.00    +0.143 C 
BRANCH   3   2
ATOM      1  C   UNL     1      -4.366  -2.782  23.796  0.00  0.00    +0.070 C 
ATOM      2  S   UNL     1      -3.696  -2.492  24.181  0.00  0.00    -0.130 S 
ENDBRANCH   3   2
ENDBRANCH   4   3
TORSDOF 7
ENDMDL
