MODEL 1
REMARK VINA RESULT:      -9.4      0.000      0.000
REMARK  Name = 
REMARK  6 active torsions:
REMARK  status: ('A' for Active; 'I' for Inactive)
REMARK    1  A    between atoms: C_2  and  C_5
REMARK    2  A    between atoms: C_5  and  C_6
REMARK    3  A    between atoms: N_8  and  C_9
REMARK    4  A    between atoms: C_9  and  C_10
REMARK    5  A    between atoms: C_13  and  N_14
REMARK    6  A    between atoms: N_14  and  C_15
REMARK                            x       y       z     vdW  Elec       q    Type
REMARK                         _______ _______ _______ _____ _____    ______ ____
ROOT
ATOM     10  C   UNL     1      -3.158   1.187  24.665  0.00  0.00    +0.169 C 
ATOM     11  O   UNL     1      -2.538   0.644  24.660  0.00  0.00    -0.350 OA
ATOM     12  C   UNL     1      -2.863  -0.114  24.677  0.00  0.00    +0.162 C 
ATOM     13  C   UNL     1      -3.685  -0.039  24.691  0.00  0.00    +0.135 C 
ATOM     19  C   UNL     1      -3.867   0.766  24.684  0.00  0.00    +0.199 C 
ATOM     20  O   UNL     1      -4.625   1.092  24.693  0.00  0.00    -0.219 OA
ENDROOT
BRANCH  10   9
ATOM      9  C   UNL     1      -3.083   2.008  24.652  0.00  0.00    +0.147 C 
BRANCH   9   8
ATOM      6  C   UNL     1      -2.359   3.187  25.013  0.00  0.00    +0.241 C 
ATOM      7  O   UNL     1      -2.831   3.632  24.503  0.00  0.00    -0.273 OA
ATOM      8  N   UNL     1      -2.486   2.375  25.087  0.00  0.00    -0.203 NA
BRANCH   6   5
ATOM      5  C   UNL     1      -1.762   3.554  25.448  0.00  0.00    +0.087 C 
BRANCH   5   2
ATOM      1  C   UNL     1      -1.276   5.082  25.059  0.00  0.00    +0.000 C 
ATOM      2  C   UNL     1      -1.519   4.317  25.254  0.00  0.00    +0.009 C 
ATOM      3  C   UNL     1      -0.868   4.008  24.851  0.00  0.00    +0.000 C 
ATOM      4  C   UNL     1      -2.169   4.627  25.655  0.00  0.00    +0.000 C 
ENDBRANCH   5   2
ENDBRANCH   6   5
ENDBRANCH   9   8
ENDBRANCH  10   9
BRANCH  13  14
ATOM     14  N   UNL     1      -4.228  -0.659  24.710  0.00  0.00    -0.216 NA
BRANCH  14  15
ATOM     15  C   UNL     1      -3.978  -1.431  24.561  0.00  0.00    +0.073 C 
ATOM     16  C   UNL     1      -4.024  -1.946  23.917  0.00  0.00    +0.017 C 
ATOM     17  C   UNL     1      -3.623  -2.523  24.351  0.00  0.00    +0.003 C 
ATOM     18  C   UNL     1      -3.577  -2.009  24.994  0.00  0.00    +0.017 C 
ENDBRANCH  14  15
ENDBRANCH  13  14
TORSDOF 6
ENDMDL
MODEL 2
REMARK VINA RESULT:      -9.4      1.072      5.177
REMARK  Name = 
REMARK  6 active torsions:
REMARK  status: ('A' for Active; 'I' for Inactive)
REMARK    1  A    between atoms: C_2  and  C_5
REMARK    2  A    between atoms: C_5  and  C_6
REMARK    3  A    between atoms: N_8  and  C_9
REMARK    4  A    between atoms: C_9  and  C_10
REMARK    5  A    between atoms: C_13  and  N_14
REMARK    6  A    between atoms: N_14  and  C_15
REMARK                            x       y       z     vdW  Elec       q    Type
REMARK                         _______ _______ _______ _____ _____    ______ ____
ROOT
ATOM     10  C   UNL     1      -2.085   1.282  24.968  0.00  0.00    +0.169 C 
ATOM     11  O   UNL     1      -2.655   1.839  24.756  0.00  0.00    -0.350 OA
ATOM     12  C   UNL     1      -2.379   2.584  24.978  0.00  0.00    +0.162 C 
ATOM     13  C   UNL     1      -1.637   2.488  25.329  0.00  0.00    +0.135 C 
ATOM     19  C   UNL     1      -1.456   1.683  25.322  0.00  0.00    +0.199 C 
ATOM     20  O   UNL     1      -0.767   1.338  25.618  0.00  0.00    -0.219 OA
ENDROOT
BRANCH  10   9
ATOM      9  C   UNL     1      -2.135   0.468  24.848  0.00  0.00    +0.147 C 
BRANCH   9   8
ATOM      6  C   UNL     1      -2.922  -0.722  24.759  0.00  0.00    +0.241 C 
ATOM      7  O   UNL     1      -2.265  -1.136  24.482  0.00  0.00    -0.273 OA
ATOM      8  N   UNL     1      -2.857   0.081  24.943  0.00  0.00    -0.203 NA
BRANCH   6   5
ATOM      5  C   UNL     1      -3.644  -1.109  24.853  0.00  0.00    +0.087 C 
BRANCH   5   2
ATOM      1  C   UNL     1      -3.850  -2.630  24.248  0.00  0.00    +0.000 C 
ATOM      2  C   UNL     1      -3.747  -1.869  24.551  0.00  0.00    +0.009 C 
ATOM      3  C   UNL     1      -3.413  -2.187  25.236  0.00  0.00    +0.000 C 
ATOM      4  C   UNL     1      -4.081  -1.553  23.867  0.00  0.00    +0.000 C 
ENDBRANCH   5   2
ENDBRANCH   6   5
ENDBRANCH   9   8
ENDBRANCH  10   9
BRANCH  13  14
ATOM     14  N   UNL     1      -1.162   3.089  25.631  0.00  0.00    -0.216 NA
BRANCH  14  15
ATOM     15  C   UNL     1      -1.293   3.872  25.404  0.00  0.00    +0.073 C 
ATOM     16  C   UNL     1      -1.860   4.445  25.584  0.00  0.00    +0.017 C 
ATOM     17  C   UNL     1      -1.478   4.978  25.083  0.00  0.00    +0.003 C 
ATOM     18  C   UNL     1      -0.912   4.406  24.904  0.00  0.00    +0.017 C 
ENDBRANCH  14  15
ENDBRANCH  13  14
TORSDOF 6
ENDMDL
