MODEL 1
REMARK VINA RESULT:     -12.0      0.000      0.000
REMARK  Name = 
REMARK  5 active torsions:
REMARK  status: ('A' for Active; 'I' for Inactive)
REMARK    1  A    between atoms: O_2  and  C_3
REMARK    2  A    between atoms: C_3  and  C_5
REMARK    3  A    between atoms: C_11  and  C_13
REMARK    4  A    between atoms: N_18  and  C_19
REMARK    5  A    between atoms: C_19  and  C_20
REMARK                            x       y       z     vdW  Elec       q    Type
REMARK                         _______ _______ _______ _____ _____    ______ ____
ROOT
ATOM      5  C   UNL     1      -2.591   2.415  24.852  0.00  0.00    +0.181 C 
ATOM      6  C   UNL     1      -1.996   1.845  24.819  0.00  0.00    +0.078 C 
ATOM      7  C   UNL     1      -2.184   1.046  24.905  0.00  0.00    +0.076 A 
ATOM      8  C   UNL     1      -2.968   0.818  25.026  0.00  0.00    +0.072 A 
ATOM      9  C   UNL     1      -3.563   1.389  25.060  0.00  0.00    +0.139 C 
ATOM     10  N   UNL     1      -3.374   2.187  24.973  0.00  0.00    -0.261 N 
ATOM     11  C   UNL     1      -3.970   2.757  25.007  0.00  0.00    +0.256 C 
ATOM     12  O   UNL     1      -3.781   3.556  24.920  0.00  0.00    -0.269 OA
ATOM     18  N   UNL     1      -2.987  -0.004  25.092  0.00  0.00    -0.307 N 
ATOM     26  C   UNL     1      -2.216  -0.284  25.013  0.00  0.00    +0.178 A 
ATOM     27  N   UNL     1      -1.720   0.365  24.897  0.00  0.00    -0.229 NA
ENDROOT
BRANCH  11  13
ATOM     13  C   UNL     1      -4.753   2.529  25.128  0.00  0.00    +0.083 A 
ATOM     14  C   UNL     1      -5.257   2.205  24.561  0.00  0.00    +0.012 A 
ATOM     15  C   UNL     1      -5.985   2.061  24.919  0.00  0.00    +0.008 A 
ATOM     16  C   UNL     1      -5.932   2.295  25.709  0.00  0.00    +0.036 A 
ATOM     17  S   UNL     1      -5.171   2.584  25.838  0.00  0.00    -0.082 S 
ENDBRANCH  11  13
BRANCH   5   3
ATOM      3  C   UNL     1      -2.402   3.213  24.766  0.00  0.00    +0.336 C 
ATOM      4  O   UNL     1      -2.501   3.583  24.035  0.00  0.00    -0.248 OA
BRANCH   3   2
ATOM      1  C   UNL     1      -1.715   4.352  25.287  0.00  0.00    +0.256 C 
ATOM      2  O   UNL     1      -2.115   3.642  25.409  0.00  0.00    -0.443 OA
ENDBRANCH   3   2
ENDBRANCH   5   3
BRANCH  18  19
ATOM     19  C   UNL     1      -3.660  -0.465  25.217  0.00  0.00    +0.134 C 
BRANCH  19  20
ATOM     20  C   UNL     1      -3.714  -1.215  24.878  0.00  0.00    +0.000 A 
ATOM     21  C   UNL     1      -3.412  -1.871  25.278  0.00  0.00    -0.002 A 
ATOM     22  C   UNL     1      -3.467  -2.621  24.939  0.00  0.00    -0.000 A 
ATOM     23  C   UNL     1      -3.823  -2.716  24.201  0.00  0.00    -0.000 A 
ATOM     24  C   UNL     1      -4.125  -2.061  23.801  0.00  0.00    -0.000 A 
ATOM     25  C   UNL     1      -4.070  -1.310  24.140  0.00  0.00    -0.002 A 
ENDBRANCH  19  20
ENDBRANCH  18  19
TORSDOF 5
ENDMDL
MODEL 2
REMARK VINA RESULT:     -11.4      0.808      1.065
REMARK  Name = 
REMARK  5 active torsions:
REMARK  status: ('A' for Active; 'I' for Inactive)
REMARK    1  A    between atoms: O_2  and  C_3
REMARK    2  A    between atoms: C_3  and  C_5
REMARK    3  A    between atoms: C_11  and  C_13
REMARK    4  A    between atoms: N_18  and  C_19
REMARK    5  A    between atoms: C_19  and  C_20
REMARK                            x       y       z     vdW  Elec       q    Type
REMARK                         _______ _______ _______ _____ _____    ______ ____
ROOT
ATOM      5  C   UNL     1      -1.615   1.916  25.091  0.00  0.00    +0.181 C 
ATOM      6  C   UNL     1      -1.201   1.214  25.212  0.00  0.00    +0.078 C 
ATOM      7  C   UNL     1      -1.606   0.496  25.256  0.00  0.00    +0.076 A 
ATOM      8  C   UNL     1      -2.427   0.482  25.179  0.00  0.00    +0.072 A 
ATOM      9  C   UNL     1      -2.843   1.185  25.058  0.00  0.00    +0.139 C 
ATOM     10  N   UNL     1      -2.437   1.901  25.014  0.00  0.00    -0.261 N 
ATOM     11  C   UNL     1      -2.853   2.603  24.893  0.00  0.00    +0.256 C 
ATOM     12  O   UNL     1      -2.446   3.321  24.848  0.00  0.00    -0.269 OA
ATOM     18  N   UNL     1      -2.676  -0.301  25.246  0.00  0.00    -0.307 N 
ATOM     26  C   UNL     1      -2.009  -0.771  25.365  0.00  0.00    +0.178 A 
ATOM     27  N   UNL     1      -1.348  -0.278  25.371  0.00  0.00    -0.229 NA
ENDROOT
BRANCH  11  13
ATOM     13  C   UNL     1      -3.674   2.589  24.816  0.00  0.00    +0.083 A 
ATOM     14  C   UNL     1      -4.093   2.467  24.116  0.00  0.00    +0.012 A 
ATOM     15  C   UNL     1      -4.898   2.497  24.294  0.00  0.00    +0.008 A 
ATOM     16  C   UNL     1      -4.976   2.637  25.103  0.00  0.00    +0.036 A 
ATOM     17  S   UNL     1      -4.220   2.694  25.426  0.00  0.00    -0.082 S 
ENDBRANCH  11  13
BRANCH   5   3
ATOM      3  C   UNL     1      -1.210   2.632  25.046  0.00  0.00    +0.336 C 
ATOM      4  O   UNL     1      -1.091   3.082  25.728  0.00  0.00    -0.248 OA
BRANCH   3   2
ATOM      1  C   UNL     1      -0.354   3.497  24.297  0.00  0.00    +0.256 C 
ATOM      2  O   UNL     1      -0.922   2.900  24.321  0.00  0.00    -0.443 OA
ENDBRANCH   3   2
ENDBRANCH   5   3
BRANCH  18  19
ATOM     19  C   UNL     1      -3.456  -0.568  25.203  0.00  0.00    +0.134 C 
BRANCH  19  20
ATOM     20  C   UNL     1      -3.625  -1.288  24.838  0.00  0.00    +0.000 A 
ATOM     21  C   UNL     1      -3.433  -1.997  25.214  0.00  0.00    -0.002 A 
ATOM     22  C   UNL     1      -3.603  -2.717  24.849  0.00  0.00    -0.000 A 
ATOM     23  C   UNL     1      -3.965  -2.728  24.107  0.00  0.00    -0.000 A 
ATOM     24  C   UNL     1      -4.157  -2.020  23.731  0.00  0.00    -0.000 A 
ATOM     25  C   UNL     1      -3.987  -1.300  24.096  0.00  0.00    -0.002 A 
ENDBRANCH  19  20
ENDBRANCH  18  19
TORSDOF 5
ENDMDL
MODEL 3
REMARK VINA RESULT:     -11.0      1.370      2.580
REMARK  Name = 
REMARK  5 active torsions:
REMARK  status: ('A' for Active; 'I' for Inactive)
REMARK    1  A    between atoms: O_2  and  C_3
REMARK    2  A    between atoms: C_3  and  C_5
REMARK    3  A    between atoms: C_11  and  C_13
REMARK    4  A    between atoms: N_18  and  C_19
REMARK    5  A    between atoms: C_19  and  C_20
REMARK                            x       y       z     vdW  Elec       q    Type
REMARK                         _______ _______ _______ _____ _____    ______ ____
ROOT
ATOM      5  C   UNL     1      -3.319   2.682  25.097  0.00  0.00    +0.181 C 
ATOM      6  C   UNL     1      -4.058   2.321  25.038  0.00  0.00    +0.078 C 
ATOM      7  C   UNL     1      -4.114   1.527  24.822  0.00  0.00    +0.076 A 
ATOM      8  C   UNL     1      -3.430   1.093  24.665  0.00  0.00    +0.072 A 
ATOM      9  C   UNL     1      -2.690   1.454  24.723  0.00  0.00    +0.139 C 
ATOM     10  N   UNL     1      -2.635   2.248  24.939  0.00  0.00    -0.261 N 
ATOM     11  C   UNL     1      -1.895   2.608  24.998  0.00  0.00    +0.256 C 
ATOM     12  O   UNL     1      -1.840   3.403  25.214  0.00  0.00    -0.269 OA
ATOM     18  N   UNL     1      -3.655   0.325  24.465  0.00  0.00    -0.307 N 
ATOM     26  C   UNL     1      -4.478   0.284  24.499  0.00  0.00    +0.178 A 
ATOM     27  N   UNL     1      -4.761   1.026  24.720  0.00  0.00    -0.229 NA
ENDROOT
BRANCH  11  13
ATOM     13  C   UNL     1      -1.211   2.175  24.840  0.00  0.00    +0.083 A 
ATOM     14  C   UNL     1      -0.801   1.703  25.379  0.00  0.00    +0.012 A 
ATOM     15  C   UNL     1      -0.154   1.374  24.988  0.00  0.00    +0.008 A 
ATOM     16  C   UNL     1      -0.164   1.642  24.207  0.00  0.00    +0.036 A 
ATOM     17  S   UNL     1      -0.817   2.137  24.116  0.00  0.00    -0.082 S 
ENDBRANCH  11  13
BRANCH   5   3
ATOM      3  C   UNL     1      -3.263   3.475  25.313  0.00  0.00    +0.336 C 
ATOM      4  O   UNL     1      -3.229   4.059  24.732  0.00  0.00    -0.248 OA
BRANCH   3   2
ATOM      1  C   UNL     1      -3.354   4.471  26.333  0.00  0.00    +0.256 C 
ATOM      2  O   UNL     1      -3.241   3.686  26.111  0.00  0.00    -0.443 OA
ENDBRANCH   3   2
ENDBRANCH   5   3
BRANCH  18  19
ATOM     19  C   UNL     1      -3.146  -0.293  24.266  0.00  0.00    +0.134 C 
BRANCH  19  20
ATOM     20  C   UNL     1      -3.353  -1.071  24.446  0.00  0.00    +0.000 A 
ATOM     21  C   UNL     1      -3.764  -1.527  23.894  0.00  0.00    -0.002 A 
ATOM     22  C   UNL     1      -3.970  -2.305  24.074  0.00  0.00    -0.000 A 
ATOM     23  C   UNL     1      -3.766  -2.628  24.806  0.00  0.00    -0.000 A 
ATOM     24  C   UNL     1      -3.355  -2.172  25.357  0.00  0.00    -0.000 A 
ATOM     25  C   UNL     1      -3.149  -1.394  25.177  0.00  0.00    -0.002 A 
ENDBRANCH  19  20
ENDBRANCH  18  19
TORSDOF 5
ENDMDL
MODEL 4
REMARK VINA RESULT:     -10.1      2.007      4.025
REMARK  Name = 
REMARK  5 active torsions:
REMARK  status: ('A' for Active; 'I' for Inactive)
REMARK    1  A    between atoms: O_2  and  C_3
REMARK    2  A    between atoms: C_3  and  C_5
REMARK    3  A    between atoms: C_11  and  C_13
REMARK    4  A    between atoms: N_18  and  C_19
REMARK    5  A    between atoms: C_19  and  C_20
REMARK                            x       y       z     vdW  Elec       q    Type
REMARK                         _______ _______ _______ _____ _____    ______ ____
ROOT
ATOM      5  C   UNL     1      -1.883  -0.250  25.283  0.00  0.00    +0.181 C 
ATOM      6  C   UNL     1      -2.622  -0.615  25.260  0.00  0.00    +0.078 C 
ATOM      7  C   UNL     1      -3.294  -0.176  25.067  0.00  0.00    +0.076 A 
ATOM      8  C   UNL     1      -3.226   0.628  24.897  0.00  0.00    +0.072 A 
ATOM      9  C   UNL     1      -2.486   0.994  24.920  0.00  0.00    +0.139 C 
ATOM     10  N   UNL     1      -1.815   0.555  25.114  0.00  0.00    -0.261 N 
ATOM     11  C   UNL     1      -1.077   0.921  25.136  0.00  0.00    +0.256 C 
ATOM     12  O   UNL     1      -0.405   0.482  25.330  0.00  0.00    -0.269 OA
ATOM     18  N   UNL     1      -3.979   0.917  24.726  0.00  0.00    -0.307 N 
ATOM     26  C   UNL     1      -4.513   0.291  24.790  0.00  0.00    +0.178 A 
ATOM     27  N   UNL     1      -4.089  -0.384  25.001  0.00  0.00    -0.229 NA
ENDROOT
BRANCH  11  13
ATOM     13  C   UNL     1      -1.009   1.725  24.966  0.00  0.00    +0.083 A 
ATOM     14  C   UNL     1      -1.069   2.343  25.510  0.00  0.00    +0.012 A 
ATOM     15  C   UNL     1      -0.967   3.052  25.102  0.00  0.00    +0.008 A 
ATOM     16  C   UNL     1      -0.842   2.873  24.307  0.00  0.00    +0.036 A 
ATOM     17  S   UNL     1      -0.868   2.054  24.222  0.00  0.00    -0.082 S 
ENDBRANCH  11  13
BRANCH   5   3
ATOM      3  C   UNL     1      -1.212  -0.688  25.476  0.00  0.00    +0.336 C 
ATOM      4  O   UNL     1      -0.931  -0.691  26.252  0.00  0.00    -0.248 OA
BRANCH   3   2
ATOM      1  C   UNL     1      -0.329  -1.749  25.108  0.00  0.00    +0.256 C 
ATOM      2  O   UNL     1      -0.822  -1.123  24.894  0.00  0.00    -0.443 OA
ENDBRANCH   3   2
ENDBRANCH   5   3
BRANCH  18  19
ATOM     19  C   UNL     1      -4.166   1.696  24.526  0.00  0.00    +0.134 C 
BRANCH  19  20
ATOM     20  C   UNL     1      -4.786   2.082  24.909  0.00  0.00    +0.000 A 
ATOM     21  C   UNL     1      -4.625   2.692  25.442  0.00  0.00    -0.002 A 
ATOM     22  C   UNL     1      -5.245   3.079  25.825  0.00  0.00    -0.000 A 
ATOM     23  C   UNL     1      -6.025   2.856  25.676  0.00  0.00    -0.000 A 
ATOM     24  C   UNL     1      -6.186   2.248  25.144  0.00  0.00    -0.000 A 
ATOM     25  C   UNL     1      -5.566   1.861  24.760  0.00  0.00    -0.002 A 
ENDBRANCH  19  20
ENDBRANCH  18  19
TORSDOF 5
ENDMDL
MODEL 5
REMARK VINA RESULT:     -10.0      2.040      3.901
REMARK  Name = 
REMARK  5 active torsions:
REMARK  status: ('A' for Active; 'I' for Inactive)
REMARK    1  A    between atoms: O_2  and  C_3
REMARK    2  A    between atoms: C_3  and  C_5
REMARK    3  A    between atoms: C_11  and  C_13
REMARK    4  A    between atoms: N_18  and  C_19
REMARK    5  A    between atoms: C_19  and  C_20
REMARK                            x       y       z     vdW  Elec       q    Type
REMARK                         _______ _______ _______ _____ _____    ______ ____
ROOT
ATOM      5  C   UNL     1      -1.355   0.553  24.235  0.00  0.00    +0.181 C 
ATOM      6  C   UNL     1      -1.442   1.347  24.030  0.00  0.00    +0.078 C 
ATOM      7  C   UNL     1      -2.192   1.691  24.015  0.00  0.00    +0.076 A 
ATOM      8  C   UNL     1      -2.856   1.239  24.205  0.00  0.00    +0.072 A 
ATOM      9  C   UNL     1      -2.769   0.444  24.410  0.00  0.00    +0.139 C 
ATOM     10  N   UNL     1      -2.019   0.101  24.424  0.00  0.00    -0.261 N 
ATOM     11  C   UNL     1      -1.933  -0.693  24.629  0.00  0.00    +0.256 C 
ATOM     12  O   UNL     1      -1.182  -1.036  24.644  0.00  0.00    -0.269 OA
ATOM     18  N   UNL     1      -3.520   1.723  24.143  0.00  0.00    -0.307 N 
ATOM     26  C   UNL     1      -3.268   2.474  23.916  0.00  0.00    +0.178 A 
ATOM     27  N   UNL     1      -2.447   2.454  23.837  0.00  0.00    -0.229 NA
ENDROOT
BRANCH  11  13
ATOM     13  C   UNL     1      -2.597  -1.145  24.819  0.00  0.00    +0.083 A 
ATOM     14  C   UNL     1      -2.942  -1.210  25.565  0.00  0.00    +0.012 A 
ATOM     15  C   UNL     1      -3.590  -1.716  25.502  0.00  0.00    +0.008 A 
ATOM     16  C   UNL     1      -3.645  -1.964  24.718  0.00  0.00    +0.036 A 
ATOM     17  S   UNL     1      -3.031  -1.612  24.295  0.00  0.00    -0.082 S 
ENDBRANCH  11  13
BRANCH   5   3
ATOM      3  C   UNL     1      -0.606   0.211  24.250  0.00  0.00    +0.336 C 
ATOM      4  O   UNL     1      -0.200   0.136  24.964  0.00  0.00    -0.248 OA
BRANCH   3   2
ATOM      1  C   UNL     1       0.557  -0.158  23.505  0.00  0.00    +0.256 C 
ATOM      2  O   UNL     1      -0.260  -0.058  23.550  0.00  0.00    -0.443 OA
ENDBRANCH   3   2
ENDBRANCH   5   3
BRANCH  18  19
ATOM     19  C   UNL     1      -4.301   1.496  24.285  0.00  0.00    +0.134 C 
BRANCH  19  20
ATOM     20  C   UNL     1      -4.778   1.947  24.785  0.00  0.00    +0.000 A 
ATOM     21  C   UNL     1      -5.165   1.589  25.419  0.00  0.00    -0.002 A 
ATOM     22  C   UNL     1      -5.642   2.040  25.919  0.00  0.00    -0.000 A 
ATOM     23  C   UNL     1      -5.731   2.849  25.784  0.00  0.00    -0.000 A 
ATOM     24  C   UNL     1      -5.344   3.207  25.150  0.00  0.00    -0.000 A 
ATOM     25  C   UNL     1      -4.867   2.756  24.650  0.00  0.00    -0.002 A 
ENDBRANCH  19  20
ENDBRANCH  18  19
TORSDOF 5
ENDMDL
