MODEL 1
REMARK VINA RESULT:     -11.1      0.000      0.000
REMARK  Name = 
REMARK  3 active torsions:
REMARK  status: ('A' for Active; 'I' for Inactive)
REMARK    1  A    between atoms: O_2  and  C_3
REMARK    2  A    between atoms: C_8  and  N_9
REMARK    3  A    between atoms: N_12  and  C_15
REMARK                            x       y       z     vdW  Elec       q    Type
REMARK                         _______ _______ _______ _____ _____    ______ ____
ROOT
ATOM      9  N   UNL     1      -3.814  -0.176  24.530  0.00  0.00    -0.302 N 
ATOM     10  C   UNL     1      -4.077   0.128  25.250  0.00  0.00    +0.108 C 
ATOM     11  C   UNL     1      -4.181   0.942  25.340  0.00  0.00    +0.094 C 
ATOM     12  N   UNL     1      -4.022   1.450  24.710  0.00  0.00    -0.265 NA
ATOM     13  C   UNL     1      -3.760   1.145  23.990  0.00  0.00    +0.094 C 
ATOM     14  C   UNL     1      -3.656   0.331  23.900  0.00  0.00    +0.108 C 
ENDROOT
BRANCH  12  15
ATOM     15  C   UNL     1      -4.126   2.264  24.800  0.00  0.00    +0.147 C 
ATOM     16  C   UNL     1      -4.990   1.829  24.712  0.00  0.00    +0.253 C 
ATOM     17  O   UNL     1      -5.128   0.964  24.605  0.00  0.00    -0.327 OA
ATOM     18  C   UNL     1      -4.748   1.576  24.693  0.00  0.00    +0.176 C 
ATOM     19  C   UNL     1      -4.786   2.348  24.781  0.00  0.00    +0.167 C 
ATOM     20  O   UNL     1      -5.484   2.487  24.766  0.00  0.00    -0.328 OA
ATOM     21  C   UNL     1      -3.967   2.777  24.867  0.00  0.00    +0.153 C 
ATOM     22  N   UNL     1      -3.786   3.577  24.968  0.00  0.00    -0.128 NA
ATOM     23  C   UNL     1      -3.472   2.115  24.812  0.00  0.00    +0.191 C 
ATOM     24  O   UNL     1      -2.780   1.665  24.790  0.00  0.00    -0.220 OA
ENDBRANCH  12  15
BRANCH   9   8
ATOM      3  C   UNL     1      -3.037  -1.356  24.748  0.00  0.00    +0.152 A 
ATOM      4  C   UNL     1      -2.933  -2.169  24.659  0.00  0.00    +0.038 A 
ATOM      5  C   UNL     1      -3.501  -2.617  24.264  0.00  0.00    +0.003 A 
ATOM      6  C   UNL     1      -4.175  -2.252  23.957  0.00  0.00    +0.001 A 
ATOM      7  C   UNL     1      -4.279  -1.439  24.046  0.00  0.00    +0.018 A 
ATOM      8  C   UNL     1      -3.710  -0.990  24.441  0.00  0.00    +0.082 A 
BRANCH   3   2
ATOM      1  C   UNL     1      -1.771  -1.263  25.404  0.00  0.00    +0.253 C 
ATOM      2  O   UNL     1      -2.467  -0.908  25.143  0.00  0.00    -0.470 OA
ENDBRANCH   3   2
ENDBRANCH   9   8
TORSDOF 3
ENDMDL
MODEL 2
REMARK VINA RESULT:     -11.1      1.068      3.663
REMARK  Name = 
REMARK  3 active torsions:
REMARK  status: ('A' for Active; 'I' for Inactive)
REMARK    1  A    between atoms: O_2  and  C_3
REMARK    2  A    between atoms: C_8  and  N_9
REMARK    3  A    between atoms: N_12  and  C_15
REMARK                            x       y       z     vdW  Elec       q    Type
REMARK                         _______ _______ _______ _____ _____    ______ ____
ROOT
ATOM      9  N   UNL     1      -4.213   0.526  24.809  0.00  0.00    -0.302 N 
ATOM     10  C   UNL     1      -4.149  -0.000  25.440  0.00  0.00    +0.108 C 
ATOM     11  C   UNL     1      -3.791  -0.735  25.330  0.00  0.00    +0.094 C 
ATOM     12  N   UNL     1      -3.497  -0.944  24.588  0.00  0.00    -0.265 NA
ATOM     13  C   UNL     1      -3.561  -0.417  23.956  0.00  0.00    +0.094 C 
ATOM     14  C   UNL     1      -3.920   0.318  24.066  0.00  0.00    +0.108 C 
ENDROOT
BRANCH  12  15
ATOM     15  C   UNL     1      -3.138  -1.679  24.477  0.00  0.00    +0.147 C 
ATOM     16  C   UNL     1      -4.059  -1.711  24.169  0.00  0.00    +0.253 C 
ATOM     17  O   UNL     1      -4.637  -1.045  24.187  0.00  0.00    -0.327 OA
ATOM     18  C   UNL     1      -4.004  -1.386  24.287  0.00  0.00    +0.176 C 
ATOM     19  C   UNL     1      -3.616  -2.055  24.206  0.00  0.00    +0.167 C 
ATOM     20  O   UNL     1      -4.094  -2.495  23.915  0.00  0.00    -0.328 OA
ATOM     21  C   UNL     1      -2.734  -2.038  24.498  0.00  0.00    +0.153 C 
ATOM     22  N   UNL     1      -2.157  -2.630  24.502  0.00  0.00    -0.128 NA
ATOM     23  C   UNL     1      -2.701  -1.250  24.751  0.00  0.00    +0.191 C 
ATOM     24  O   UNL     1      -2.396  -0.551  25.066  0.00  0.00    -0.220 OA
ENDBRANCH  12  15
BRANCH   9   8
ATOM      3  C   UNL     1      -4.111   1.945  24.939  0.00  0.00    +0.152 A 
ATOM      4  C   UNL     1      -4.469   2.680  25.050  0.00  0.00    +0.038 A 
ATOM      5  C   UNL     1      -5.287   2.731  25.143  0.00  0.00    +0.003 A 
ATOM      6  C   UNL     1      -5.748   2.046  25.124  0.00  0.00    +0.001 A 
ATOM      7  C   UNL     1      -5.390   1.312  25.012  0.00  0.00    +0.018 A 
ATOM      8  C   UNL     1      -4.572   1.261  24.920  0.00  0.00    +0.082 A 
BRANCH   3   2
ATOM      1  C   UNL     1      -2.831   2.577  24.884  0.00  0.00    +0.253 C 
ATOM      2  O   UNL     1      -3.292   1.895  24.847  0.00  0.00    -0.470 OA
ENDBRANCH   3   2
ENDBRANCH   9   8
TORSDOF 3
ENDMDL
MODEL 3
REMARK VINA RESULT:     -10.8      2.671      4.026
REMARK  Name = 
REMARK  3 active torsions:
REMARK  status: ('A' for Active; 'I' for Inactive)
REMARK    1  A    between atoms: O_2  and  C_3
REMARK    2  A    between atoms: C_8  and  N_9
REMARK    3  A    between atoms: N_12  and  C_15
REMARK                            x       y       z     vdW  Elec       q    Type
REMARK                         _______ _______ _______ _____ _____    ______ ____
ROOT
ATOM      9  N   UNL     1      -2.921   3.637  25.032  0.00  0.00    -0.302 N 
ATOM     10  C   UNL     1      -3.433   3.704  24.389  0.00  0.00    +0.108 C 
ATOM     11  C   UNL     1      -4.180   3.356  24.419  0.00  0.00    +0.094 C 
ATOM     12  N   UNL     1      -4.415   2.940  25.091  0.00  0.00    -0.265 NA
ATOM     13  C   UNL     1      -3.902   2.873  25.735  0.00  0.00    +0.094 C 
ATOM     14  C   UNL     1      -3.155   3.222  25.705  0.00  0.00    +0.108 C 
ENDROOT
BRANCH  12  15
ATOM     15  C   UNL     1      -5.162   2.591  25.121  0.00  0.00    +0.147 C 
ATOM     16  C   UNL     1      -5.174   3.437  25.598  0.00  0.00    +0.253 C 
ATOM     17  O   UNL     1      -4.491   3.986  25.700  0.00  0.00    -0.327 OA
ATOM     18  C   UNL     1      -4.848   3.395  25.476  0.00  0.00    +0.176 C 
ATOM     19  C   UNL     1      -5.530   3.021  25.472  0.00  0.00    +0.167 C 
ATOM     20  O   UNL     1      -5.962   3.449  25.842  0.00  0.00    -0.328 OA
ATOM     21  C   UNL     1      -5.533   2.209  25.019  0.00  0.00    +0.153 C 
ATOM     22  N   UNL     1      -6.140   1.664  24.896  0.00  0.00    -0.128 NA
ATOM     23  C   UNL     1      -4.741   2.200  24.775  0.00  0.00    +0.191 C 
ATOM     24  O   UNL     1      -4.044   1.938  24.419  0.00  0.00    -0.220 OA
ENDBRANCH  12  15
BRANCH   9   8
ATOM      3  C   UNL     1      -1.513   3.530  24.813  0.00  0.00    +0.152 A 
ATOM      4  C   UNL     1      -0.765   3.878  24.783  0.00  0.00    +0.038 A 
ATOM      5  C   UNL     1      -0.679   4.683  24.941  0.00  0.00    +0.003 A 
ATOM      6  C   UNL     1      -1.340   5.140  25.129  0.00  0.00    +0.001 A 
ATOM      7  C   UNL     1      -2.087   4.792  25.159  0.00  0.00    +0.018 A 
ATOM      8  C   UNL     1      -2.174   3.987  25.002  0.00  0.00    +0.082 A 
BRANCH   3   2
ATOM      1  C   UNL     1      -0.940   2.270  24.460  0.00  0.00    +0.253 C 
ATOM      2  O   UNL     1      -1.599   2.724  24.656  0.00  0.00    -0.470 OA
ENDBRANCH   3   2
ENDBRANCH   9   8
TORSDOF 3
ENDMDL
MODEL 4
REMARK VINA RESULT:     -10.2      2.431      4.823
REMARK  Name = 
REMARK  3 active torsions:
REMARK  status: ('A' for Active; 'I' for Inactive)
REMARK    1  A    between atoms: O_2  and  C_3
REMARK    2  A    between atoms: C_8  and  N_9
REMARK    3  A    between atoms: N_12  and  C_15
REMARK                            x       y       z     vdW  Elec       q    Type
REMARK                         _______ _______ _______ _____ _____    ______ ____
ROOT
ATOM      9  N   UNL     1      -1.322   2.447  24.891  0.00  0.00    -0.302 N 
ATOM     10  C   UNL     1      -0.959   1.993  25.476  0.00  0.00    +0.108 C 
ATOM     11  C   UNL     1      -0.839   1.186  25.358  0.00  0.00    +0.094 C 
ATOM     12  N   UNL     1      -1.082   0.832  24.653  0.00  0.00    -0.265 NA
ATOM     13  C   UNL     1      -1.446   1.286  24.068  0.00  0.00    +0.094 C 
ATOM     14  C   UNL     1      -1.565   2.093  24.187  0.00  0.00    +0.108 C 
ENDROOT
BRANCH  12  15
ATOM     15  C   UNL     1      -0.963   0.024  24.534  0.00  0.00    +0.147 C 
ATOM     16  C   UNL     1      -0.254   0.529  24.104  0.00  0.00    +0.253 C 
ATOM     17  O   UNL     1      -0.172   1.408  24.096  0.00  0.00    -0.327 OA
ATOM     18  C   UNL     1      -0.467   0.764  24.253  0.00  0.00    +0.176 C 
ATOM     19  C   UNL     1      -0.405  -0.007  24.173  0.00  0.00    +0.167 C 
ATOM     20  O   UNL     1       0.188  -0.091  23.787  0.00  0.00    -0.328 OA
ATOM     21  C   UNL     1      -1.077  -0.503  24.580  0.00  0.00    +0.153 C 
ATOM     22  N   UNL     1      -1.197  -1.320  24.616  0.00  0.00    -0.128 NA
ATOM     23  C   UNL     1      -1.518   0.122  24.898  0.00  0.00    +0.191 C 
ATOM     24  O   UNL     1      -2.118   0.517  25.304  0.00  0.00    -0.220 OA
ENDBRANCH  12  15
BRANCH   9   8
ATOM      3  C   UNL     1      -2.193   3.536  25.202  0.00  0.00    +0.152 A 
ATOM      4  C   UNL     1      -2.314   4.343  25.322  0.00  0.00    +0.038 A 
ATOM      5  C   UNL     1      -1.682   4.869  25.251  0.00  0.00    +0.003 A 
ATOM      6  C   UNL     1      -0.930   4.587  25.060  0.00  0.00    +0.001 A 
ATOM      7  C   UNL     1      -0.810   3.781  24.940  0.00  0.00    +0.018 A 
ATOM      8  C   UNL     1      -1.441   3.254  25.011  0.00  0.00    +0.082 A 
BRANCH   3   2
ATOM      1  C   UNL     1      -3.582   3.294  25.437  0.00  0.00    +0.253 C 
ATOM      2  O   UNL     1      -2.826   3.010  25.273  0.00  0.00    -0.470 OA
ENDBRANCH   3   2
ENDBRANCH   9   8
TORSDOF 3
ENDMDL
MODEL 5
REMARK VINA RESULT:      -9.9      1.769      3.742
REMARK  Name = 
REMARK  3 active torsions:
REMARK  status: ('A' for Active; 'I' for Inactive)
REMARK    1  A    between atoms: O_2  and  C_3
REMARK    2  A    between atoms: C_8  and  N_9
REMARK    3  A    between atoms: N_12  and  C_15
REMARK                            x       y       z     vdW  Elec       q    Type
REMARK                         _______ _______ _______ _____ _____    ______ ____
ROOT
ATOM      9  N   UNL     1      -3.231   1.356  24.633  0.00  0.00    -0.302 N 
ATOM     10  C   UNL     1      -3.071   0.842  24.009  0.00  0.00    +0.108 C 
ATOM     11  C   UNL     1      -2.300   0.582  23.876  0.00  0.00    +0.094 C 
ATOM     12  N   UNL     1      -1.688   0.836  24.368  0.00  0.00    -0.265 NA
ATOM     13  C   UNL     1      -1.848   1.351  24.993  0.00  0.00    +0.094 C 
ATOM     14  C   UNL     1      -2.620   1.611  25.125  0.00  0.00    +0.108 C 
ENDROOT
BRANCH  12  15
ATOM     15  C   UNL     1      -0.916   0.577  24.235  0.00  0.00    +0.147 C 
ATOM     16  C   UNL     1      -1.315   0.068  24.959  0.00  0.00    +0.253 C 
ATOM     17  O   UNL     1      -2.132   0.169  25.277  0.00  0.00    -0.327 OA
ATOM     18  C   UNL     1      -1.558   0.296  24.851  0.00  0.00    +0.176 C 
ATOM     19  C   UNL     1      -0.827   0.092  24.682  0.00  0.00    +0.167 C 
ATOM     20  O   UNL     1      -0.685  -0.432  25.143  0.00  0.00    -0.328 OA
ATOM     21  C   UNL     1      -0.432   0.571  23.991  0.00  0.00    +0.153 C 
ATOM     22  N   UNL     1       0.322   0.515  23.659  0.00  0.00    -0.128 NA
ATOM     23  C   UNL     1      -1.067   1.072  23.808  0.00  0.00    +0.191 C 
ATOM     24  O   UNL     1      -1.503   1.663  23.431  0.00  0.00    -0.220 OA
ENDBRANCH  12  15
BRANCH   9   8
ATOM      3  C   UNL     1      -4.199   2.408  24.641  0.00  0.00    +0.152 A 
ATOM      4  C   UNL     1      -4.970   2.668  24.773  0.00  0.00    +0.038 A 
ATOM      5  C   UNL     1      -5.546   2.136  25.030  0.00  0.00    +0.003 A 
ATOM      6  C   UNL     1      -5.351   1.344  25.154  0.00  0.00    +0.001 A 
ATOM      7  C   UNL     1      -4.580   1.084  25.022  0.00  0.00    +0.018 A 
ATOM      8  C   UNL     1      -4.003   1.616  24.766  0.00  0.00    +0.082 A 
BRANCH   3   2
ATOM      1  C   UNL     1      -3.817   3.732  24.262  0.00  0.00    +0.253 C 
ATOM      2  O   UNL     1      -3.622   2.940  24.385  0.00  0.00    -0.470 OA
ENDBRANCH   3   2
ENDBRANCH   9   8
TORSDOF 3
ENDMDL
