MODEL 1
REMARK VINA RESULT:     -11.2      0.000      0.000
REMARK  Name = 
REMARK  4 active torsions:
REMARK  status: ('A' for Active; 'I' for Inactive)
REMARK    1  A    between atoms: O_2  and  C_3
REMARK    2  A    between atoms: C_6  and  C_9
REMARK    3  A    between atoms: N_18  and  C_19
REMARK    4  A    between atoms: C_19  and  C_20
REMARK                            x       y       z     vdW  Elec       q    Type
REMARK                         _______ _______ _______ _____ _____    ______ ____
ROOT
ATOM      9  C   UNL     1      -3.179   0.461  24.367  0.00  0.00    +0.249 C 
ATOM     10  O   UNL     1      -2.454   0.679  24.041  0.00  0.00    -0.270 OA
ATOM     11  N   UNL     1      -3.696   1.040  24.648  0.00  0.00    -0.272 N 
ATOM     12  C   UNL     1      -4.437   0.905  24.987  0.00  0.00    +0.125 C 
ATOM     13  C   UNL     1      -4.762   1.635  25.187  0.00  0.00    +0.155 C 
ATOM     14  O   UNL     1      -5.479   1.844  25.538  0.00  0.00    -0.343 OA
ATOM     15  C   UNL     1      -5.658   2.637  25.673  0.00  0.00    +0.227 C 
ATOM     16  C   UNL     1      -5.119   3.223  25.458  0.00  0.00    +0.256 C 
ATOM     17  O   UNL     1      -5.298   4.018  25.593  0.00  0.00    -0.272 OA
ATOM     18  N   UNL     1      -4.402   3.016  25.107  0.00  0.00    -0.275 N 
ATOM     23  C   UNL     1      -4.223   2.222  24.972  0.00  0.00    +0.124 C 
ATOM     24  C   UNL     1      -3.565   1.854  24.639  0.00  0.00    +0.116 C 
ENDROOT
BRANCH   9   6
ATOM      3  C   UNL     1      -3.803  -1.931  24.506  0.00  0.00    +0.139 A 
ATOM      4  C   UNL     1      -3.366  -1.582  25.113  0.00  0.00    +0.037 A 
ATOM      5  C   UNL     1      -3.158  -0.784  25.067  0.00  0.00    +0.008 A 
ATOM      6  C   UNL     1      -3.387  -0.336  24.413  0.00  0.00    +0.054 A 
ATOM      7  C   UNL     1      -3.823  -0.685  23.806  0.00  0.00    +0.008 A 
ATOM      8  C   UNL     1      -4.031  -1.481  23.852  0.00  0.00    +0.037 A 
BRANCH   3   2
ATOM      1  C   UNL     1      -3.425  -3.308  24.520  0.00  0.00    +0.252 C 
ATOM      2  O   UNL     1      -4.010  -2.727  24.552  0.00  0.00    -0.471 OA
ENDBRANCH   3   2
ENDBRANCH   9   6
BRANCH  18  19
ATOM     19  C   UNL     1      -3.863   3.603  24.892  0.00  0.00    +0.094 C 
BRANCH  19  20
ATOM     20  C   UNL     1      -3.315   3.882  25.443  0.00  0.00    +0.020 C 
ATOM     21  C   UNL     1      -2.538   4.075  25.642  0.00  0.00    +0.002 C 
ATOM     22  C   UNL     1      -3.143   4.171  26.196  0.00  0.00    +0.002 C 
ENDBRANCH  19  20
ENDBRANCH  18  19
TORSDOF 4
ENDMDL
MODEL 2
REMARK VINA RESULT:     -11.0      1.326      2.259
REMARK  Name = 
REMARK  4 active torsions:
REMARK  status: ('A' for Active; 'I' for Inactive)
REMARK    1  A    between atoms: O_2  and  C_3
REMARK    2  A    between atoms: C_6  and  C_9
REMARK    3  A    between atoms: N_18  and  C_19
REMARK    4  A    between atoms: C_19  and  C_20
REMARK                            x       y       z     vdW  Elec       q    Type
REMARK                         _______ _______ _______ _____ _____    ______ ____
ROOT
ATOM      9  C   UNL     1      -3.946   0.489  24.866  0.00  0.00    +0.249 C 
ATOM     10  O   UNL     1      -4.673   0.841  25.034  0.00  0.00    -0.270 OA
ATOM     11  N   UNL     1      -3.282   0.958  24.725  0.00  0.00    -0.272 N 
ATOM     12  C   UNL     1      -2.523   0.684  24.552  0.00  0.00    +0.125 C 
ATOM     13  C   UNL     1      -2.033   1.340  24.453  0.00  0.00    +0.155 C 
ATOM     14  O   UNL     1      -1.230   1.408  24.275  0.00  0.00    -0.343 OA
ATOM     15  C   UNL     1      -0.884   2.153  24.209  0.00  0.00    +0.227 C 
ATOM     16  C   UNL     1      -1.339   2.831  24.321  0.00  0.00    +0.256 C 
ATOM     17  O   UNL     1      -0.992   3.578  24.255  0.00  0.00    -0.272 OA
ATOM     18  N   UNL     1      -2.142   2.765  24.499  0.00  0.00    -0.275 N 
ATOM     23  C   UNL     1      -2.489   2.019  24.565  0.00  0.00    +0.124 C 
ATOM     24  C   UNL     1      -3.261   1.782  24.733  0.00  0.00    +0.116 C 
ENDROOT
BRANCH   9   6
ATOM      3  C   UNL     1      -3.758  -1.979  24.786  0.00  0.00    +0.139 A 
ATOM      4  C   UNL     1      -4.003  -1.562  24.118  0.00  0.00    +0.037 A 
ATOM      5  C   UNL     1      -4.065  -0.739  24.144  0.00  0.00    +0.008 A 
ATOM      6  C   UNL     1      -3.883  -0.334  24.840  0.00  0.00    +0.054 A 
ATOM      7  C   UNL     1      -3.639  -0.751  25.508  0.00  0.00    +0.008 A 
ATOM      8  C   UNL     1      -3.576  -1.573  25.481  0.00  0.00    +0.037 A 
BRANCH   3   2
ATOM      1  C   UNL     1      -3.040  -3.152  24.402  0.00  0.00    +0.252 C 
ATOM      2  O   UNL     1      -3.695  -2.800  24.759  0.00  0.00    -0.471 OA
ENDBRANCH   3   2
ENDBRANCH   9   6
BRANCH  18  19
ATOM     19  C   UNL     1      -2.598   3.443  24.611  0.00  0.00    +0.094 C 
BRANCH  19  20
ATOM     20  C   UNL     1      -2.568   3.846  25.331  0.00  0.00    +0.020 C 
ATOM     21  C   UNL     1      -2.925   4.066  26.041  0.00  0.00    +0.002 C 
ATOM     22  C   UNL     1      -2.159   4.321  25.867  0.00  0.00    +0.002 C 
ENDBRANCH  19  20
ENDBRANCH  18  19
TORSDOF 4
ENDMDL
MODEL 3
REMARK VINA RESULT:     -10.3      1.124      1.224
REMARK  Name = 
REMARK  4 active torsions:
REMARK  status: ('A' for Active; 'I' for Inactive)
REMARK    1  A    between atoms: O_2  and  C_3
REMARK    2  A    between atoms: C_6  and  C_9
REMARK    3  A    between atoms: N_18  and  C_19
REMARK    4  A    between atoms: C_19  and  C_20
REMARK                            x       y       z     vdW  Elec       q    Type
REMARK                         _______ _______ _______ _____ _____    ______ ____
ROOT
ATOM      9  C   UNL     1      -2.266   0.147  25.070  0.00  0.00    +0.249 C 
ATOM     10  O   UNL     1      -1.475   0.237  25.285  0.00  0.00    -0.270 OA
ATOM     11  N   UNL     1      -2.718   0.808  24.871  0.00  0.00    -0.272 N 
ATOM     12  C   UNL     1      -3.513   0.802  24.647  0.00  0.00    +0.125 C 
ATOM     13  C   UNL     1      -3.741   1.581  24.499  0.00  0.00    +0.155 C 
ATOM     14  O   UNL     1      -4.459   1.910  24.261  0.00  0.00    -0.343 OA
ATOM     15  C   UNL     1      -4.524   2.725  24.155  0.00  0.00    +0.227 C 
ATOM     16  C   UNL     1      -3.871   3.212  24.288  0.00  0.00    +0.256 C 
ATOM     17  O   UNL     1      -3.936   4.028  24.183  0.00  0.00    -0.272 OA
ATOM     18  N   UNL     1      -3.153   2.884  24.527  0.00  0.00    -0.275 N 
ATOM     23  C   UNL     1      -3.088   2.067  24.632  0.00  0.00    +0.124 C 
ATOM     24  C   UNL     1      -2.456   1.590  24.862  0.00  0.00    +0.116 C 
ENDROOT
BRANCH   9   6
ATOM      3  C   UNL     1      -3.284  -2.110  25.023  0.00  0.00    +0.139 A 
ATOM      4  C   UNL     1      -3.341  -1.646  25.703  0.00  0.00    +0.037 A 
ATOM      5  C   UNL     1      -3.001  -0.893  25.719  0.00  0.00    +0.008 A 
ATOM      6  C   UNL     1      -2.606  -0.606  25.054  0.00  0.00    +0.054 A 
ATOM      7  C   UNL     1      -2.549  -1.070  24.374  0.00  0.00    +0.008 A 
ATOM      8  C   UNL     1      -2.888  -1.821  24.359  0.00  0.00    +0.037 A 
BRANCH   3   2
ATOM      1  C   UNL     1      -3.890  -3.178  24.294  0.00  0.00    +0.252 C 
ATOM      2  O   UNL     1      -3.623  -2.861  25.008  0.00  0.00    -0.471 OA
ENDBRANCH   3   2
ENDBRANCH   9   6
BRANCH  18  19
ATOM     19  C   UNL     1      -2.500   3.370  24.660  0.00  0.00    +0.094 C 
BRANCH  19  20
ATOM     20  C   UNL     1      -2.407   3.744  25.390  0.00  0.00    +0.020 C 
ATOM     21  C   UNL     1      -1.951   3.896  26.060  0.00  0.00    +0.002 C 
ATOM     22  C   UNL     1      -2.699   4.238  25.982  0.00  0.00    +0.002 C 
ENDBRANCH  19  20
ENDBRANCH  18  19
TORSDOF 4
ENDMDL
MODEL 4
REMARK VINA RESULT:     -10.1      1.277      4.961
REMARK  Name = 
REMARK  4 active torsions:
REMARK  status: ('A' for Active; 'I' for Inactive)
REMARK    1  A    between atoms: O_2  and  C_3
REMARK    2  A    between atoms: C_6  and  C_9
REMARK    3  A    between atoms: N_18  and  C_19
REMARK    4  A    between atoms: C_19  and  C_20
REMARK                            x       y       z     vdW  Elec       q    Type
REMARK                         _______ _______ _______ _____ _____    ______ ____
ROOT
ATOM      9  C   UNL     1      -3.938   1.419  24.965  0.00  0.00    +0.249 C 
ATOM     10  O   UNL     1      -4.747   1.294  25.071  0.00  0.00    -0.270 OA
ATOM     11  N   UNL     1      -3.422   0.776  24.934  0.00  0.00    -0.272 N 
ATOM     12  C   UNL     1      -2.604   0.816  24.830  0.00  0.00    +0.125 C 
ATOM     13  C   UNL     1      -2.309   0.046  24.833  0.00  0.00    +0.155 C 
ATOM     14  O   UNL     1      -1.544  -0.253  24.754  0.00  0.00    -0.343 OA
ATOM     15  C   UNL     1      -1.414  -1.066  24.779  0.00  0.00    +0.227 C 
ATOM     16  C   UNL     1      -2.049  -1.582  24.883  0.00  0.00    +0.256 C 
ATOM     17  O   UNL     1      -1.919  -2.397  24.909  0.00  0.00    -0.272 OA
ATOM     18  N   UNL     1      -2.814  -1.285  24.963  0.00  0.00    -0.275 N 
ATOM     23  C   UNL     1      -2.944  -0.469  24.938  0.00  0.00    +0.124 C 
ATOM     24  C   UNL     1      -3.632  -0.018  25.000  0.00  0.00    +0.116 C 
ENDROOT
BRANCH   9   6
ATOM      3  C   UNL     1      -3.063   3.724  24.740  0.00  0.00    +0.139 A 
ATOM      4  C   UNL     1      -3.123   3.376  25.486  0.00  0.00    +0.037 A 
ATOM      5  C   UNL     1      -3.414   2.607  25.561  0.00  0.00    +0.008 A 
ATOM      6  C   UNL     1      -3.647   2.187  24.890  0.00  0.00    +0.054 A 
ATOM      7  C   UNL     1      -3.587   2.535  24.144  0.00  0.00    +0.008 A 
ATOM      8  C   UNL     1      -3.296   3.303  24.070  0.00  0.00    +0.037 A 
BRANCH   3   2
ATOM      1  C   UNL     1      -2.049   4.693  25.007  0.00  0.00    +0.252 C 
ATOM      2  O   UNL     1      -2.772   4.491  24.666  0.00  0.00    -0.471 OA
ENDBRANCH   3   2
ENDBRANCH   9   6
BRANCH  18  19
ATOM     19  C   UNL     1      -3.450  -1.801  25.068  0.00  0.00    +0.094 C 
BRANCH  19  20
ATOM     20  C   UNL     1      -3.778  -2.188  24.417  0.00  0.00    +0.020 C 
ATOM     21  C   UNL     1      -3.839  -2.860  23.943  0.00  0.00    +0.002 C 
ATOM     22  C   UNL     1      -4.283  -2.187  23.765  0.00  0.00    +0.002 C 
ENDBRANCH  19  20
ENDBRANCH  18  19
TORSDOF 4
ENDMDL
