MODEL 1
REMARK VINA RESULT:     -12.3      0.000      0.000
REMARK  Name = 
REMARK  8 active torsions:
REMARK  status: ('A' for Active; 'I' for Inactive)
REMARK    1  A    between atoms: C_2  and  C_4
REMARK    2  A    between atoms: C_6  and  C_7
REMARK    3  A    between atoms: C_7  and  C_8
REMARK    4  A    between atoms: C_11  and  C_13
REMARK    5  A    between atoms: C_23  and  C_24
REMARK    6  A    between atoms: C_24  and  N_25
REMARK    7  A    between atoms: N_25  and  C_26
REMARK    8  A    between atoms: C_26  and  C_27
REMARK                            x       y       z     vdW  Elec       q    Type
REMARK                         _______ _______ _______ _____ _____    ______ ____
ROOT
ATOM      4  C   UNL     1      -3.646   1.549  24.013  0.00  0.00    +0.006 C 
ATOM      5  C   UNL     1      -3.731   2.308  24.324  0.00  0.00    +0.005 C 
ATOM      6  C   UNL     1      -4.331   2.468  24.865  0.00  0.00    +0.027 C 
ATOM     20  C   UNL     1      -4.848   1.869  25.097  0.00  0.00    -0.048 C 
ATOM     21  C   UNL     1      -5.449   2.028  25.639  0.00  0.00    +0.026 C 
ATOM     22  C   UNL     1      -4.764   1.108  24.786  0.00  0.00    -0.033 C 
ATOM     23  C   UNL     1      -4.164   0.949  24.245  0.00  0.00    +0.039 C 
ENDROOT
BRANCH   4   2
ATOM      1  C   UNL     1      -3.161   1.547  22.669  0.00  0.00    +0.000 C 
ATOM      2  C   UNL     1      -3.045   1.389  23.471  0.00  0.00    +0.000 C 
ATOM      3  C   UNL     1      -2.330   1.072  23.731  0.00  0.00    +0.000 C 
ENDBRANCH   4   2
BRANCH   6   7
ATOM      7  C   UNL     1      -4.416   3.228  25.176  0.00  0.00    +0.091 C 
BRANCH   7   8
ATOM      8  C   UNL     1      -3.755   3.635  25.457  0.00  0.00    +0.227 A 
ATOM      9  N   UNL     1      -3.600   3.824  26.244  0.00  0.00    -0.111 NA
ATOM     10  N   UNL     1      -2.882   4.230  26.273  0.00  0.00    -0.107 NA
ATOM     11  C   UNL     1      -2.593   4.291  25.503  0.00  0.00    +0.252 A 
ATOM     12  O   UNL     1      -3.132   3.923  24.998  0.00  0.00    -0.419 OA
BRANCH  11  13
ATOM     13  C   UNL     1      -1.889   4.656  25.277  0.00  0.00    +0.083 A 
ATOM     14  C   UNL     1      -1.890   5.450  25.050  0.00  0.00    +0.007 A 
ATOM     15  C   UNL     1      -1.186   5.815  24.825  0.00  0.00    +0.000 A 
ATOM     16  C   UNL     1      -0.481   5.387  24.825  0.00  0.00    +0.002 A 
ATOM     17  C   UNL     1      -0.479   4.594  25.052  0.00  0.00    +0.030 A 
ATOM     18  C   UNL     1      -1.184   4.229  25.278  0.00  0.00    +0.145 A 
ATOM     19  F   UNL     1      -1.182   3.435  25.505  0.00  0.00    -0.204 F 
ENDBRANCH  11  13
ENDBRANCH   7   8
ENDBRANCH   6   7
BRANCH  23  24
ATOM     24  C   UNL     1      -4.079   0.189  23.934  0.00  0.00    +0.093 C 
BRANCH  24  25
ATOM     25  N   UNL     1      -4.215  -0.470  24.412  0.00  0.00    -0.211 NA
BRANCH  25  26
ATOM     26  C   UNL     1      -4.349  -1.207  24.068  0.00  0.00    +0.134 C 
BRANCH  26  27
ATOM     27  C   UNL     1      -3.985  -1.880  24.378  0.00  0.00    +0.077 A 
ATOM     28  N   UNL     1      -3.701  -1.875  25.153  0.00  0.00    -0.247 NA
ATOM     29  C   UNL     1      -3.337  -2.548  25.462  0.00  0.00    +0.098 A 
ATOM     30  C   UNL     1      -3.256  -3.225  24.997  0.00  0.00    +0.021 A 
ATOM     31  C   UNL     1      -3.540  -3.228  24.222  0.00  0.00    +0.003 A 
ATOM     32  C   UNL     1      -3.904  -2.556  23.913  0.00  0.00    +0.016 A 
ENDBRANCH  26  27
ENDBRANCH  25  26
ENDBRANCH  24  25
ENDBRANCH  23  24
TORSDOF 8
ENDMDL
MODEL 2
REMARK VINA RESULT:     -10.8      2.981      4.636
REMARK  Name = 
REMARK  8 active torsions:
REMARK  status: ('A' for Active; 'I' for Inactive)
REMARK    1  A    between atoms: C_2  and  C_4
REMARK    2  A    between atoms: C_6  and  C_7
REMARK    3  A    between atoms: C_7  and  C_8
REMARK    4  A    between atoms: C_11  and  C_13
REMARK    5  A    between atoms: C_23  and  C_24
REMARK    6  A    between atoms: C_24  and  N_25
REMARK    7  A    between atoms: N_25  and  C_26
REMARK    8  A    between atoms: C_26  and  C_27
REMARK                            x       y       z     vdW  Elec       q    Type
REMARK                         _______ _______ _______ _____ _____    ______ ____
ROOT
ATOM      4  C   UNL     1      -1.245   0.952  24.793  0.00  0.00    +0.006 C 
ATOM      5  C   UNL     1      -1.681   1.593  25.077  0.00  0.00    +0.005 C 
ATOM      6  C   UNL     1      -1.429   2.362  24.925  0.00  0.00    +0.027 C 
ATOM     20  C   UNL     1      -0.741   2.493  24.490  0.00  0.00    -0.048 C 
ATOM     21  C   UNL     1      -0.489   3.264  24.338  0.00  0.00    +0.026 C 
ATOM     22  C   UNL     1      -0.305   1.853  24.205  0.00  0.00    -0.033 C 
ATOM     23  C   UNL     1      -0.557   1.083  24.357  0.00  0.00    +0.039 C 
ENDROOT
BRANCH   4   2
ATOM      1  C   UNL     1      -1.984  -0.207  24.404  0.00  0.00    +0.000 C 
ATOM      2  C   UNL     1      -1.498   0.181  24.945  0.00  0.00    +0.000 C 
ATOM      3  C   UNL     1      -1.263  -0.200  25.638  0.00  0.00    +0.000 C 
ENDBRANCH   4   2
BRANCH   6   7
ATOM      7  C   UNL     1      -1.865   3.003  25.210  0.00  0.00    +0.091 C 
BRANCH   7   8
ATOM      8  C   UNL     1      -2.663   3.078  25.014  0.00  0.00    +0.227 A 
ATOM      9  N   UNL     1      -2.975   3.568  24.428  0.00  0.00    -0.111 NA
ATOM     10  N   UNL     1      -3.794   3.469  24.422  0.00  0.00    -0.107 NA
ATOM     11  C   UNL     1      -3.989   2.918  25.005  0.00  0.00    +0.252 A 
ATOM     12  O   UNL     1      -3.290   2.677  25.371  0.00  0.00    -0.419 OA
BRANCH  11  13
ATOM     13  C   UNL     1      -4.748   2.655  25.189  0.00  0.00    +0.083 A 
ATOM     14  C   UNL     1      -5.154   2.982  25.830  0.00  0.00    +0.007 A 
ATOM     15  C   UNL     1      -5.913   2.719  26.014  0.00  0.00    +0.000 A 
ATOM     16  C   UNL     1      -6.268   2.130  25.559  0.00  0.00    +0.002 A 
ATOM     17  C   UNL     1      -5.863   1.803  24.918  0.00  0.00    +0.030 A 
ATOM     18  C   UNL     1      -5.103   2.066  24.734  0.00  0.00    +0.145 A 
ATOM     19  F   UNL     1      -4.698   1.740  24.093  0.00  0.00    -0.204 F 
ENDBRANCH  11  13
ENDBRANCH   7   8
ENDBRANCH   6   7
BRANCH  23  24
ATOM     24  C   UNL     1      -0.121   0.442  24.073  0.00  0.00    +0.093 C 
BRANCH  24  25
ATOM     25  N   UNL     1       0.545   0.571  23.604  0.00  0.00    -0.211 NA
BRANCH  25  26
ATOM     26  C   UNL     1       0.958  -0.070  23.290  0.00  0.00    +0.134 C 
BRANCH  26  27
ATOM     27  C   UNL     1       1.668   0.055  22.886  0.00  0.00    +0.077 A 
ATOM     28  N   UNL     1       2.285   0.461  23.253  0.00  0.00    -0.247 NA
ATOM     29  C   UNL     1       2.994   0.585  22.850  0.00  0.00    +0.098 A 
ATOM     30  C   UNL     1       3.085   0.303  22.079  0.00  0.00    +0.021 A 
ATOM     31  C   UNL     1       2.468  -0.104  21.714  0.00  0.00    +0.003 A 
ATOM     32  C   UNL     1       1.759  -0.228  22.117  0.00  0.00    +0.016 A 
ENDBRANCH  26  27
ENDBRANCH  25  26
ENDBRANCH  24  25
ENDBRANCH  23  24
TORSDOF 8
ENDMDL
MODEL 3
REMARK VINA RESULT:     -10.8      3.012      5.469
REMARK  Name = 
REMARK  8 active torsions:
REMARK  status: ('A' for Active; 'I' for Inactive)
REMARK    1  A    between atoms: C_2  and  C_4
REMARK    2  A    between atoms: C_6  and  C_7
REMARK    3  A    between atoms: C_7  and  C_8
REMARK    4  A    between atoms: C_11  and  C_13
REMARK    5  A    between atoms: C_23  and  C_24
REMARK    6  A    between atoms: C_24  and  N_25
REMARK    7  A    between atoms: N_25  and  C_26
REMARK    8  A    between atoms: C_26  and  C_27
REMARK                            x       y       z     vdW  Elec       q    Type
REMARK                         _______ _______ _______ _____ _____    ______ ____
ROOT
ATOM      4  C   UNL     1      -1.184   1.687  24.930  0.00  0.00    +0.006 C 
ATOM      5  C   UNL     1      -2.005   1.630  24.876  0.00  0.00    +0.005 C 
ATOM      6  C   UNL     1      -2.374   1.652  24.139  0.00  0.00    +0.027 C 
ATOM     20  C   UNL     1      -1.922   1.731  23.454  0.00  0.00    -0.048 C 
ATOM     21  C   UNL     1      -2.290   1.753  22.716  0.00  0.00    +0.026 C 
ATOM     22  C   UNL     1      -1.100   1.789  23.507  0.00  0.00    -0.033 C 
ATOM     23  C   UNL     1      -0.731   1.767  24.244  0.00  0.00    +0.039 C 
ENDROOT
BRANCH   4   2
ATOM      1  C   UNL     1      -0.646   0.940  26.022  0.00  0.00    +0.000 C 
ATOM      2  C   UNL     1      -0.816   1.665  25.667  0.00  0.00    +0.000 C 
ATOM      3  C   UNL     1      -0.617   2.368  26.050  0.00  0.00    +0.000 C 
ENDBRANCH   4   2
BRANCH   6   7
ATOM      7  C   UNL     1      -3.196   1.595  24.087  0.00  0.00    +0.091 C 
BRANCH   7   8
ATOM      8  C   UNL     1      -3.579   0.913  24.348  0.00  0.00    +0.227 A 
ATOM      9  N   UNL     1      -4.237   0.886  24.844  0.00  0.00    -0.111 NA
ATOM     10  N   UNL     1      -4.437   0.094  24.961  0.00  0.00    -0.107 NA
ATOM     11  C   UNL     1      -3.903  -0.369  24.537  0.00  0.00    +0.252 A 
ATOM     12  O   UNL     1      -3.372   0.137  24.157  0.00  0.00    -0.419 OA
BRANCH  11  13
ATOM     13  C   UNL     1      -3.898  -1.193  24.498  0.00  0.00    +0.083 A 
ATOM     14  C   UNL     1      -4.248  -1.577  23.857  0.00  0.00    +0.007 A 
ATOM     15  C   UNL     1      -4.244  -2.401  23.818  0.00  0.00    +0.000 A 
ATOM     16  C   UNL     1      -3.891  -2.840  24.420  0.00  0.00    +0.002 A 
ATOM     17  C   UNL     1      -3.542  -2.456  25.062  0.00  0.00    +0.030 A 
ATOM     18  C   UNL     1      -3.546  -1.632  25.100  0.00  0.00    +0.145 A 
ATOM     19  F   UNL     1      -3.197  -1.248  25.742  0.00  0.00    -0.204 F 
ENDBRANCH  11  13
ENDBRANCH   7   8
ENDBRANCH   6   7
BRANCH  23  24
ATOM     24  C   UNL     1       0.090   1.824  24.297  0.00  0.00    +0.093 C 
BRANCH  24  25
ATOM     25  N   UNL     1       0.567   1.443  23.742  0.00  0.00    -0.211 NA
BRANCH  25  26
ATOM     26  C   UNL     1       1.388   1.471  23.817  0.00  0.00    +0.134 C 
BRANCH  26  27
ATOM     27  C   UNL     1       1.863   1.007  23.325  0.00  0.00    +0.077 A 
ATOM     28  N   UNL     1       2.650   1.216  23.196  0.00  0.00    -0.247 NA
ATOM     29  C   UNL     1       3.124   0.753  22.705  0.00  0.00    +0.098 A 
ATOM     30  C   UNL     1       2.811   0.080  22.343  0.00  0.00    +0.021 A 
ATOM     31  C   UNL     1       2.024  -0.128  22.473  0.00  0.00    +0.003 A 
ATOM     32  C   UNL     1       1.549   0.335  22.964  0.00  0.00    +0.016 A 
ENDBRANCH  26  27
ENDBRANCH  25  26
ENDBRANCH  24  25
ENDBRANCH  23  24
TORSDOF 8
ENDMDL
MODEL 4
REMARK VINA RESULT:     -10.5      3.427      5.339
REMARK  Name = 
REMARK  8 active torsions:
REMARK  status: ('A' for Active; 'I' for Inactive)
REMARK    1  A    between atoms: C_2  and  C_4
REMARK    2  A    between atoms: C_6  and  C_7
REMARK    3  A    between atoms: C_7  and  C_8
REMARK    4  A    between atoms: C_11  and  C_13
REMARK    5  A    between atoms: C_23  and  C_24
REMARK    6  A    between atoms: C_24  and  N_25
REMARK    7  A    between atoms: N_25  and  C_26
REMARK    8  A    between atoms: C_26  and  C_27
REMARK                            x       y       z     vdW  Elec       q    Type
REMARK                         _______ _______ _______ _____ _____    ______ ____
ROOT
ATOM      4  C   UNL     1      -0.513   0.921  24.224  0.00  0.00    +0.006 C 
ATOM      5  C   UNL     1      -1.188   0.663  24.621  0.00  0.00    +0.005 C 
ATOM      6  C   UNL     1      -1.346  -0.143  24.686  0.00  0.00    +0.027 C 
ATOM     20  C   UNL     1      -0.829  -0.693  24.354  0.00  0.00    -0.048 C 
ATOM     21  C   UNL     1      -0.987  -1.500  24.418  0.00  0.00    +0.026 C 
ATOM     22  C   UNL     1      -0.153  -0.435  23.955  0.00  0.00    -0.033 C 
ATOM     23  C   UNL     1       0.005   0.371  23.890  0.00  0.00    +0.039 C 
ENDROOT
BRANCH   4   2
ATOM      1  C   UNL     1       0.079   2.112  24.747  0.00  0.00    +0.000 C 
ATOM      2  C   UNL     1      -0.355   1.728  24.159  0.00  0.00    +0.000 C 
ATOM      3  C   UNL     1      -0.629   2.151  23.506  0.00  0.00    +0.000 C 
ENDBRANCH   4   2
BRANCH   6   7
ATOM      7  C   UNL     1      -2.022  -0.400  25.085  0.00  0.00    +0.091 C 
BRANCH   7   8
ATOM      8  C   UNL     1      -2.766  -0.135  24.848  0.00  0.00    +0.227 A 
ATOM      9  N   UNL     1      -3.252  -0.493  24.286  0.00  0.00    -0.111 NA
ATOM     10  N   UNL     1      -3.942  -0.044  24.223  0.00  0.00    -0.107 NA
ATOM     11  C   UNL     1      -3.882   0.591  24.746  0.00  0.00    +0.252 A 
ATOM     12  O   UNL     1      -3.155   0.535  25.133  0.00  0.00    -0.419 OA
BRANCH  11  13
ATOM     13  C   UNL     1      -4.449   1.179  24.862  0.00  0.00    +0.083 A 
ATOM     14  C   UNL     1      -5.032   1.080  25.438  0.00  0.00    +0.007 A 
ATOM     15  C   UNL     1      -5.599   1.668  25.554  0.00  0.00    +0.000 A 
ATOM     16  C   UNL     1      -5.583   2.353  25.096  0.00  0.00    +0.002 A 
ATOM     17  C   UNL     1      -5.000   2.452  24.520  0.00  0.00    +0.030 A 
ATOM     18  C   UNL     1      -4.433   1.864  24.404  0.00  0.00    +0.145 A 
ATOM     19  F   UNL     1      -3.849   1.962  23.829  0.00  0.00    -0.204 F 
ENDBRANCH  11  13
ENDBRANCH   7   8
ENDBRANCH   6   7
BRANCH  23  24
ATOM     24  C   UNL     1       0.680   0.629  23.493  0.00  0.00    +0.093 C 
BRANCH  24  25
ATOM     25  N   UNL     1       1.307   0.109  23.363  0.00  0.00    -0.211 NA
BRANCH  25  26
ATOM     26  C   UNL     1       1.801   0.213  22.712  0.00  0.00    +0.134 C 
BRANCH  26  27
ATOM     27  C   UNL     1       2.621   0.213  22.811  0.00  0.00    +0.077 A 
ATOM     28  N   UNL     1       3.010  -0.483  23.022  0.00  0.00    -0.247 NA
ATOM     29  C   UNL     1       3.829  -0.483  23.122  0.00  0.00    +0.098 A 
ATOM     30  C   UNL     1       4.259   0.214  23.010  0.00  0.00    +0.021 A 
ATOM     31  C   UNL     1       3.868   0.909  22.799  0.00  0.00    +0.003 A 
ATOM     32  C   UNL     1       3.049   0.909  22.699  0.00  0.00    +0.016 A 
ENDBRANCH  26  27
ENDBRANCH  25  26
ENDBRANCH  24  25
ENDBRANCH  23  24
TORSDOF 8
ENDMDL
MODEL 5
REMARK VINA RESULT:     -10.4      2.275      4.766
REMARK  Name = 
REMARK  8 active torsions:
REMARK  status: ('A' for Active; 'I' for Inactive)
REMARK    1  A    between atoms: C_2  and  C_4
REMARK    2  A    between atoms: C_6  and  C_7
REMARK    3  A    between atoms: C_7  and  C_8
REMARK    4  A    between atoms: C_11  and  C_13
REMARK    5  A    between atoms: C_23  and  C_24
REMARK    6  A    between atoms: C_24  and  N_25
REMARK    7  A    between atoms: N_25  and  C_26
REMARK    8  A    between atoms: C_26  and  C_27
REMARK                            x       y       z     vdW  Elec       q    Type
REMARK                         _______ _______ _______ _____ _____    ______ ____
ROOT
ATOM      4  C   UNL     1      -2.153   3.295  24.751  0.00  0.00    +0.006 C 
ATOM      5  C   UNL     1      -1.528   2.894  24.390  0.00  0.00    +0.005 C 
ATOM      6  C   UNL     1      -1.665   2.437  23.718  0.00  0.00    +0.027 C 
ATOM     20  C   UNL     1      -2.426   2.380  23.405  0.00  0.00    -0.048 C 
ATOM     21  C   UNL     1      -2.563   1.922  22.733  0.00  0.00    +0.026 C 
ATOM     22  C   UNL     1      -3.051   2.780  23.766  0.00  0.00    -0.033 C 
ATOM     23  C   UNL     1      -2.915   3.237  24.438  0.00  0.00    +0.039 C 
ENDROOT
BRANCH   4   2
ATOM      1  C   UNL     1      -1.987   3.394  26.167  0.00  0.00    +0.000 C 
ATOM      2  C   UNL     1      -2.016   3.752  25.424  0.00  0.00    +0.000 C 
ATOM      3  C   UNL     1      -1.908   4.566  25.353  0.00  0.00    +0.000 C 
ENDBRANCH   4   2
BRANCH   6   7
ATOM      7  C   UNL     1      -1.040   2.037  23.357  0.00  0.00    +0.091 C 
BRANCH   7   8
ATOM      8  C   UNL     1      -0.684   1.398  23.738  0.00  0.00    +0.227 A 
ATOM      9  N   UNL     1       0.114   1.336  23.939  0.00  0.00    -0.111 NA
ATOM     10  N   UNL     1       0.228   0.608  24.311  0.00  0.00    -0.107 NA
ATOM     11  C   UNL     1      -0.500   0.220  24.340  0.00  0.00    +0.252 A 
ATOM     12  O   UNL     1      -1.064   0.708  23.986  0.00  0.00    -0.419 OA
BRANCH  11  13
ATOM     13  C   UNL     1      -0.640  -0.525  24.666  0.00  0.00    +0.083 A 
ATOM     14  C   UNL     1      -0.538  -1.202  24.205  0.00  0.00    +0.007 A 
ATOM     15  C   UNL     1      -0.678  -1.947  24.531  0.00  0.00    +0.000 A 
ATOM     16  C   UNL     1      -0.920  -2.015  25.316  0.00  0.00    +0.002 A 
ATOM     17  C   UNL     1      -1.022  -1.337  25.777  0.00  0.00    +0.030 A 
ATOM     18  C   UNL     1      -0.882  -0.593  25.451  0.00  0.00    +0.145 A 
ATOM     19  F   UNL     1      -0.984   0.085  25.912  0.00  0.00    -0.204 F 
ENDBRANCH  11  13
ENDBRANCH   7   8
ENDBRANCH   6   7
BRANCH  23  24
ATOM     24  C   UNL     1      -3.539   3.638  24.800  0.00  0.00    +0.093 C 
BRANCH  24  25
ATOM     25  N   UNL     1      -4.313   3.369  24.703  0.00  0.00    -0.211 NA
BRANCH  25  26
ATOM     26  C   UNL     1      -4.882   3.538  25.275  0.00  0.00    +0.134 C 
BRANCH  26  27
ATOM     27  C   UNL     1      -5.424   2.957  25.503  0.00  0.00    +0.077 A 
ATOM     28  N   UNL     1      -5.606   2.855  26.301  0.00  0.00    -0.247 NA
ATOM     29  C   UNL     1      -6.147   2.275  26.529  0.00  0.00    +0.098 A 
ATOM     30  C   UNL     1      -6.505   1.798  25.958  0.00  0.00    +0.021 A 
ATOM     31  C   UNL     1      -6.322   1.901  25.161  0.00  0.00    +0.003 A 
ATOM     32  C   UNL     1      -5.781   2.481  24.933  0.00  0.00    +0.016 A 
ENDBRANCH  26  27
ENDBRANCH  25  26
ENDBRANCH  24  25
ENDBRANCH  23  24
TORSDOF 8
ENDMDL
MODEL 6
REMARK VINA RESULT:     -10.4      1.117      1.929
REMARK  Name = 
REMARK  8 active torsions:
REMARK  status: ('A' for Active; 'I' for Inactive)
REMARK    1  A    between atoms: C_2  and  C_4
REMARK    2  A    between atoms: C_6  and  C_7
REMARK    3  A    between atoms: C_7  and  C_8
REMARK    4  A    between atoms: C_11  and  C_13
REMARK    5  A    between atoms: C_23  and  C_24
REMARK    6  A    between atoms: C_24  and  N_25
REMARK    7  A    between atoms: N_25  and  C_26
REMARK    8  A    between atoms: C_26  and  C_27
REMARK                            x       y       z     vdW  Elec       q    Type
REMARK                         _______ _______ _______ _____ _____    ______ ____
ROOT
ATOM      4  C   UNL     1      -4.576   1.689  24.630  0.00  0.00    +0.006 C 
ATOM      5  C   UNL     1      -4.202   2.419  24.542  0.00  0.00    +0.005 C 
ATOM      6  C   UNL     1      -3.608   2.513  23.979  0.00  0.00    +0.027 C 
ATOM     20  C   UNL     1      -3.386   1.878  23.502  0.00  0.00    -0.048 C 
ATOM     21  C   UNL     1      -2.792   1.972  22.938  0.00  0.00    +0.026 C 
ATOM     22  C   UNL     1      -3.760   1.147  23.590  0.00  0.00    -0.033 C 
ATOM     23  C   UNL     1      -4.354   1.052  24.153  0.00  0.00    +0.039 C 
ENDROOT
BRANCH   4   2
ATOM      1  C   UNL     1      -5.959   1.720  24.986  0.00  0.00    +0.000 C 
ATOM      2  C   UNL     1      -5.170   1.594  25.194  0.00  0.00    +0.000 C 
ATOM      3  C   UNL     1      -4.976   1.375  25.965  0.00  0.00    +0.000 C 
ENDBRANCH   4   2
BRANCH   6   7
ATOM      7  C   UNL     1      -3.234   3.244  23.891  0.00  0.00    +0.091 C 
BRANCH   7   8
ATOM      8  C   UNL     1      -2.649   3.475  24.424  0.00  0.00    +0.227 A 
ATOM      9  N   UNL     1      -2.576   4.219  24.773  0.00  0.00    -0.111 NA
ATOM     10  N   UNL     1      -1.915   4.206  25.267  0.00  0.00    -0.107 NA
ATOM     11  C   UNL     1      -1.579   3.454  25.224  0.00  0.00    +0.252 A 
ATOM     12  O   UNL     1      -2.033   3.001  24.703  0.00  0.00    -0.419 OA
BRANCH  11  13
ATOM     13  C   UNL     1      -0.908   3.198  25.630  0.00  0.00    +0.083 A 
ATOM     14  C   UNL     1      -0.972   2.943  26.412  0.00  0.00    +0.007 A 
ATOM     15  C   UNL     1      -0.301   2.687  26.818  0.00  0.00    +0.000 A 
ATOM     16  C   UNL     1       0.433   2.686  26.443  0.00  0.00    +0.002 A 
ATOM     17  C   UNL     1       0.496   2.940  25.660  0.00  0.00    +0.030 A 
ATOM     18  C   UNL     1      -0.174   3.196  25.254  0.00  0.00    +0.145 A 
ATOM     19  F   UNL     1      -0.111   3.451  24.471  0.00  0.00    -0.204 F 
ENDBRANCH  11  13
ENDBRANCH   7   8
ENDBRANCH   6   7
BRANCH  23  24
ATOM     24  C   UNL     1      -4.727   0.322  24.241  0.00  0.00    +0.093 C 
BRANCH  24  25
ATOM     25  N   UNL     1      -4.310  -0.375  24.099  0.00  0.00    -0.211 NA
BRANCH  25  26
ATOM     26  C   UNL     1      -4.668  -1.105  24.236  0.00  0.00    +0.134 C 
BRANCH  26  27
ATOM     27  C   UNL     1      -4.203  -1.777  24.358  0.00  0.00    +0.077 A 
ATOM     28  N   UNL     1      -3.782  -1.864  25.062  0.00  0.00    -0.247 NA
ATOM     29  C   UNL     1      -3.318  -2.535  25.184  0.00  0.00    +0.098 A 
ATOM     30  C   UNL     1      -3.275  -3.119  24.601  0.00  0.00    +0.021 A 
ATOM     31  C   UNL     1      -3.696  -3.030  23.898  0.00  0.00    +0.003 A 
ATOM     32  C   UNL     1      -4.160  -2.359  23.776  0.00  0.00    +0.016 A 
ENDBRANCH  26  27
ENDBRANCH  25  26
ENDBRANCH  24  25
ENDBRANCH  23  24
TORSDOF 8
ENDMDL
MODEL 7
REMARK VINA RESULT:     -10.3      2.188      5.767
REMARK  Name = 
REMARK  8 active torsions:
REMARK  status: ('A' for Active; 'I' for Inactive)
REMARK    1  A    between atoms: C_2  and  C_4
REMARK    2  A    between atoms: C_6  and  C_7
REMARK    3  A    between atoms: C_7  and  C_8
REMARK    4  A    between atoms: C_11  and  C_13
REMARK    5  A    between atoms: C_23  and  C_24
REMARK    6  A    between atoms: C_24  and  N_25
REMARK    7  A    between atoms: N_25  and  C_26
REMARK    8  A    between atoms: C_26  and  C_27
REMARK                            x       y       z     vdW  Elec       q    Type
REMARK                         _______ _______ _______ _____ _____    ______ ____
ROOT
ATOM      4  C   UNL     1      -0.538   2.005  25.252  0.00  0.00    +0.006 C 
ATOM      5  C   UNL     1      -0.292   1.263  24.990  0.00  0.00    +0.005 C 
ATOM      6  C   UNL     1      -0.535   0.985  24.253  0.00  0.00    +0.027 C 
ATOM     20  C   UNL     1      -1.023   1.448  23.777  0.00  0.00    -0.048 C 
ATOM     21  C   UNL     1      -1.266   1.170  23.039  0.00  0.00    +0.026 C 
ATOM     22  C   UNL     1      -1.269   2.192  24.039  0.00  0.00    -0.033 C 
ATOM     23  C   UNL     1      -1.027   2.470  24.776  0.00  0.00    +0.039 C 
ENDROOT
BRANCH   4   2
ATOM      1  C   UNL     1       0.337   2.812  26.043  0.00  0.00    +0.000 C 
ATOM      2  C   UNL     1      -0.295   2.284  25.990  0.00  0.00    +0.000 C 
ATOM      3  C   UNL     1      -0.683   2.034  26.673  0.00  0.00    +0.000 C 
ENDBRANCH   4   2
BRANCH   6   7
ATOM      7  C   UNL     1      -0.289   0.241  23.990  0.00  0.00    +0.091 C 
BRANCH   7   8
ATOM      8  C   UNL     1      -0.602  -0.441  24.332  0.00  0.00    +0.227 A 
ATOM      9  N   UNL     1      -0.182  -1.003  24.766  0.00  0.00    -0.111 NA
ATOM     10  N   UNL     1      -0.711  -1.591  25.002  0.00  0.00    -0.107 NA
ATOM     11  C   UNL     1      -1.458  -1.392  24.715  0.00  0.00    +0.252 A 
ATOM     12  O   UNL     1      -1.391  -0.681  24.301  0.00  0.00    -0.419 OA
BRANCH  11  13
ATOM     13  C   UNL     1      -2.150  -1.827  24.822  0.00  0.00    +0.083 A 
ATOM     14  C   UNL     1      -2.311  -2.473  24.334  0.00  0.00    +0.007 A 
ATOM     15  C   UNL     1      -3.004  -2.908  24.442  0.00  0.00    +0.000 A 
ATOM     16  C   UNL     1      -3.535  -2.698  25.036  0.00  0.00    +0.002 A 
ATOM     17  C   UNL     1      -3.374  -2.052  25.525  0.00  0.00    +0.030 A 
ATOM     18  C   UNL     1      -2.681  -1.617  25.417  0.00  0.00    +0.145 A 
ATOM     19  F   UNL     1      -2.520  -0.971  25.905  0.00  0.00    -0.204 F 
ENDBRANCH  11  13
ENDBRANCH   7   8
ENDBRANCH   6   7
BRANCH  23  24
ATOM     24  C   UNL     1      -1.272   3.212  25.038  0.00  0.00    +0.093 C 
BRANCH  24  25
ATOM     25  N   UNL     1      -1.972   3.541  24.752  0.00  0.00    -0.211 NA
BRANCH  25  26
ATOM     26  C   UNL     1      -2.410   4.054  25.225  0.00  0.00    +0.134 C 
BRANCH  26  27
ATOM     27  C   UNL     1      -3.233   3.988  25.254  0.00  0.00    +0.077 A 
ATOM     28  N   UNL     1      -3.672   3.991  24.556  0.00  0.00    -0.247 NA
ATOM     29  C   UNL     1      -4.494   3.925  24.585  0.00  0.00    +0.098 A 
ATOM     30  C   UNL     1      -4.877   3.855  25.313  0.00  0.00    +0.021 A 
ATOM     31  C   UNL     1      -4.437   3.852  26.011  0.00  0.00    +0.003 A 
ATOM     32  C   UNL     1      -3.615   3.918  25.982  0.00  0.00    +0.016 A 
ENDBRANCH  26  27
ENDBRANCH  25  26
ENDBRANCH  24  25
ENDBRANCH  23  24
TORSDOF 8
ENDMDL
MODEL 8
REMARK VINA RESULT:     -10.3      2.437      6.227
REMARK  Name = 
REMARK  8 active torsions:
REMARK  status: ('A' for Active; 'I' for Inactive)
REMARK    1  A    between atoms: C_2  and  C_4
REMARK    2  A    between atoms: C_6  and  C_7
REMARK    3  A    between atoms: C_7  and  C_8
REMARK    4  A    between atoms: C_11  and  C_13
REMARK    5  A    between atoms: C_23  and  C_24
REMARK    6  A    between atoms: C_24  and  N_25
REMARK    7  A    between atoms: N_25  and  C_26
REMARK    8  A    between atoms: C_26  and  C_27
REMARK                            x       y       z     vdW  Elec       q    Type
REMARK                         _______ _______ _______ _____ _____    ______ ____
ROOT
ATOM      4  C   UNL     1      -0.254   0.581  24.425  0.00  0.00    +0.006 C 
ATOM      5  C   UNL     1      -0.368  -0.222  24.572  0.00  0.00    +0.005 C 
ATOM      6  C   UNL     1      -0.673  -0.470  25.296  0.00  0.00    +0.027 C 
ATOM     20  C   UNL     1      -0.864   0.085  25.876  0.00  0.00    -0.048 C 
ATOM     21  C   UNL     1      -1.169  -0.164  26.601  0.00  0.00    +0.026 C 
ATOM     22  C   UNL     1      -0.749   0.889  25.730  0.00  0.00    -0.033 C 
ATOM     23  C   UNL     1      -0.445   1.137  25.005  0.00  0.00    +0.039 C 
ENDROOT
BRANCH   4   2
ATOM      1  C   UNL     1      -0.459   1.005  23.077  0.00  0.00    +0.000 C 
ATOM      2  C   UNL     1       0.052   0.830  23.700  0.00  0.00    +0.000 C 
ATOM      3  C   UNL     1       0.866   0.903  23.600  0.00  0.00    +0.000 C 
ENDBRANCH   4   2
BRANCH   6   7
ATOM      7  C   UNL     1      -0.788  -1.275  25.442  0.00  0.00    +0.091 C 
BRANCH   7   8
ATOM      8  C   UNL     1      -1.306  -1.710  24.971  0.00  0.00    +0.227 A 
ATOM      9  N   UNL     1      -1.095  -2.305  24.440  0.00  0.00    -0.111 NA
ATOM     10  N   UNL     1      -1.786  -2.590  24.088  0.00  0.00    -0.107 NA
ATOM     11  C   UNL     1      -2.423  -2.170  24.402  0.00  0.00    +0.252 A 
ATOM     12  O   UNL     1      -2.127  -1.627  24.947  0.00  0.00    -0.419 OA
BRANCH  11  13
ATOM     13  C   UNL     1      -3.217  -2.276  24.205  0.00  0.00    +0.083 A 
ATOM     14  C   UNL     1      -3.574  -3.013  24.310  0.00  0.00    +0.007 A 
ATOM     15  C   UNL     1      -4.367  -3.118  24.113  0.00  0.00    +0.000 A 
ATOM     16  C   UNL     1      -4.805  -2.488  23.812  0.00  0.00    +0.002 A 
ATOM     17  C   UNL     1      -4.449  -1.751  23.706  0.00  0.00    +0.030 A 
ATOM     18  C   UNL     1      -3.655  -1.646  23.903  0.00  0.00    +0.145 A 
ATOM     19  F   UNL     1      -3.298  -0.908  23.798  0.00  0.00    -0.204 F 
ENDBRANCH  11  13
ENDBRANCH   7   8
ENDBRANCH   6   7
BRANCH  23  24
ATOM     24  C   UNL     1      -0.330   1.941  24.859  0.00  0.00    +0.093 C 
BRANCH  24  25
ATOM     25  N   UNL     1      -0.775   2.503  25.268  0.00  0.00    -0.211 NA
BRANCH  25  26
ATOM     26  C   UNL     1      -0.494   3.274  25.345  0.00  0.00    +0.134 C 
BRANCH  26  27
ATOM     27  C   UNL     1      -1.022   3.909  25.334  0.00  0.00    +0.077 A 
ATOM     28  N   UNL     1      -1.763   3.834  25.689  0.00  0.00    -0.247 NA
ATOM     29  C   UNL     1      -2.291   4.468  25.678  0.00  0.00    +0.098 A 
ATOM     30  C   UNL     1      -2.078   5.177  25.313  0.00  0.00    +0.021 A 
ATOM     31  C   UNL     1      -1.336   5.250  24.959  0.00  0.00    +0.003 A 
ATOM     32  C   UNL     1      -0.809   4.616  24.969  0.00  0.00    +0.016 A 
ENDBRANCH  26  27
ENDBRANCH  25  26
ENDBRANCH  24  25
ENDBRANCH  23  24
TORSDOF 8
ENDMDL
MODEL 9
REMARK VINA RESULT:     -10.0      1.522      5.503
REMARK  Name = 
REMARK  8 active torsions:
REMARK  status: ('A' for Active; 'I' for Inactive)
REMARK    1  A    between atoms: C_2  and  C_4
REMARK    2  A    between atoms: C_6  and  C_7
REMARK    3  A    between atoms: C_7  and  C_8
REMARK    4  A    between atoms: C_11  and  C_13
REMARK    5  A    between atoms: C_23  and  C_24
REMARK    6  A    between atoms: C_24  and  N_25
REMARK    7  A    between atoms: N_25  and  C_26
REMARK    8  A    between atoms: C_26  and  C_27
REMARK                            x       y       z     vdW  Elec       q    Type
REMARK                         _______ _______ _______ _____ _____    ______ ____
ROOT
ATOM      4  C   UNL     1      -4.507   2.078  24.855  0.00  0.00    +0.006 C 
ATOM      5  C   UNL     1      -4.581   1.310  24.562  0.00  0.00    +0.005 C 
ATOM      6  C   UNL     1      -4.103   1.059  23.939  0.00  0.00    +0.027 C 
ATOM     20  C   UNL     1      -3.551   1.574  23.608  0.00  0.00    -0.048 C 
ATOM     21  C   UNL     1      -3.073   1.322  22.984  0.00  0.00    +0.026 C 
ATOM     22  C   UNL     1      -3.477   2.343  23.901  0.00  0.00    -0.033 C 
ATOM     23  C   UNL     1      -3.955   2.594  24.523  0.00  0.00    +0.039 C 
ENDROOT
BRANCH   4   2
ATOM      1  C   UNL     1      -4.731   2.234  26.257  0.00  0.00    +0.000 C 
ATOM      2  C   UNL     1      -4.985   2.330  25.478  0.00  0.00    +0.000 C 
ATOM      3  C   UNL     1      -5.717   2.676  25.322  0.00  0.00    +0.000 C 
ENDBRANCH   4   2
BRANCH   6   7
ATOM      7  C   UNL     1      -4.177   0.290  23.646  0.00  0.00    +0.091 C 
BRANCH   7   8
ATOM      8  C   UNL     1      -3.865  -0.345  24.070  0.00  0.00    +0.227 A 
ATOM      9  N   UNL     1      -4.294  -0.880  24.529  0.00  0.00    -0.111 NA
ATOM     10  N   UNL     1      -3.763  -1.422  24.853  0.00  0.00    -0.107 NA
ATOM     11  C   UNL     1      -3.005  -1.222  24.594  0.00  0.00    +0.252 A 
ATOM     12  O   UNL     1      -3.068  -0.556  24.111  0.00  0.00    -0.419 OA
BRANCH  11  13
ATOM     13  C   UNL     1      -2.307  -1.618  24.785  0.00  0.00    +0.083 A 
ATOM     14  C   UNL     1      -2.119  -2.327  24.407  0.00  0.00    +0.007 A 
ATOM     15  C   UNL     1      -1.421  -2.723  24.598  0.00  0.00    +0.000 A 
ATOM     16  C   UNL     1      -0.912  -2.411  25.166  0.00  0.00    +0.002 A 
ATOM     17  C   UNL     1      -1.100  -1.702  25.544  0.00  0.00    +0.030 A 
ATOM     18  C   UNL     1      -1.798  -1.306  25.353  0.00  0.00    +0.145 A 
ATOM     19  F   UNL     1      -1.986  -0.597  25.731  0.00  0.00    -0.204 F 
ENDBRANCH  11  13
ENDBRANCH   7   8
ENDBRANCH   6   7
BRANCH  23  24
ATOM     24  C   UNL     1      -3.881   3.362  24.816  0.00  0.00    +0.093 C 
BRANCH  24  25
ATOM     25  N   UNL     1      -3.202   3.802  24.655  0.00  0.00    -0.211 NA
BRANCH  25  26
ATOM     26  C   UNL     1      -2.868   4.274  25.243  0.00  0.00    +0.134 C 
BRANCH  26  27
ATOM     27  C   UNL     1      -2.099   4.561  25.155  0.00  0.00    +0.077 A 
ATOM     28  N   UNL     1      -1.456   4.053  25.253  0.00  0.00    -0.247 NA
ATOM     29  C   UNL     1      -0.687   4.339  25.165  0.00  0.00    +0.098 A 
ATOM     30  C   UNL     1      -0.562   5.134  24.978  0.00  0.00    +0.021 A 
ATOM     31  C   UNL     1      -1.205   5.640  24.880  0.00  0.00    +0.003 A 
ATOM     32  C   UNL     1      -1.974   5.354  24.968  0.00  0.00    +0.016 A 
ENDBRANCH  26  27
ENDBRANCH  25  26
ENDBRANCH  24  25
ENDBRANCH  23  24
TORSDOF 8
ENDMDL
MODEL 10
REMARK VINA RESULT:     -10.0      2.163      3.661
REMARK  Name = 
REMARK  8 active torsions:
REMARK  status: ('A' for Active; 'I' for Inactive)
REMARK    1  A    between atoms: C_2  and  C_4
REMARK    2  A    between atoms: C_6  and  C_7
REMARK    3  A    between atoms: C_7  and  C_8
REMARK    4  A    between atoms: C_11  and  C_13
REMARK    5  A    between atoms: C_23  and  C_24
REMARK    6  A    between atoms: C_24  and  N_25
REMARK    7  A    between atoms: N_25  and  C_26
REMARK    8  A    between atoms: C_26  and  C_27
REMARK                            x       y       z     vdW  Elec       q    Type
REMARK                         _______ _______ _______ _____ _____    ______ ____
ROOT
ATOM      4  C   UNL     1      -1.286   2.259  24.530  0.00  0.00    +0.006 C 
ATOM      5  C   UNL     1      -1.878   2.800  24.337  0.00  0.00    +0.005 C 
ATOM      6  C   UNL     1      -2.356   2.671  23.678  0.00  0.00    +0.027 C 
ATOM     20  C   UNL     1      -2.244   2.001  23.211  0.00  0.00    -0.048 C 
ATOM     21  C   UNL     1      -2.722   1.872  22.551  0.00  0.00    +0.026 C 
ATOM     22  C   UNL     1      -1.651   1.459  23.403  0.00  0.00    -0.033 C 
ATOM     23  C   UNL     1      -1.173   1.588  24.062  0.00  0.00    +0.039 C 
ENDROOT
BRANCH   4   2
ATOM      1  C   UNL     1      -0.059   2.721  25.096  0.00  0.00    +0.000 C 
ATOM      2  C   UNL     1      -0.808   2.388  25.190  0.00  0.00    +0.000 C 
ATOM      3  C   UNL     1      -1.078   2.183  25.941  0.00  0.00    +0.000 C 
ENDBRANCH   4   2
BRANCH   6   7
ATOM      7  C   UNL     1      -2.949   3.213  23.486  0.00  0.00    +0.091 C 
BRANCH   7   8
ATOM      8  C   UNL     1      -3.596   3.312  23.987  0.00  0.00    +0.227 A 
ATOM      9  N   UNL     1      -3.870   4.028  24.290  0.00  0.00    -0.111 NA
ATOM     10  N   UNL     1      -4.527   3.871  24.764  0.00  0.00    -0.107 NA
ATOM     11  C   UNL     1      -4.659   3.057  24.755  0.00  0.00    +0.252 A 
ATOM     12  O   UNL     1      -4.084   2.711  24.275  0.00  0.00    -0.419 OA
BRANCH  11  13
ATOM     13  C   UNL     1      -5.260   2.658  25.155  0.00  0.00    +0.083 A 
ATOM     14  C   UNL     1      -5.788   2.181  24.737  0.00  0.00    +0.007 A 
ATOM     15  C   UNL     1      -6.389   1.782  25.137  0.00  0.00    +0.000 A 
ATOM     16  C   UNL     1      -6.463   1.860  25.954  0.00  0.00    +0.002 A 
ATOM     17  C   UNL     1      -5.935   2.337  26.373  0.00  0.00    +0.030 A 
ATOM     18  C   UNL     1      -5.334   2.736  25.973  0.00  0.00    +0.145 A 
ATOM     19  F   UNL     1      -4.806   3.213  26.391  0.00  0.00    -0.204 F 
ENDBRANCH  11  13
ENDBRANCH   7   8
ENDBRANCH   6   7
BRANCH  23  24
ATOM     24  C   UNL     1      -0.581   1.047  24.255  0.00  0.00    +0.093 C 
BRANCH  24  25
ATOM     25  N   UNL     1      -0.644   0.261  24.011  0.00  0.00    -0.211 NA
BRANCH  25  26
ATOM     26  C   UNL     1      -0.216  -0.326  24.400  0.00  0.00    +0.134 C 
BRANCH  26  27
ATOM     27  C   UNL     1      -0.567  -1.057  24.559  0.00  0.00    +0.077 A 
ATOM     28  N   UNL     1      -0.925  -1.483  23.949  0.00  0.00    -0.247 NA
ATOM     29  C   UNL     1      -1.276  -2.213  24.108  0.00  0.00    +0.098 A 
ATOM     30  C   UNL     1      -1.269  -2.516  24.875  0.00  0.00    +0.021 A 
ATOM     31  C   UNL     1      -0.911  -2.090  25.484  0.00  0.00    +0.003 A 
ATOM     32  C   UNL     1      -0.560  -1.360  25.325  0.00  0.00    +0.016 A 
ENDBRANCH  26  27
ENDBRANCH  25  26
ENDBRANCH  24  25
ENDBRANCH  23  24
TORSDOF 8
ENDMDL
