MODEL 1
REMARK VINA RESULT:     -10.9      0.000      0.000
REMARK  Name = 
REMARK  6 active torsions:
REMARK  status: ('A' for Active; 'I' for Inactive)
REMARK    1  A    between atoms: O_2  and  C_3
REMARK    2  A    between atoms: C_8  and  C_9
REMARK    3  A    between atoms: C_9  and  N_10
REMARK    4  A    between atoms: C_14  and  C_15
REMARK    5  A    between atoms: C_17  and  C_20
REMARK    6  A    between atoms: C_23  and  N_26
REMARK                            x       y       z     vdW  Elec       q    Type
REMARK                         _______ _______ _______ _____ _____    ______ ____
ROOT
ATOM     15  C   UNL     1      -3.994   2.773  25.130  0.00  0.00    +0.251 A 
ATOM     16  N   UNL     1      -3.779   1.988  25.265  0.00  0.00    -0.190 NA
ATOM     17  C   UNL     1      -4.133   1.523  24.682  0.00  0.00    +0.205 A 
ATOM     18  N   UNL     1      -4.566   2.021  24.188  0.00  0.00    -0.056 NA
ATOM     19  O   UNL     1      -4.480   2.793  24.464  0.00  0.00    -0.336 OA
ENDROOT
BRANCH  17  20
ATOM     20  C   UNL     1      -4.065   0.704  24.607  0.00  0.00    +0.058 A 
ATOM     21  C   UNL     1      -3.649   0.382  23.973  0.00  0.00    +0.008 A 
ATOM     22  C   UNL     1      -3.581  -0.438  23.898  0.00  0.00    +0.034 A 
ATOM     23  C   UNL     1      -3.929  -0.933  24.458  0.00  0.00    +0.132 A 
ATOM     24  N   UNL     1      -4.346  -0.610  25.092  0.00  0.00    -0.229 NA
ATOM     25  C   UNL     1      -4.414   0.209  25.167  0.00  0.00    +0.103 A 
BRANCH  23  26
ATOM     26  N   UNL     1      -3.862  -1.752  24.383  0.00  0.00    -0.288 N 
ATOM     27  C   UNL     1      -3.369  -2.173  24.894  0.00  0.00    +0.124 C 
ATOM     28  C   UNL     1      -3.301  -2.992  24.819  0.00  0.00    +0.164 C 
ATOM     29  O   UNL     1      -3.726  -3.390  24.234  0.00  0.00    -0.350 OA
ATOM     30  C   UNL     1      -4.218  -2.969  23.723  0.00  0.00    +0.164 C 
ATOM     31  C   UNL     1      -4.286  -2.150  23.798  0.00  0.00    +0.124 C 
ENDBRANCH  23  26
ENDBRANCH  17  20
BRANCH  15  14
ATOM     10  N   UNL     1      -3.026   3.791  25.560  0.00  0.00    -0.263 NA
ATOM     11  C   UNL     1      -3.035   4.415  26.099  0.00  0.00    +0.073 C 
ATOM     12  C   UNL     1      -3.779   4.433  26.455  0.00  0.00    +0.019 C 
ATOM     13  C   UNL     1      -4.229   3.820  26.135  0.00  0.00    +0.027 C 
ATOM     14  C   UNL     1      -3.763   3.423  25.582  0.00  0.00    +0.138 C 
BRANCH  10   9
ATOM      9  C   UNL     1      -2.390   3.574  25.082  0.00  0.00    +0.103 C 
BRANCH   9   8
ATOM      3  C   UNL     1      -0.988   3.769  24.877  0.00  0.00    +0.136 A 
ATOM      4  C   UNL     1      -0.342   4.275  24.795  0.00  0.00    +0.037 A 
ATOM      5  C   UNL     1      -0.450   5.092  24.836  0.00  0.00    +0.003 A 
ATOM      6  C   UNL     1      -1.204   5.403  24.958  0.00  0.00    -0.000 A 
ATOM      7  C   UNL     1      -1.851   4.897  25.040  0.00  0.00    +0.000 A 
ATOM      8  C   UNL     1      -1.743   4.080  25.000  0.00  0.00    +0.028 A 
BRANCH   3   2
ATOM      1  C   UNL     1      -0.154   2.643  24.598  0.00  0.00    +0.252 C 
ATOM      2  O   UNL     1      -0.881   2.952  24.837  0.00  0.00    -0.472 OA
ENDBRANCH   3   2
ENDBRANCH   9   8
ENDBRANCH  10   9
ENDBRANCH  15  14
TORSDOF 6
ENDMDL
MODEL 2
REMARK VINA RESULT:     -10.1      1.992      6.255
REMARK  Name = 
REMARK  6 active torsions:
REMARK  status: ('A' for Active; 'I' for Inactive)
REMARK    1  A    between atoms: O_2  and  C_3
REMARK    2  A    between atoms: C_8  and  C_9
REMARK    3  A    between atoms: C_9  and  N_10
REMARK    4  A    between atoms: C_14  and  C_15
REMARK    5  A    between atoms: C_17  and  C_20
REMARK    6  A    between atoms: C_23  and  N_26
REMARK                            x       y       z     vdW  Elec       q    Type
REMARK                         _______ _______ _______ _____ _____    ______ ____
ROOT
ATOM     15  C   UNL     1      -0.646  -0.430  24.578  0.00  0.00    +0.251 A 
ATOM     16  N   UNL     1      -0.946   0.277  24.880  0.00  0.00    -0.190 NA
ATOM     17  C   UNL     1      -0.600   0.899  24.462  0.00  0.00    +0.205 A 
ATOM     18  N   UNL     1      -0.087   0.577  23.903  0.00  0.00    -0.056 NA
ATOM     19  O   UNL     1      -0.115  -0.244  23.975  0.00  0.00    -0.336 OA
ENDROOT
BRANCH  17  20
ATOM     20  C   UNL     1      -0.743   1.703  24.583  0.00  0.00    +0.058 A 
ATOM     21  C   UNL     1      -0.403   2.089  25.228  0.00  0.00    +0.008 A 
ATOM     22  C   UNL     1      -0.546   2.893  25.349  0.00  0.00    +0.034 A 
ATOM     23  C   UNL     1      -1.029   3.310  24.825  0.00  0.00    +0.132 A 
ATOM     24  N   UNL     1      -1.368   2.923  24.181  0.00  0.00    -0.229 NA
ATOM     25  C   UNL     1      -1.225   2.119  24.060  0.00  0.00    +0.103 A 
BRANCH  23  26
ATOM     26  N   UNL     1      -1.171   4.113  24.946  0.00  0.00    -0.288 N 
ATOM     27  C   UNL     1      -1.870   4.357  25.311  0.00  0.00    +0.124 C 
ATOM     28  C   UNL     1      -2.013   5.161  25.432  0.00  0.00    +0.164 C 
ATOM     29  O   UNL     1      -1.457   5.720  25.188  0.00  0.00    -0.350 OA
ATOM     30  C   UNL     1      -0.759   5.476  24.824  0.00  0.00    +0.164 C 
ATOM     31  C   UNL     1      -0.616   4.672  24.703  0.00  0.00    +0.124 C 
ENDBRANCH  23  26
ENDBRANCH  17  20
BRANCH  15  14
ATOM     10  N   UNL     1      -1.566  -1.566  24.723  0.00  0.00    -0.263 NA
ATOM     11  C   UNL     1      -1.522  -2.314  25.068  0.00  0.00    +0.073 C 
ATOM     12  C   UNL     1      -0.768  -2.399  25.394  0.00  0.00    +0.019 C 
ATOM     13  C   UNL     1      -0.348  -1.704  25.250  0.00  0.00    +0.027 C 
ATOM     14  C   UNL     1      -0.842  -1.189  24.835  0.00  0.00    +0.138 C 
BRANCH  10   9
ATOM      9  C   UNL     1      -2.222  -1.250  24.333  0.00  0.00    +0.103 C 
BRANCH   9   8
ATOM      3  C   UNL     1      -3.644  -1.329  24.213  0.00  0.00    +0.136 A 
ATOM      4  C   UNL     1      -4.330  -1.780  24.130  0.00  0.00    +0.037 A 
ATOM      5  C   UNL     1      -4.281  -2.601  24.084  0.00  0.00    +0.003 A 
ATOM      6  C   UNL     1      -3.546  -2.973  24.120  0.00  0.00    -0.000 A 
ATOM      7  C   UNL     1      -2.859  -2.524  24.204  0.00  0.00    +0.000 A 
ATOM      8  C   UNL     1      -2.909  -1.701  24.250  0.00  0.00    +0.028 A 
BRANCH   3   2
ATOM      1  C   UNL     1      -4.430  -0.138  24.292  0.00  0.00    +0.252 C 
ATOM      2  O   UNL     1      -3.692  -0.506  24.260  0.00  0.00    -0.472 OA
ENDBRANCH   3   2
ENDBRANCH   9   8
ENDBRANCH  10   9
ENDBRANCH  15  14
TORSDOF 6
ENDMDL
MODEL 3
REMARK VINA RESULT:     -10.0      2.778      4.852
REMARK  Name = 
REMARK  6 active torsions:
REMARK  status: ('A' for Active; 'I' for Inactive)
REMARK    1  A    between atoms: O_2  and  C_3
REMARK    2  A    between atoms: C_8  and  C_9
REMARK    3  A    between atoms: C_9  and  N_10
REMARK    4  A    between atoms: C_14  and  C_15
REMARK    5  A    between atoms: C_17  and  C_20
REMARK    6  A    between atoms: C_23  and  N_26
REMARK                            x       y       z     vdW  Elec       q    Type
REMARK                         _______ _______ _______ _____ _____    ______ ____
ROOT
ATOM     15  C   UNL     1      -2.519   0.006  24.829  0.00  0.00    +0.251 A 
ATOM     16  N   UNL     1      -1.958   0.024  24.223  0.00  0.00    -0.190 NA
ATOM     17  C   UNL     1      -1.213   0.101  24.568  0.00  0.00    +0.205 A 
ATOM     18  N   UNL     1      -1.313   0.131  25.386  0.00  0.00    -0.056 NA
ATOM     19  O   UNL     1      -2.119   0.072  25.547  0.00  0.00    -0.336 OA
ENDROOT
BRANCH  17  20
ATOM     20  C   UNL     1      -0.494   0.141  24.165  0.00  0.00    +0.058 A 
ATOM     21  C   UNL     1      -0.201   0.871  23.916  0.00  0.00    +0.008 A 
ATOM     22  C   UNL     1       0.518   0.912  23.513  0.00  0.00    +0.034 A 
ATOM     23  C   UNL     1       0.944   0.222  23.360  0.00  0.00    +0.132 A 
ATOM     24  N   UNL     1       0.651  -0.508  23.608  0.00  0.00    -0.229 NA
ATOM     25  C   UNL     1      -0.068  -0.548  24.011  0.00  0.00    +0.103 A 
BRANCH  23  26
ATOM     26  N   UNL     1       1.663   0.262  22.956  0.00  0.00    -0.288 N 
ATOM     27  C   UNL     1       2.283   0.711  23.264  0.00  0.00    +0.124 C 
ATOM     28  C   UNL     1       3.002   0.752  22.860  0.00  0.00    +0.164 C 
ATOM     29  O   UNL     1       3.100   0.343  22.151  0.00  0.00    -0.350 OA
ATOM     30  C   UNL     1       2.480  -0.107  21.844  0.00  0.00    +0.164 C 
ATOM     31  C   UNL     1       1.761  -0.147  22.247  0.00  0.00    +0.124 C 
ENDBRANCH  23  26
ENDBRANCH  17  20
BRANCH  15  14
ATOM     10  N   UNL     1      -3.880   0.552  24.746  0.00  0.00    -0.263 NA
ATOM     11  C   UNL     1      -4.631   0.234  24.627  0.00  0.00    +0.073 C 
ATOM     12  C   UNL     1      -4.550  -0.583  24.540  0.00  0.00    +0.019 C 
ATOM     13  C   UNL     1      -3.748  -0.768  24.605  0.00  0.00    +0.027 C 
ATOM     14  C   UNL     1      -3.334  -0.065  24.732  0.00  0.00    +0.138 C 
BRANCH  10   9
ATOM      9  C   UNL     1      -3.705   1.351  24.858  0.00  0.00    +0.103 C 
BRANCH   9   8
ATOM      3  C   UNL     1      -4.215   2.687  24.867  0.00  0.00    +0.136 A 
ATOM      4  C   UNL     1      -4.819   3.220  25.045  0.00  0.00    +0.037 A 
ATOM      5  C   UNL     1      -5.517   2.951  25.393  0.00  0.00    +0.003 A 
ATOM      6  C   UNL     1      -5.611   2.150  25.562  0.00  0.00    -0.000 A 
ATOM      7  C   UNL     1      -5.008   1.616  25.384  0.00  0.00    +0.000 A 
ATOM      8  C   UNL     1      -4.309   1.885  25.036  0.00  0.00    +0.028 A 
BRANCH   3   2
ATOM      1  C   UNL     1      -3.338   3.760  24.520  0.00  0.00    +0.252 C 
ATOM      2  O   UNL     1      -3.516   2.955  24.519  0.00  0.00    -0.472 OA
ENDBRANCH   3   2
ENDBRANCH   9   8
ENDBRANCH  10   9
ENDBRANCH  15  14
TORSDOF 6
ENDMDL
MODEL 4
REMARK VINA RESULT:      -9.5      1.584      2.586
REMARK  Name = 
REMARK  6 active torsions:
REMARK  status: ('A' for Active; 'I' for Inactive)
REMARK    1  A    between atoms: O_2  and  C_3
REMARK    2  A    between atoms: C_8  and  C_9
REMARK    3  A    between atoms: C_9  and  N_10
REMARK    4  A    between atoms: C_14  and  C_15
REMARK    5  A    between atoms: C_17  and  C_20
REMARK    6  A    between atoms: C_23  and  N_26
REMARK                            x       y       z     vdW  Elec       q    Type
REMARK                         _______ _______ _______ _____ _____    ______ ____
ROOT
ATOM     15  C   UNL     1      -0.476   1.504  25.200  0.00  0.00    +0.251 A 
ATOM     16  N   UNL     1      -1.094   0.973  25.329  0.00  0.00    -0.190 NA
ATOM     17  C   UNL     1      -1.116   0.448  24.693  0.00  0.00    +0.205 A 
ATOM     18  N   UNL     1      -0.512   0.654  24.172  0.00  0.00    -0.056 NA
ATOM     19  O   UNL     1      -0.116   1.306  24.485  0.00  0.00    -0.336 OA
ENDROOT
BRANCH  17  20
ATOM     20  C   UNL     1      -1.650  -0.174  24.596  0.00  0.00    +0.058 A 
ATOM     21  C   UNL     1      -2.454  -0.016  24.500  0.00  0.00    +0.008 A 
ATOM     22  C   UNL     1      -2.987  -0.638  24.403  0.00  0.00    +0.034 A 
ATOM     23  C   UNL     1      -2.716  -1.418  24.402  0.00  0.00    +0.132 A 
ATOM     24  N   UNL     1      -1.912  -1.575  24.498  0.00  0.00    -0.229 NA
ATOM     25  C   UNL     1      -1.379  -0.953  24.595  0.00  0.00    +0.103 A 
BRANCH  23  26
ATOM     26  N   UNL     1      -3.250  -2.040  24.305  0.00  0.00    -0.288 N 
ATOM     27  C   UNL     1      -3.094  -2.774  24.649  0.00  0.00    +0.124 C 
ATOM     28  C   UNL     1      -3.627  -3.396  24.552  0.00  0.00    +0.164 C 
ATOM     29  O   UNL     1      -4.316  -3.284  24.112  0.00  0.00    -0.350 OA
ATOM     30  C   UNL     1      -4.472  -2.550  23.769  0.00  0.00    +0.164 C 
ATOM     31  C   UNL     1      -3.938  -1.928  23.866  0.00  0.00    +0.124 C 
ENDBRANCH  23  26
ENDBRANCH  17  20
BRANCH  15  14
ATOM     10  N   UNL     1      -0.608   2.867  25.732  0.00  0.00    -0.263 NA
ATOM     11  C   UNL     1      -0.216   3.311  26.306  0.00  0.00    +0.073 C 
ATOM     12  C   UNL     1       0.380   2.840  26.628  0.00  0.00    +0.019 C 
ATOM     13  C   UNL     1       0.355   2.106  26.253  0.00  0.00    +0.027 C 
ATOM     14  C   UNL     1      -0.256   2.123  25.699  0.00  0.00    +0.138 C 
BRANCH  10   9
ATOM      9  C   UNL     1      -1.243   3.124  25.271  0.00  0.00    +0.103 C 
BRANCH   9   8
ATOM      3  C   UNL     1      -2.183   4.197  25.366  0.00  0.00    +0.136 A 
ATOM      4  C   UNL     1      -2.355   5.002  25.314  0.00  0.00    +0.037 A 
ATOM      5  C   UNL     1      -1.763   5.539  25.115  0.00  0.00    +0.003 A 
ATOM      6  C   UNL     1      -0.996   5.272  24.968  0.00  0.00    -0.000 A 
ATOM      7  C   UNL     1      -0.822   4.467  25.019  0.00  0.00    +0.000 A 
ATOM      8  C   UNL     1      -1.416   3.929  25.219  0.00  0.00    +0.028 A 
BRANCH   3   2
ATOM      1  C   UNL     1      -3.567   3.890  25.543  0.00  0.00    +0.252 C 
ATOM      2  O   UNL     1      -2.776   3.658  25.565  0.00  0.00    -0.472 OA
ENDBRANCH   3   2
ENDBRANCH   9   8
ENDBRANCH  10   9
ENDBRANCH  15  14
TORSDOF 6
ENDMDL
MODEL 5
REMARK VINA RESULT:      -9.2      2.537      4.584
REMARK  Name = 
REMARK  6 active torsions:
REMARK  status: ('A' for Active; 'I' for Inactive)
REMARK    1  A    between atoms: O_2  and  C_3
REMARK    2  A    between atoms: C_8  and  C_9
REMARK    3  A    between atoms: C_9  and  N_10
REMARK    4  A    between atoms: C_14  and  C_15
REMARK    5  A    between atoms: C_17  and  C_20
REMARK    6  A    between atoms: C_23  and  N_26
REMARK                            x       y       z     vdW  Elec       q    Type
REMARK                         _______ _______ _______ _____ _____    ______ ____
ROOT
ATOM     15  C   UNL     1      -1.702   2.812  25.470  0.00  0.00    +0.251 A 
ATOM     16  N   UNL     1      -1.265   2.592  24.806  0.00  0.00    -0.190 NA
ATOM     17  C   UNL     1      -0.709   2.030  25.041  0.00  0.00    +0.205 A 
ATOM     18  N   UNL     1      -0.802   1.902  25.850  0.00  0.00    -0.056 NA
ATOM     19  O   UNL     1      -1.415   2.385  26.115  0.00  0.00    -0.336 OA
ENDROOT
BRANCH  17  20
ATOM     20  C   UNL     1      -0.156   1.660  24.552  0.00  0.00    +0.058 A 
ATOM     21  C   UNL     1      -0.321   0.917  24.233  0.00  0.00    +0.008 A 
ATOM     22  C   UNL     1       0.232   0.548  23.744  0.00  0.00    +0.034 A 
ATOM     23  C   UNL     1       0.948   0.921  23.575  0.00  0.00    +0.132 A 
ATOM     24  N   UNL     1       1.112   1.663  23.894  0.00  0.00    -0.229 NA
ATOM     25  C   UNL     1       0.560   2.033  24.383  0.00  0.00    +0.103 A 
BRANCH  23  26
ATOM     26  N   UNL     1       1.501   0.551  23.086  0.00  0.00    -0.288 N 
ATOM     27  C   UNL     1       1.250   0.003  22.522  0.00  0.00    +0.124 C 
ATOM     28  C   UNL     1       1.803  -0.367  22.033  0.00  0.00    +0.164 C 
ATOM     29  O   UNL     1       2.605  -0.189  22.108  0.00  0.00    -0.350 OA
ATOM     30  C   UNL     1       2.855   0.359  22.672  0.00  0.00    +0.164 C 
ATOM     31  C   UNL     1       2.302   0.729  23.161  0.00  0.00    +0.124 C 
ENDBRANCH  23  26
ENDBRANCH  17  20
BRANCH  15  14
ATOM     10  N   UNL     1      -3.106   3.211  25.305  0.00  0.00    -0.263 NA
ATOM     11  C   UNL     1      -3.528   3.914  25.392  0.00  0.00    +0.073 C 
ATOM     12  C   UNL     1      -2.998   4.501  25.628  0.00  0.00    +0.019 C 
ATOM     13  C   UNL     1      -2.249   4.160  25.686  0.00  0.00    +0.027 C 
ATOM     14  C   UNL     1      -2.316   3.362  25.486  0.00  0.00    +0.138 C 
BRANCH  10   9
ATOM      9  C   UNL     1      -3.420   2.483  25.077  0.00  0.00    +0.103 C 
BRANCH   9   8
ATOM      3  C   UNL     1      -4.542   1.607  24.944  0.00  0.00    +0.136 A 
ATOM      4  C   UNL     1      -5.355   1.473  24.999  0.00  0.00    +0.037 A 
ATOM      5  C   UNL     1      -5.858   2.081  25.240  0.00  0.00    +0.003 A 
ATOM      6  C   UNL     1      -5.549   2.822  25.427  0.00  0.00    -0.000 A 
ATOM      7  C   UNL     1      -4.737   2.957  25.372  0.00  0.00    +0.000 A 
ATOM      8  C   UNL     1      -4.233   2.349  25.131  0.00  0.00    +0.028 A 
BRANCH   3   2
ATOM      1  C   UNL     1      -4.329   0.232  24.620  0.00  0.00    +0.252 C 
ATOM      2  O   UNL     1      -4.039   0.999  24.703  0.00  0.00    -0.472 OA
ENDBRANCH   3   2
ENDBRANCH   9   8
ENDBRANCH  10   9
ENDBRANCH  15  14
TORSDOF 6
ENDMDL
MODEL 6
REMARK VINA RESULT:      -9.0      2.860      5.666
REMARK  Name = 
REMARK  6 active torsions:
REMARK  status: ('A' for Active; 'I' for Inactive)
REMARK    1  A    between atoms: O_2  and  C_3
REMARK    2  A    between atoms: C_8  and  C_9
REMARK    3  A    between atoms: C_9  and  N_10
REMARK    4  A    between atoms: C_14  and  C_15
REMARK    5  A    between atoms: C_17  and  C_20
REMARK    6  A    between atoms: C_23  and  N_26
REMARK                            x       y       z     vdW  Elec       q    Type
REMARK                         _______ _______ _______ _____ _____    ______ ____
ROOT
ATOM     15  C   UNL     1      -2.003   0.938  24.790  0.00  0.00    +0.251 A 
ATOM     16  N   UNL     1      -1.448   0.810  24.193  0.00  0.00    -0.190 NA
ATOM     17  C   UNL     1      -0.696   0.896  24.520  0.00  0.00    +0.205 A 
ATOM     18  N   UNL     1      -0.786   1.078  25.319  0.00  0.00    -0.056 NA
ATOM     19  O   UNL     1      -1.592   1.103  25.486  0.00  0.00    -0.336 OA
ENDROOT
BRANCH  17  20
ATOM     20  C   UNL     1       0.020   0.816  24.118  0.00  0.00    +0.058 A 
ATOM     21  C   UNL     1       0.199   0.109  23.732  0.00  0.00    +0.008 A 
ATOM     22  C   UNL     1       0.915   0.029  23.330  0.00  0.00    +0.034 A 
ATOM     23  C   UNL     1       1.452   0.655  23.314  0.00  0.00    +0.132 A 
ATOM     24  N   UNL     1       1.274   1.361  23.701  0.00  0.00    -0.229 NA
ATOM     25  C   UNL     1       0.558   1.442  24.103  0.00  0.00    +0.103 A 
BRANCH  23  26
ATOM     26  N   UNL     1       2.168   0.574  22.912  0.00  0.00    -0.288 N 
ATOM     27  C   UNL     1       2.837   0.978  23.177  0.00  0.00    +0.124 C 
ATOM     28  C   UNL     1       3.553   0.898  22.775  0.00  0.00    +0.164 C 
ATOM     29  O   UNL     1       3.601   0.413  22.109  0.00  0.00    -0.350 OA
ATOM     30  C   UNL     1       2.932   0.009  21.845  0.00  0.00    +0.164 C 
ATOM     31  C   UNL     1       2.216   0.089  22.247  0.00  0.00    +0.124 C 
ENDBRANCH  23  26
ENDBRANCH  17  20
BRANCH  15  14
ATOM     10  N   UNL     1      -3.288   0.227  24.756  0.00  0.00    -0.263 NA
ATOM     11  C   UNL     1      -4.074   0.447  24.637  0.00  0.00    +0.073 C 
ATOM     12  C   UNL     1      -4.094   1.263  24.514  0.00  0.00    +0.019 C 
ATOM     13  C   UNL     1      -3.320   1.546  24.556  0.00  0.00    +0.027 C 
ATOM     14  C   UNL     1      -2.822   0.905  24.706  0.00  0.00    +0.138 C 
BRANCH  10   9
ATOM      9  C   UNL     1      -3.016  -0.538  24.900  0.00  0.00    +0.103 C 
BRANCH   9   8
ATOM      3  C   UNL     1      -3.092  -1.942  24.642  0.00  0.00    +0.136 A 
ATOM      4  C   UNL     1      -3.490  -2.589  24.318  0.00  0.00    +0.037 A 
ATOM      5  C   UNL     1      -4.208  -2.478  23.928  0.00  0.00    +0.003 A 
ATOM      6  C   UNL     1      -4.529  -1.721  23.861  0.00  0.00    -0.000 A 
ATOM      7  C   UNL     1      -4.132  -1.075  24.185  0.00  0.00    +0.000 A 
ATOM      8  C   UNL     1      -3.413  -1.185  24.576  0.00  0.00    +0.028 A 
BRANCH   3   2
ATOM      1  C   UNL     1      -1.912  -2.716  24.867  0.00  0.00    +0.252 C 
ATOM      2  O   UNL     1      -2.374  -2.052  25.033  0.00  0.00    -0.472 OA
ENDBRANCH   3   2
ENDBRANCH   9   8
ENDBRANCH  10   9
ENDBRANCH  15  14
TORSDOF 6
ENDMDL
