MODEL 1
REMARK VINA RESULT:     -10.8      0.000      0.000
REMARK  Name = 
REMARK  5 active torsions:
REMARK  status: ('A' for Active; 'I' for Inactive)
REMARK    1  A    between atoms: C_2  and  C_4
REMARK    2  A    between atoms: N_7  and  C_10
REMARK    3  A    between atoms: C_16  and  N_17
REMARK    4  A    between atoms: N_20  and  C_21
REMARK    5  A    between atoms: C_21  and  C_22
REMARK                            x       y       z     vdW  Elec       q    Type
REMARK                         _______ _______ _______ _____ _____    ______ ____
ROOT
ATOM     10  C   UNL     1      -3.761   1.143  24.584  0.00  0.00    +0.147 C 
ATOM     11  C   UNL     1      -4.572   0.802  24.994  0.00  0.00    +0.253 C 
ATOM     12  O   UNL     1      -4.785  -0.048  25.099  0.00  0.00    -0.327 OA
ATOM     13  C   UNL     1      -4.384   0.522  24.898  0.00  0.00    +0.176 C 
ATOM     14  C   UNL     1      -4.338   1.299  24.877  0.00  0.00    +0.170 C 
ATOM     15  O   UNL     1      -4.943   1.514  25.185  0.00  0.00    -0.327 OA
ATOM     16  C   UNL     1      -3.566   1.639  24.487  0.00  0.00    +0.158 C 
ATOM     24  C   UNL     1      -3.196   0.922  24.297  0.00  0.00    +0.194 C 
ATOM     25  O   UNL     1      -2.629   0.397  24.007  0.00  0.00    -0.220 OA
ENDROOT
BRANCH  10   7
ATOM      4  C   UNL     1      -3.737  -1.332  24.563  0.00  0.00    +0.083 C 
ATOM      5  C   UNL     1      -3.997  -0.917  23.900  0.00  0.00    +0.027 C 
ATOM      6  C   UNL     1      -4.005  -0.092  23.907  0.00  0.00    +0.073 C 
ATOM      7  N   UNL     1      -3.753   0.318  24.577  0.00  0.00    -0.268 NA
ATOM      8  C   UNL     1      -3.493  -0.098  25.241  0.00  0.00    +0.073 C 
ATOM      9  C   UNL     1      -3.485  -0.923  25.234  0.00  0.00    +0.027 C 
BRANCH   4   2
ATOM      1  N   UNL     1      -3.369  -2.572  25.171  0.00  0.00    -0.088 NA
ATOM      2  C   UNL     1      -3.730  -2.157  24.555  0.00  0.00    +0.260 C 
ATOM      3  O   UNL     1      -4.082  -2.568  23.933  0.00  0.00    -0.272 OA
ENDBRANCH   4   2
ENDBRANCH  10   7
BRANCH  16  17
ATOM     17  N   UNL     1      -3.323   2.419  24.366  0.00  0.00    -0.184 NA
ATOM     18  C   UNL     1      -2.702   2.731  24.812  0.00  0.00    +0.340 C 
ATOM     19  O   UNL     1      -2.325   2.263  25.378  0.00  0.00    -0.249 OA
ATOM     20  N   UNL     1      -2.459   3.509  24.691  0.00  0.00    -0.182 NA
BRANCH  20  21
ATOM     21  C   UNL     1      -1.839   3.821  25.137  0.00  0.00    +0.143 C 
BRANCH  21  22
ATOM     22  C   UNL     1      -1.731   4.638  25.180  0.00  0.00    -0.003 C 
ATOM     23  C   UNL     1      -0.993   4.966  25.014  0.00  0.00    -0.003 C 
ENDBRANCH  21  22
ENDBRANCH  20  21
ENDBRANCH  16  17
TORSDOF 5
ENDMDL
MODEL 2
REMARK VINA RESULT:     -10.4      1.183      4.528
REMARK  Name = 
REMARK  5 active torsions:
REMARK  status: ('A' for Active; 'I' for Inactive)
REMARK    1  A    between atoms: C_2  and  C_4
REMARK    2  A    between atoms: N_7  and  C_10
REMARK    3  A    between atoms: C_16  and  N_17
REMARK    4  A    between atoms: N_20  and  C_21
REMARK    5  A    between atoms: C_21  and  C_22
REMARK                            x       y       z     vdW  Elec       q    Type
REMARK                         _______ _______ _______ _____ _____    ______ ____
ROOT
ATOM     10  C   UNL     1      -3.638   2.216  24.735  0.00  0.00    +0.147 C 
ATOM     11  C   UNL     1      -3.963   3.024  24.307  0.00  0.00    +0.253 C 
ATOM     12  O   UNL     1      -3.547   3.803  24.282  0.00  0.00    -0.327 OA
ATOM     13  C   UNL     1      -3.652   3.104  24.447  0.00  0.00    +0.176 C 
ATOM     14  C   UNL     1      -4.131   2.494  24.386  0.00  0.00    +0.170 C 
ATOM     15  O   UNL     1      -4.683   2.748  24.014  0.00  0.00    -0.327 OA
ATOM     16  C   UNL     1      -3.832   1.713  24.791  0.00  0.00    +0.158 C 
ATOM     24  C   UNL     1      -3.110   1.994  25.085  0.00  0.00    +0.194 C 
ATOM     25  O   UNL     1      -2.380   1.996  25.470  0.00  0.00    -0.220 OA
ENDROOT
BRANCH  10   7
ATOM      4  C   UNL     1      -1.993   4.042  25.029  0.00  0.00    +0.083 C 
ATOM      5  C   UNL     1      -1.943   3.543  24.374  0.00  0.00    +0.027 C 
ATOM      6  C   UNL     1      -2.491   2.935  24.276  0.00  0.00    +0.073 C 
ATOM      7  N   UNL     1      -3.089   2.824  24.833  0.00  0.00    -0.268 NA
ATOM      8  C   UNL     1      -3.139   3.324  25.488  0.00  0.00    +0.073 C 
ATOM      9  C   UNL     1      -2.591   3.932  25.587  0.00  0.00    +0.027 C 
BRANCH   4   2
ATOM      1  N   UNL     1      -0.651   4.524  24.939  0.00  0.00    -0.088 NA
ATOM      2  C   UNL     1      -1.444   4.650  25.127  0.00  0.00    +0.260 C 
ATOM      3  O   UNL     1      -1.688   5.385  25.411  0.00  0.00    -0.272 OA
ENDBRANCH   4   2
ENDBRANCH  10   7
BRANCH  16  17
ATOM     17  N   UNL     1      -4.180   0.966  24.842  0.00  0.00    -0.184 NA
ATOM     18  C   UNL     1      -3.868   0.335  24.412  0.00  0.00    +0.340 C 
ATOM     19  O   UNL     1      -3.207   0.451  23.931  0.00  0.00    -0.249 OA
ATOM     20  N   UNL     1      -4.215  -0.411  24.463  0.00  0.00    -0.182 NA
BRANCH  20  21
ATOM     21  C   UNL     1      -3.903  -1.042  24.033  0.00  0.00    +0.143 C 
BRANCH  21  22
ATOM     22  C   UNL     1      -4.313  -1.757  23.993  0.00  0.00    -0.003 C 
ATOM     23  C   UNL     1      -3.902  -2.470  24.040  0.00  0.00    -0.003 C 
ENDBRANCH  21  22
ENDBRANCH  20  21
ENDBRANCH  16  17
TORSDOF 5
ENDMDL
MODEL 3
REMARK VINA RESULT:      -9.7      1.657      4.920
REMARK  Name = 
REMARK  5 active torsions:
REMARK  status: ('A' for Active; 'I' for Inactive)
REMARK    1  A    between atoms: C_2  and  C_4
REMARK    2  A    between atoms: N_7  and  C_10
REMARK    3  A    between atoms: C_16  and  N_17
REMARK    4  A    between atoms: N_20  and  C_21
REMARK    5  A    between atoms: C_21  and  C_22
REMARK                            x       y       z     vdW  Elec       q    Type
REMARK                         _______ _______ _______ _____ _____    ______ ____
ROOT
ATOM     10  C   UNL     1      -1.339   1.581  24.990  0.00  0.00    +0.147 C 
ATOM     11  C   UNL     1      -0.790   1.871  25.737  0.00  0.00    +0.253 C 
ATOM     12  O   UNL     1      -0.605   2.707  25.953  0.00  0.00    -0.327 OA
ATOM     13  C   UNL     1      -0.898   2.162  25.573  0.00  0.00    +0.176 C 
ATOM     14  C   UNL     1      -0.970   1.390  25.510  0.00  0.00    +0.170 C 
ATOM     15  O   UNL     1      -0.586   1.137  26.055  0.00  0.00    -0.327 OA
ATOM     16  C   UNL     1      -1.493   1.098  24.800  0.00  0.00    +0.158 C 
ATOM     24  C   UNL     1      -1.696   1.836  24.483  0.00  0.00    +0.194 C 
ATOM     25  O   UNL     1      -2.038   2.395  23.982  0.00  0.00    -0.220 OA
ENDROOT
BRANCH  10   7
ATOM      4  C   UNL     1      -1.219   4.053  25.035  0.00  0.00    +0.083 C 
ATOM      5  C   UNL     1      -1.813   3.661  25.453  0.00  0.00    +0.027 C 
ATOM      6  C   UNL     1      -1.853   2.837  25.438  0.00  0.00    +0.073 C 
ATOM      7  N   UNL     1      -1.299   2.405  25.005  0.00  0.00    -0.268 NA
ATOM      8  C   UNL     1      -0.705   2.797  24.587  0.00  0.00    +0.073 C 
ATOM      9  C   UNL     1      -0.666   3.621  24.602  0.00  0.00    +0.027 C 
BRANCH   4   2
ATOM      1  N   UNL     1      -1.803   5.313  25.372  0.00  0.00    -0.088 NA
ATOM      2  C   UNL     1      -1.180   4.877  25.051  0.00  0.00    +0.260 C 
ATOM      3  O   UNL     1      -0.520   5.266  24.745  0.00  0.00    -0.272 OA
ENDBRANCH   4   2
ENDBRANCH  10   7
BRANCH  16  17
ATOM     17  N   UNL     1      -1.695   0.335  24.558  0.00  0.00    -0.184 NA
ATOM     18  C   UNL     1      -2.464   0.056  24.670  0.00  0.00    +0.340 C 
ATOM     19  O   UNL     1      -3.031   0.541  25.023  0.00  0.00    -0.249 OA
ATOM     20  N   UNL     1      -2.665  -0.706  24.428  0.00  0.00    -0.182 NA
BRANCH  20  21
ATOM     21  C   UNL     1      -3.434  -0.984  24.539  0.00  0.00    +0.143 C 
BRANCH  21  22
ATOM     22  C   UNL     1      -3.607  -1.781  24.412  0.00  0.00    -0.003 C 
ATOM     23  C   UNL     1      -4.241  -1.992  23.930  0.00  0.00    -0.003 C 
ENDBRANCH  21  22
ENDBRANCH  20  21
ENDBRANCH  16  17
TORSDOF 5
ENDMDL
MODEL 4
REMARK VINA RESULT:      -9.6      1.519      2.008
REMARK  Name = 
REMARK  5 active torsions:
REMARK  status: ('A' for Active; 'I' for Inactive)
REMARK    1  A    between atoms: C_2  and  C_4
REMARK    2  A    between atoms: N_7  and  C_10
REMARK    3  A    between atoms: C_16  and  N_17
REMARK    4  A    between atoms: N_20  and  C_21
REMARK    5  A    between atoms: C_21  and  C_22
REMARK                            x       y       z     vdW  Elec       q    Type
REMARK                         _______ _______ _______ _____ _____    ______ ____
ROOT
ATOM     10  C   UNL     1      -1.641   0.338  25.017  0.00  0.00    +0.147 C 
ATOM     11  C   UNL     1      -1.530  -0.334  25.709  0.00  0.00    +0.253 C 
ATOM     12  O   UNL     1      -1.976  -1.093  25.772  0.00  0.00    -0.327 OA
ATOM     13  C   UNL     1      -1.780  -0.453  25.493  0.00  0.00    +0.176 C 
ATOM     14  C   UNL     1      -1.314   0.166  25.570  0.00  0.00    +0.170 C 
ATOM     15  O   UNL     1      -0.939   0.024  26.158  0.00  0.00    -0.327 OA
ATOM     16  C   UNL     1      -1.410   0.817  24.915  0.00  0.00    +0.158 C 
ATOM     24  C   UNL     1      -2.004   0.455  24.465  0.00  0.00    +0.194 C 
ATOM     25  O   UNL     1      -2.557   0.340  23.863  0.00  0.00    -0.220 OA
ENDROOT
BRANCH  10   7
ATOM      4  C   UNL     1      -3.193  -1.547  24.613  0.00  0.00    +0.083 C 
ATOM      5  C   UNL     1      -3.445  -0.891  25.045  0.00  0.00    +0.027 C 
ATOM      6  C   UNL     1      -2.928  -0.263  25.179  0.00  0.00    +0.073 C 
ATOM      7  N   UNL     1      -2.159  -0.290  24.882  0.00  0.00    -0.268 NA
ATOM      8  C   UNL     1      -1.907  -0.947  24.450  0.00  0.00    +0.073 C 
ATOM      9  C   UNL     1      -2.425  -1.575  24.316  0.00  0.00    +0.027 C 
BRANCH   4   2
ATOM      1  N   UNL     1      -4.351  -2.080  23.965  0.00  0.00    -0.088 NA
ATOM      2  C   UNL     1      -3.712  -2.175  24.479  0.00  0.00    +0.260 C 
ATOM      3  O   UNL     1      -3.592  -2.898  24.857  0.00  0.00    -0.272 OA
ENDBRANCH   4   2
ENDBRANCH  10   7
BRANCH  16  17
ATOM     17  N   UNL     1      -1.021   1.538  24.812  0.00  0.00    -0.184 NA
ATOM     18  C   UNL     1      -1.406   2.244  24.997  0.00  0.00    +0.340 C 
ATOM     19  O   UNL     1      -2.179   2.229  25.285  0.00  0.00    -0.249 OA
ATOM     20  N   UNL     1      -1.017   2.964  24.895  0.00  0.00    -0.182 NA
BRANCH  20  21
ATOM     21  C   UNL     1      -1.402   3.671  25.080  0.00  0.00    +0.143 C 
BRANCH  21  22
ATOM     22  C   UNL     1      -0.984   4.382  25.074  0.00  0.00    -0.003 C 
ATOM     23  C   UNL     1      -1.391   5.099  25.094  0.00  0.00    -0.003 C 
ENDBRANCH  21  22
ENDBRANCH  20  21
ENDBRANCH  16  17
TORSDOF 5
ENDMDL
