MODEL 1
REMARK VINA RESULT:      -9.9      0.000      0.000
REMARK  Name = 
REMARK  4 active torsions:
REMARK  status: ('A' for Active; 'I' for Inactive)
REMARK    1  A    between atoms: C_2  and  O_3
REMARK    2  A    between atoms: O_3  and  C_4
REMARK    3  A    between atoms: C_4  and  C_6
REMARK    4  A    between atoms: C_9  and  N_12
REMARK                            x       y       z     vdW  Elec       q    Type
REMARK                         _______ _______ _______ _____ _____    ______ ____
ROOT
ATOM     12  N   UNL     1      -2.664   1.741  24.673  0.00  0.00    -0.191 N 
ATOM     13  C   UNL     1      -3.061   2.413  24.942  0.00  0.00    +0.255 C 
ATOM     14  O   UNL     1      -3.853   2.451  25.166  0.00  0.00    -0.272 OA
ATOM     15  C   UNL     1      -2.525   3.040  24.948  0.00  0.00    +0.160 C 
ATOM     16  C   UNL     1      -2.605   3.833  25.161  0.00  0.00    +0.076 C 
ATOM     17  C   UNL     1      -1.958   4.342  25.108  0.00  0.00    +0.078 A 
ATOM     18  C   UNL     1      -1.230   4.058  24.843  0.00  0.00    +0.094 A 
ATOM     19  C   UNL     1      -1.149   3.265  24.630  0.00  0.00    +0.142 C 
ATOM     20  N   UNL     1      -1.797   2.756  24.683  0.00  0.00    -0.251 N 
ATOM     21  C   UNL     1      -1.883   1.954  24.513  0.00  0.00    +0.317 C 
ATOM     22  O   UNL     1      -1.292   1.451  24.232  0.00  0.00    -0.252 OA
ATOM     23  N   UNL     1      -0.694   4.685  24.848  0.00  0.00    -0.225 NA
ATOM     24  C   UNL     1      -1.090   5.357  25.117  0.00  0.00    +0.198 A 
ATOM     25  N   UNL     1      -1.871   5.145  25.278  0.00  0.00    -0.227 NA
ENDROOT
BRANCH  12   9
ATOM      6  C   UNL     1      -3.646  -0.514  24.396  0.00  0.00    +0.076 A 
ATOM      7  C   UNL     1      -3.311  -0.296  25.118  0.00  0.00    +0.008 A 
ATOM      8  C   UNL     1      -2.983   0.456  25.210  0.00  0.00    +0.016 A 
ATOM      9  C   UNL     1      -2.991   0.990  24.581  0.00  0.00    +0.062 A 
ATOM     10  C   UNL     1      -3.326   0.771  23.859  0.00  0.00    +0.016 A 
ATOM     11  C   UNL     1      -3.654   0.019  23.767  0.00  0.00    +0.008 A 
BRANCH   6   4
ATOM      4  C   UNL     1      -3.973  -1.265  24.303  0.00  0.00    +0.341 C 
ATOM      5  O   UNL     1      -4.742  -1.348  24.016  0.00  0.00    -0.245 OA
BRANCH   4   3
ATOM      3  O   UNL     1      -3.532  -1.935  24.498  0.00  0.00    -0.445 OA
BRANCH   3   2
ATOM      1  C   UNL     1      -3.368  -3.354  24.494  0.00  0.00    +0.051 C 
ATOM      2  C   UNL     1      -3.802  -2.684  24.283  0.00  0.00    +0.209 C 
ENDBRANCH   3   2
ENDBRANCH   4   3
ENDBRANCH   6   4
ENDBRANCH  12   9
TORSDOF 4
ENDMDL
MODEL 2
REMARK VINA RESULT:      -9.4      1.791      5.309
REMARK  Name = 
REMARK  4 active torsions:
REMARK  status: ('A' for Active; 'I' for Inactive)
REMARK    1  A    between atoms: C_2  and  O_3
REMARK    2  A    between atoms: O_3  and  C_4
REMARK    3  A    between atoms: C_4  and  C_6
REMARK    4  A    between atoms: C_9  and  N_12
REMARK                            x       y       z     vdW  Elec       q    Type
REMARK                         _______ _______ _______ _____ _____    ______ ____
ROOT
ATOM     12  N   UNL     1      -2.374   0.649  24.648  0.00  0.00    -0.191 N 
ATOM     13  C   UNL     1      -3.070   0.494  24.232  0.00  0.00    +0.255 C 
ATOM     14  O   UNL     1      -3.536   1.051  23.842  0.00  0.00    -0.272 OA
ATOM     15  C   UNL     1      -3.216  -0.316  24.275  0.00  0.00    +0.160 C 
ATOM     16  C   UNL     1      -3.822  -0.785  23.969  0.00  0.00    +0.076 C 
ATOM     17  C   UNL     1      -3.824  -1.598  24.105  0.00  0.00    +0.078 A 
ATOM     18  C   UNL     1      -3.219  -1.944  24.547  0.00  0.00    +0.094 A 
ATOM     19  C   UNL     1      -2.612  -1.476  24.854  0.00  0.00    +0.142 C 
ATOM     20  N   UNL     1      -2.611  -0.662  24.718  0.00  0.00    -0.251 N 
ATOM     21  C   UNL     1      -2.091  -0.065  24.948  0.00  0.00    +0.317 C 
ATOM     22  O   UNL     1      -1.407  -0.165  25.399  0.00  0.00    -0.252 OA
ATOM     23  N   UNL     1      -3.366  -2.755  24.590  0.00  0.00    -0.225 NA
ATOM     24  C   UNL     1      -4.061  -2.911  24.175  0.00  0.00    +0.198 A 
ATOM     25  N   UNL     1      -4.344  -2.196  23.875  0.00  0.00    -0.227 NA
ENDROOT
BRANCH  12   9
ATOM      6  C   UNL     1      -1.322   2.870  24.943  0.00  0.00    +0.076 A 
ATOM      7  C   UNL     1      -1.093   2.386  24.315  0.00  0.00    +0.008 A 
ATOM      8  C   UNL     1      -1.444   1.646  24.217  0.00  0.00    +0.016 A 
ATOM      9  C   UNL     1      -2.023   1.390  24.746  0.00  0.00    +0.062 A 
ATOM     10  C   UNL     1      -2.251   1.875  25.374  0.00  0.00    +0.016 A 
ATOM     11  C   UNL     1      -1.900   2.615  25.472  0.00  0.00    +0.008 A 
BRANCH   6   4
ATOM      4  C   UNL     1      -0.971   3.610  25.041  0.00  0.00    +0.341 C 
ATOM      5  O   UNL     1      -0.170   3.665  25.234  0.00  0.00    -0.245 OA
BRANCH   4   3
ATOM      3  O   UNL     1      -1.420   4.296  24.948  0.00  0.00    -0.445 OA
BRANCH   3   2
ATOM      1  C   UNL     1      -1.521   5.720  24.999  0.00  0.00    +0.051 C 
ATOM      2  C   UNL     1      -1.059   5.036  24.998  0.00  0.00    +0.209 C 
ENDBRANCH   3   2
ENDBRANCH   4   3
ENDBRANCH   6   4
ENDBRANCH  12   9
TORSDOF 4
ENDMDL
MODEL 3
REMARK VINA RESULT:      -8.7      2.307      3.471
REMARK  Name = 
REMARK  4 active torsions:
REMARK  status: ('A' for Active; 'I' for Inactive)
REMARK    1  A    between atoms: C_2  and  O_3
REMARK    2  A    between atoms: O_3  and  C_4
REMARK    3  A    between atoms: C_4  and  C_6
REMARK    4  A    between atoms: C_9  and  N_12
REMARK                            x       y       z     vdW  Elec       q    Type
REMARK                         _______ _______ _______ _____ _____    ______ ____
ROOT
ATOM     12  N   UNL     1      -2.561   1.526  24.601  0.00  0.00    -0.191 N 
ATOM     13  C   UNL     1      -3.335   1.239  24.585  0.00  0.00    +0.255 C 
ATOM     14  O   UNL     1      -3.567   0.483  24.351  0.00  0.00    -0.272 OA
ATOM     15  C   UNL     1      -3.834   1.841  24.846  0.00  0.00    +0.160 C 
ATOM     16  C   UNL     1      -4.653   1.875  24.945  0.00  0.00    +0.076 C 
ATOM     17  C   UNL     1      -5.007   2.566  25.221  0.00  0.00    +0.078 A 
ATOM     18  C   UNL     1      -4.543   3.225  25.397  0.00  0.00    +0.094 A 
ATOM     19  C   UNL     1      -3.724   3.192  25.298  0.00  0.00    +0.142 C 
ATOM     20  N   UNL     1      -3.370   2.499  25.022  0.00  0.00    -0.251 N 
ATOM     21  C   UNL     1      -2.583   2.305  24.871  0.00  0.00    +0.317 C 
ATOM     22  O   UNL     1      -1.932   2.802  24.972  0.00  0.00    -0.252 OA
ATOM     23  N   UNL     1      -5.043   3.828  25.658  0.00  0.00    -0.225 NA
ATOM     24  C   UNL     1      -5.816   3.541  25.643  0.00  0.00    +0.198 A 
ATOM     25  N   UNL     1      -5.794   2.762  25.372  0.00  0.00    -0.227 NA
ENDROOT
BRANCH  12   9
ATOM      6  C   UNL     1      -0.530   0.269  23.951  0.00  0.00    +0.076 A 
ATOM      7  C   UNL     1      -0.821   0.213  24.722  0.00  0.00    +0.008 A 
ATOM      8  C   UNL     1      -1.497   0.632  24.938  0.00  0.00    +0.016 A 
ATOM      9  C   UNL     1      -1.884   1.107  24.384  0.00  0.00    +0.062 A 
ATOM     10  C   UNL     1      -1.593   1.162  23.615  0.00  0.00    +0.016 A 
ATOM     11  C   UNL     1      -0.916   0.743  23.398  0.00  0.00    +0.008 A 
BRANCH   6   4
ATOM      4  C   UNL     1       0.147  -0.150  23.735  0.00  0.00    +0.341 C 
ATOM      5  O   UNL     1       0.247  -0.931  23.985  0.00  0.00    -0.245 OA
BRANCH   4   3
ATOM      3  O   UNL     1       0.724   0.210  23.268  0.00  0.00    -0.445 OA
BRANCH   3   2
ATOM      1  C   UNL     1       1.973   0.144  22.577  0.00  0.00    +0.051 C 
ATOM      2  C   UNL     1       1.362  -0.231  22.988  0.00  0.00    +0.209 C 
ENDBRANCH   3   2
ENDBRANCH   4   3
ENDBRANCH   6   4
ENDBRANCH  12   9
TORSDOF 4
ENDMDL
MODEL 4
REMARK VINA RESULT:      -8.6      2.025      2.592
REMARK  Name = 
REMARK  4 active torsions:
REMARK  status: ('A' for Active; 'I' for Inactive)
REMARK    1  A    between atoms: C_2  and  O_3
REMARK    2  A    between atoms: O_3  and  C_4
REMARK    3  A    between atoms: C_4  and  C_6
REMARK    4  A    between atoms: C_9  and  N_12
REMARK                            x       y       z     vdW  Elec       q    Type
REMARK                         _______ _______ _______ _____ _____    ______ ____
ROOT
ATOM     12  N   UNL     1      -4.314   0.899  24.999  0.00  0.00    -0.191 N 
ATOM     13  C   UNL     1      -5.064   1.140  25.244  0.00  0.00    +0.255 C 
ATOM     14  O   UNL     1      -5.702   0.646  25.412  0.00  0.00    -0.272 OA
ATOM     15  C   UNL     1      -5.063   1.963  25.291  0.00  0.00    +0.160 C 
ATOM     16  C   UNL     1      -5.649   2.505  25.503  0.00  0.00    +0.076 C 
ATOM     17  C   UNL     1      -5.484   3.313  25.498  0.00  0.00    +0.078 A 
ATOM     18  C   UNL     1      -4.734   3.580  25.282  0.00  0.00    +0.094 A 
ATOM     19  C   UNL     1      -4.148   3.040  25.071  0.00  0.00    +0.142 C 
ATOM     20  N   UNL     1      -4.313   2.231  25.075  0.00  0.00    -0.251 N 
ATOM     21  C   UNL     1      -3.851   1.573  24.894  0.00  0.00    +0.317 C 
ATOM     22  O   UNL     1      -3.062   1.586  24.652  0.00  0.00    -0.252 OA
ATOM     23  N   UNL     1      -4.734   4.404  25.330  0.00  0.00    -0.225 NA
ATOM     24  C   UNL     1      -5.483   4.647  25.575  0.00  0.00    +0.198 A 
ATOM     25  N   UNL     1      -5.947   3.972  25.679  0.00  0.00    -0.227 NA
ENDROOT
BRANCH  12   9
ATOM      6  C   UNL     1      -3.585  -1.439  24.639  0.00  0.00    +0.076 A 
ATOM      7  C   UNL     1      -3.889  -1.001  24.010  0.00  0.00    +0.008 A 
ATOM      8  C   UNL     1      -4.132  -0.222  24.129  0.00  0.00    +0.016 A 
ATOM      9  C   UNL     1      -4.071   0.119  24.879  0.00  0.00    +0.062 A 
ATOM     10  C   UNL     1      -3.768  -0.320  25.508  0.00  0.00    +0.016 A 
ATOM     11  C   UNL     1      -3.525  -1.099  25.388  0.00  0.00    +0.008 A 
BRANCH   6   4
ATOM      4  C   UNL     1      -3.342  -2.218  24.520  0.00  0.00    +0.341 C 
ATOM      5  O   UNL     1      -3.868  -2.771  24.205  0.00  0.00    -0.245 OA
BRANCH   4   3
ATOM      3  O   UNL     1      -2.573  -2.446  24.714  0.00  0.00    -0.445 OA
BRANCH   3   2
ATOM      1  C   UNL     1      -1.337  -2.978  24.237  0.00  0.00    +0.051 C 
ATOM      2  C   UNL     1      -2.162  -2.969  24.227  0.00  0.00    +0.209 C 
ENDBRANCH   3   2
ENDBRANCH   4   3
ENDBRANCH   6   4
ENDBRANCH  12   9
TORSDOF 4
ENDMDL
MODEL 5
REMARK VINA RESULT:      -7.6      2.293      4.176
REMARK  Name = 
REMARK  4 active torsions:
REMARK  status: ('A' for Active; 'I' for Inactive)
REMARK    1  A    between atoms: C_2  and  O_3
REMARK    2  A    between atoms: O_3  and  C_4
REMARK    3  A    between atoms: C_4  and  C_6
REMARK    4  A    between atoms: C_9  and  N_12
REMARK                            x       y       z     vdW  Elec       q    Type
REMARK                         _______ _______ _______ _____ _____    ______ ____
ROOT
ATOM     12  N   UNL     1      -2.461   1.393  24.488  0.00  0.00    -0.191 N 
ATOM     13  C   UNL     1      -1.881   1.697  23.985  0.00  0.00    +0.255 C 
ATOM     14  O   UNL     1      -1.896   2.436  23.619  0.00  0.00    -0.272 OA
ATOM     15  C   UNL     1      -1.285   1.132  23.913  0.00  0.00    +0.160 C 
ATOM     16  C   UNL     1      -0.576   1.127  23.490  0.00  0.00    +0.076 C 
ATOM     17  C   UNL     1      -0.079   0.471  23.525  0.00  0.00    +0.078 A 
ATOM     18  C   UNL     1      -0.290  -0.182  23.983  0.00  0.00    +0.094 A 
ATOM     19  C   UNL     1      -0.997  -0.179  24.406  0.00  0.00    +0.142 C 
ATOM     20  N   UNL     1      -1.495   0.479  24.371  0.00  0.00    -0.251 N 
ATOM     21  C   UNL     1      -2.222   0.640  24.726  0.00  0.00    +0.317 C 
ATOM     22  O   UNL     1      -2.637   0.137  25.231  0.00  0.00    -0.252 OA
ATOM     23  N   UNL     1       0.308  -0.747  23.911  0.00  0.00    -0.225 NA
ATOM     24  C   UNL     1       0.887  -0.444  23.409  0.00  0.00    +0.198 A 
ATOM     25  N   UNL     1       0.648   0.309  23.170  0.00  0.00    -0.227 NA
ENDROOT
BRANCH  12   9
ATOM      6  C   UNL     1      -4.549   2.539  25.161  0.00  0.00    +0.076 A 
ATOM      7  C   UNL     1      -3.838   2.721  25.539  0.00  0.00    +0.008 A 
ATOM      8  C   UNL     1      -3.142   2.339  25.315  0.00  0.00    +0.016 A 
ATOM      9  C   UNL     1      -3.157   1.775  24.712  0.00  0.00    +0.062 A 
ATOM     10  C   UNL     1      -3.867   1.593  24.335  0.00  0.00    +0.016 A 
ATOM     11  C   UNL     1      -4.563   1.975  24.559  0.00  0.00    +0.008 A 
BRANCH   6   4
ATOM      4  C   UNL     1      -5.245   2.920  25.385  0.00  0.00    +0.341 C 
ATOM      5  O   UNL     1      -5.897   2.479  25.632  0.00  0.00    -0.245 OA
BRANCH   4   3
ATOM      3  O   UNL     1      -5.290   3.744  25.364  0.00  0.00    -0.445 OA
BRANCH   3   2
ATOM      1  C   UNL     1      -6.048   4.945  25.513  0.00  0.00    +0.051 C 
ATOM      2  C   UNL     1      -5.988   4.125  25.582  0.00  0.00    +0.209 C 
ENDBRANCH   3   2
ENDBRANCH   4   3
ENDBRANCH   6   4
ENDBRANCH  12   9
TORSDOF 4
ENDMDL
MODEL 6
REMARK VINA RESULT:      -7.4      2.288      5.126
REMARK  Name = 
REMARK  4 active torsions:
REMARK  status: ('A' for Active; 'I' for Inactive)
REMARK    1  A    between atoms: C_2  and  O_3
REMARK    2  A    between atoms: O_3  and  C_4
REMARK    3  A    between atoms: C_4  and  C_6
REMARK    4  A    between atoms: C_9  and  N_12
REMARK                            x       y       z     vdW  Elec       q    Type
REMARK                         _______ _______ _______ _____ _____    ______ ____
ROOT
ATOM     12  N   UNL     1      -3.569   0.514  24.639  0.00  0.00    -0.191 N 
ATOM     13  C   UNL     1      -4.070  -0.127  24.501  0.00  0.00    +0.255 C 
ATOM     14  O   UNL     1      -4.886  -0.089  24.390  0.00  0.00    -0.272 OA
ATOM     15  C   UNL     1      -3.611  -0.811  24.494  0.00  0.00    +0.160 C 
ATOM     16  C   UNL     1      -3.806  -1.606  24.384  0.00  0.00    +0.076 C 
ATOM     17  C   UNL     1      -3.216  -2.182  24.406  0.00  0.00    +0.078 A 
ATOM     18  C   UNL     1      -2.432  -1.965  24.540  0.00  0.00    +0.094 A 
ATOM     19  C   UNL     1      -2.236  -1.171  24.650  0.00  0.00    +0.142 C 
ATOM     20  N   UNL     1      -2.827  -0.594  24.627  0.00  0.00    -0.251 N 
ATOM     21  C   UNL     1      -2.801   0.225  24.717  0.00  0.00    +0.317 C 
ATOM     22  O   UNL     1      -2.125   0.677  24.859  0.00  0.00    -0.252 OA
ATOM     23  N   UNL     1      -1.972  -2.650  24.533  0.00  0.00    -0.225 NA
ATOM     24  C   UNL     1      -2.473  -3.291  24.395  0.00  0.00    +0.198 A 
ATOM     25  N   UNL     1      -3.242  -3.002  24.317  0.00  0.00    -0.227 NA
ENDROOT
BRANCH  12   9
ATOM      6  C   UNL     1      -4.253   2.888  24.791  0.00  0.00    +0.076 A 
ATOM      7  C   UNL     1      -3.971   2.586  24.077  0.00  0.00    +0.008 A 
ATOM      8  C   UNL     1      -3.743   1.794  24.026  0.00  0.00    +0.016 A 
ATOM      9  C   UNL     1      -3.797   1.306  24.689  0.00  0.00    +0.062 A 
ATOM     10  C   UNL     1      -4.079   1.610  25.403  0.00  0.00    +0.016 A 
ATOM     11  C   UNL     1      -4.307   2.401  25.453  0.00  0.00    +0.008 A 
BRANCH   6   4
ATOM      4  C   UNL     1      -4.481   3.680  24.841  0.00  0.00    +0.341 C 
ATOM      5  O   UNL     1      -4.026   4.264  24.476  0.00  0.00    -0.245 OA
BRANCH   4   3
ATOM      3  O   UNL     1      -5.163   3.887  25.257  0.00  0.00    -0.445 OA
BRANCH   3   2
ATOM      1  C   UNL     1      -6.133   4.874  25.612  0.00  0.00    +0.051 C 
ATOM      2  C   UNL     1      -5.393   4.678  25.303  0.00  0.00    +0.209 C 
ENDBRANCH   3   2
ENDBRANCH   4   3
ENDBRANCH   6   4
ENDBRANCH  12   9
TORSDOF 4
ENDMDL
MODEL 7
REMARK VINA RESULT:      -6.1     17.652     18.944
REMARK  Name = 
REMARK  4 active torsions:
REMARK  status: ('A' for Active; 'I' for Inactive)
REMARK    1  A    between atoms: C_2  and  O_3
REMARK    2  A    between atoms: O_3  and  C_4
REMARK    3  A    between atoms: C_4  and  C_6
REMARK    4  A    between atoms: C_9  and  N_12
REMARK                            x       y       z     vdW  Elec       q    Type
REMARK                         _______ _______ _______ _____ _____    ______ ____
ROOT
ATOM     12  N   UNL     1      -5.338  -9.182   9.682  0.00  0.00    -0.191 N 
ATOM     13  C   UNL     1      -5.723  -8.452   9.657  0.00  0.00    +0.255 C 
ATOM     14  O   UNL     1      -5.430  -7.740   9.952  0.00  0.00    -0.272 OA
ATOM     15  C   UNL     1      -6.451  -8.561   9.286  0.00  0.00    +0.160 C 
ATOM     16  C   UNL     1      -7.064  -8.038   9.108  0.00  0.00    +0.076 C 
ATOM     17  C   UNL     1      -7.741  -8.311   8.725  0.00  0.00    +0.078 A 
ATOM     18  C   UNL     1      -7.806  -9.108   8.521  0.00  0.00    +0.094 A 
ATOM     19  C   UNL     1      -7.194  -9.632   8.699  0.00  0.00    +0.142 C 
ATOM     20  N   UNL     1      -6.516  -9.358   9.082  0.00  0.00    -0.251 N 
ATOM     21  C   UNL     1      -5.828  -9.741   9.326  0.00  0.00    +0.317 C 
ATOM     22  O   UNL     1      -5.660 -10.544   9.232  0.00  0.00    -0.252 OA
ATOM     23  N   UNL     1      -8.535  -9.217   8.149  0.00  0.00    -0.225 NA
ATOM     24  C   UNL     1      -8.920  -8.488   8.124  0.00  0.00    +0.198 A 
ATOM     25  N   UNL     1      -8.430  -7.928   8.480  0.00  0.00    -0.227 NA
ENDROOT
BRANCH  12   9
ATOM      6  C   UNL     1      -3.103  -9.615  10.654  0.00  0.00    +0.076 A 
ATOM      7  C   UNL     1      -3.779  -9.713  11.116  0.00  0.00    +0.008 A 
ATOM      8  C   UNL     1      -4.524  -9.568  10.792  0.00  0.00    +0.016 A 
ATOM      9  C   UNL     1      -4.593  -9.326  10.006  0.00  0.00    +0.062 A 
ATOM     10  C   UNL     1      -3.916  -9.229   9.545  0.00  0.00    +0.016 A 
ATOM     11  C   UNL     1      -3.171  -9.373   9.869  0.00  0.00    +0.008 A 
BRANCH   6   4
ATOM      4  C   UNL     1      -2.358  -9.759  10.978  0.00  0.00    +0.341 C 
ATOM      5  O   UNL     1      -2.215 -10.462  11.387  0.00  0.00    -0.245 OA
BRANCH   4   3
ATOM      3  O   UNL     1      -1.756  -9.202  10.893  0.00  0.00    -0.445 OA
BRANCH   3   2
ATOM      1  C   UNL     1      -0.415  -8.784  11.154  0.00  0.00    +0.051 C 
ATOM      2  C   UNL     1      -1.044  -9.297  11.300  0.00  0.00    +0.209 C 
ENDBRANCH   3   2
ENDBRANCH   4   3
ENDBRANCH   6   4
ENDBRANCH  12   9
TORSDOF 4
ENDMDL
