MODEL 1
REMARK VINA RESULT:     -14.4      0.000      0.000
REMARK  Name = 
REMARK  8 active torsions:
REMARK  status: ('A' for Active; 'I' for Inactive)
REMARK    1  A    between atoms: C_2  and  C_5
REMARK    2  A    between atoms: C_8  and  C_11
REMARK    3  A    between atoms: C_13  and  C_14
REMARK    4  A    between atoms: C_14  and  C_15
REMARK    5  A    between atoms: C_20  and  C_21
REMARK    6  A    between atoms: C_21  and  C_22
REMARK    7  A    between atoms: N_24  and  C_25
REMARK    8  A    between atoms: C_25  and  C_26
REMARK                            x       y       z     vdW  Elec       q    Type
REMARK                         _______ _______ _______ _____ _____    ______ ____
ROOT
ATOM     15  C   UNL     1      -3.597   3.462  25.078  0.00  0.00    +0.024 C 
ATOM     16  C   UNL     1      -4.066   3.630  25.735  0.00  0.00    +0.089 C 
ATOM     17  N   UNL     1      -3.742   4.023  26.384  0.00  0.00    -0.218 NA
ATOM     18  C   UNL     1      -2.949   4.249  26.375  0.00  0.00    +0.089 C 
ATOM     19  C   UNL     1      -2.479   4.082  25.717  0.00  0.00    +0.019 C 
ATOM     20  C   UNL     1      -2.804   3.689  25.069  0.00  0.00    +0.012 C 
ENDROOT
BRANCH  15  14
ATOM     14  C   UNL     1      -3.921   3.069  24.428  0.00  0.00    +0.051 C 
BRANCH  14  13
ATOM     11  C   UNL     1      -4.404   0.996  24.597  0.00  0.00    +0.177 A 
ATOM     12  C   UNL     1      -3.860   1.600  24.458  0.00  0.00    +0.058 A 
ATOM     13  C   UNL     1      -4.256   2.321  24.525  0.00  0.00    +0.101 A 
ATOM     35  N   UNL     1      -5.045   2.162  24.706  0.00  0.00    -0.081 NA
ATOM     36  O   UNL     1      -5.137   1.343  24.750  0.00  0.00    -0.354 OA
BRANCH  11   8
ATOM      5  C   UNL     1      -3.924  -1.432  24.562  0.00  0.00    -0.023 A 
ATOM      6  C   UNL     1      -4.057  -1.028  23.856  0.00  0.00    -0.004 A 
ATOM      7  C   UNL     1      -4.217  -0.218  23.867  0.00  0.00    +0.003 A 
ATOM      8  C   UNL     1      -4.244   0.187  24.585  0.00  0.00    +0.037 A 
ATOM      9  C   UNL     1      -4.112  -0.218  25.292  0.00  0.00    +0.003 A 
ATOM     10  C   UNL     1      -3.952  -1.027  25.280  0.00  0.00    -0.004 A 
BRANCH   5   2
ATOM      1  C   UNL     1      -3.605  -3.050  24.539  0.00  0.00    +0.004 C 
ATOM      2  C   UNL     1      -3.764  -2.241  24.551  0.00  0.00    +0.019 C 
ATOM      3  C   UNL     1      -3.493  -2.199  25.329  0.00  0.00    +0.004 C 
ATOM      4  C   UNL     1      -4.036  -2.284  23.773  0.00  0.00    +0.004 C 
ENDBRANCH   5   2
ENDBRANCH  11   8
ENDBRANCH  14  13
ENDBRANCH  15  14
BRANCH  20  21
ATOM     21  C   UNL     1      -2.334   3.521  24.410  0.00  0.00    +0.087 C 
BRANCH  21  22
ATOM     22  C   UNL     1      -1.568   3.234  24.513  0.00  0.00    +0.242 C 
ATOM     23  O   UNL     1      -0.976   3.733  24.798  0.00  0.00    -0.273 OA
ATOM     24  N   UNL     1      -1.394   2.449  24.330  0.00  0.00    -0.201 NA
BRANCH  24  25
ATOM     25  C   UNL     1      -0.627   2.162  24.432  0.00  0.00    +0.142 C 
BRANCH  25  26
ATOM     26  C   UNL     1      -0.471   1.358  24.331  0.00  0.00    +0.003 A 
ATOM     27  C   UNL     1      -0.193   1.079  23.606  0.00  0.00    +0.001 A 
ATOM     28  C   UNL     1      -0.037   0.276  23.506  0.00  0.00    +0.040 A 
ATOM     29  C   UNL     1      -0.158  -0.250  24.131  0.00  0.00    +0.176 A 
ATOM     30  O   UNL     1      -0.053  -1.065  24.195  0.00  0.00    -0.435 OA
ATOM     31  C   UNL     1      -0.266  -1.290  24.959  0.00  0.00    +0.429 C 
ATOM     32  O   UNL     1      -0.503  -0.614  25.368  0.00  0.00    -0.435 OA
ATOM     33  C   UNL     1      -0.436   0.029  24.856  0.00  0.00    +0.176 A 
ATOM     34  C   UNL     1      -0.592   0.833  24.956  0.00  0.00    +0.038 A 
ENDBRANCH  25  26
ENDBRANCH  24  25
ENDBRANCH  21  22
ENDBRANCH  20  21
TORSDOF 8
ENDMDL
MODEL 2
REMARK VINA RESULT:     -13.9      1.249      3.768
REMARK  Name = 
REMARK  8 active torsions:
REMARK  status: ('A' for Active; 'I' for Inactive)
REMARK    1  A    between atoms: C_2  and  C_5
REMARK    2  A    between atoms: C_8  and  C_11
REMARK    3  A    between atoms: C_13  and  C_14
REMARK    4  A    between atoms: C_14  and  C_15
REMARK    5  A    between atoms: C_20  and  C_21
REMARK    6  A    between atoms: C_21  and  C_22
REMARK    7  A    between atoms: N_24  and  C_25
REMARK    8  A    between atoms: C_25  and  C_26
REMARK                            x       y       z     vdW  Elec       q    Type
REMARK                         _______ _______ _______ _____ _____    ______ ____
ROOT
ATOM     15  C   UNL     1      -0.553   2.567  25.269  0.00  0.00    +0.024 C 
ATOM     16  C   UNL     1      -0.000   2.453  24.668  0.00  0.00    +0.089 C 
ATOM     17  N   UNL     1       0.171   3.066  24.143  0.00  0.00    -0.218 NA
ATOM     18  C   UNL     1      -0.212   3.793  24.220  0.00  0.00    +0.089 C 
ATOM     19  C   UNL     1      -0.765   3.907  24.822  0.00  0.00    +0.019 C 
ATOM     20  C   UNL     1      -0.935   3.294  25.346  0.00  0.00    +0.012 C 
ENDROOT
BRANCH  15  14
ATOM     14  C   UNL     1      -0.724   1.954  25.795  0.00  0.00    +0.051 C 
BRANCH  14  13
ATOM     11  C   UNL     1      -1.425   0.059  25.103  0.00  0.00    +0.177 A 
ATOM     12  C   UNL     1      -1.568   0.819  25.392  0.00  0.00    +0.058 A 
ATOM     13  C   UNL     1      -0.839   1.188  25.510  0.00  0.00    +0.101 A 
ATOM     35  N   UNL     1      -0.246   0.656  25.295  0.00  0.00    -0.081 NA
ATOM     36  O   UNL     1      -0.608  -0.041  25.043  0.00  0.00    -0.354 OA
BRANCH  11   8
ATOM      5  C   UNL     1      -3.144  -1.623  24.520  0.00  0.00    -0.023 A 
ATOM      6  C   UNL     1      -3.371  -0.869  24.763  0.00  0.00    -0.004 A 
ATOM      7  C   UNL     1      -2.798  -0.308  24.958  0.00  0.00    +0.003 A 
ATOM      8  C   UNL     1      -1.998  -0.502  24.909  0.00  0.00    +0.037 A 
ATOM      9  C   UNL     1      -1.770  -1.257  24.665  0.00  0.00    +0.003 A 
ATOM     10  C   UNL     1      -2.343  -1.817  24.470  0.00  0.00    -0.004 A 
BRANCH   5   2
ATOM      1  C   UNL     1      -4.289  -2.745  24.129  0.00  0.00    +0.004 C 
ATOM      2  C   UNL     1      -3.716  -2.185  24.325  0.00  0.00    +0.019 C 
ATOM      3  C   UNL     1      -3.350  -2.732  24.822  0.00  0.00    +0.004 C 
ATOM      4  C   UNL     1      -4.083  -1.637  23.828  0.00  0.00    +0.004 C 
ENDBRANCH   5   2
ENDBRANCH  11   8
ENDBRANCH  14  13
ENDBRANCH  15  14
BRANCH  20  21
ATOM     21  C   UNL     1      -1.489   3.408  25.948  0.00  0.00    +0.087 C 
BRANCH  21  22
ATOM     22  C   UNL     1      -2.211   3.770  25.781  0.00  0.00    +0.242 C 
ATOM     23  O   UNL     1      -2.259   4.592  25.733  0.00  0.00    -0.273 OA
ATOM     24  N   UNL     1      -2.885   3.310  25.663  0.00  0.00    -0.201 NA
BRANCH  24  25
ATOM     25  C   UNL     1      -3.607   3.672  25.496  0.00  0.00    +0.142 C 
BRANCH  25  26
ATOM     26  C   UNL     1      -4.264   3.212  25.299  0.00  0.00    +0.003 A 
ATOM     27  C   UNL     1      -4.393   2.993  24.514  0.00  0.00    +0.001 A 
ATOM     28  C   UNL     1      -5.049   2.534  24.316  0.00  0.00    +0.040 A 
ATOM     29  C   UNL     1      -5.576   2.292  24.904  0.00  0.00    +0.176 A 
ATOM     30  O   UNL     1      -6.265   1.841  24.876  0.00  0.00    -0.435 OA
ATOM     31  C   UNL     1      -6.562   1.780  25.643  0.00  0.00    +0.429 C 
ATOM     32  O   UNL     1      -6.056   2.194  26.145  0.00  0.00    -0.435 OA
ATOM     33  C   UNL     1      -5.447   2.511  25.688  0.00  0.00    +0.176 A 
ATOM     34  C   UNL     1      -4.790   2.971  25.886  0.00  0.00    +0.038 A 
ENDBRANCH  25  26
ENDBRANCH  24  25
ENDBRANCH  21  22
ENDBRANCH  20  21
TORSDOF 8
ENDMDL
MODEL 3
REMARK VINA RESULT:     -13.8      1.616      5.607
REMARK  Name = 
REMARK  8 active torsions:
REMARK  status: ('A' for Active; 'I' for Inactive)
REMARK    1  A    between atoms: C_2  and  C_5
REMARK    2  A    between atoms: C_8  and  C_11
REMARK    3  A    between atoms: C_13  and  C_14
REMARK    4  A    between atoms: C_14  and  C_15
REMARK    5  A    between atoms: C_20  and  C_21
REMARK    6  A    between atoms: C_21  and  C_22
REMARK    7  A    between atoms: N_24  and  C_25
REMARK    8  A    between atoms: C_25  and  C_26
REMARK                            x       y       z     vdW  Elec       q    Type
REMARK                         _______ _______ _______ _____ _____    ______ ____
ROOT
ATOM     15  C   UNL     1      -1.786  -1.296  25.251  0.00  0.00    +0.024 C 
ATOM     16  C   UNL     1      -1.225  -1.684  24.788  0.00  0.00    +0.089 C 
ATOM     17  N   UNL     1      -1.462  -2.261  24.248  0.00  0.00    -0.218 NA
ATOM     18  C   UNL     1      -2.261  -2.450  24.172  0.00  0.00    +0.089 C 
ATOM     19  C   UNL     1      -2.824  -2.062  24.635  0.00  0.00    +0.019 C 
ATOM     20  C   UNL     1      -2.586  -1.485  25.175  0.00  0.00    +0.012 C 
ENDROOT
BRANCH  15  14
ATOM     14  C   UNL     1      -1.549  -0.719  25.791  0.00  0.00    +0.051 C 
BRANCH  14  13
ATOM     11  C   UNL     1      -0.890   1.240  25.254  0.00  0.00    +0.177 A 
ATOM     12  C   UNL     1      -1.448   0.735  25.593  0.00  0.00    +0.058 A 
ATOM     13  C   UNL     1      -1.166  -0.038  25.525  0.00  0.00    +0.101 A 
ATOM     35  N   UNL     1      -0.435  -0.011  25.144  0.00  0.00    -0.081 NA
ATOM     36  O   UNL     1      -0.265   0.779  24.977  0.00  0.00    -0.354 OA
BRANCH  11   8
ATOM      5  C   UNL     1      -1.065   3.704  25.098  0.00  0.00    -0.023 A 
ATOM      6  C   UNL     1      -1.067   3.336  25.836  0.00  0.00    -0.004 A 
ATOM      7  C   UNL     1      -1.009   2.514  25.888  0.00  0.00    +0.003 A 
ATOM      8  C   UNL     1      -0.948   2.061  25.203  0.00  0.00    +0.037 A 
ATOM      9  C   UNL     1      -0.946   2.428  24.463  0.00  0.00    +0.003 A 
ATOM     10  C   UNL     1      -1.004   3.249  24.411  0.00  0.00    -0.004 A 
BRANCH   5   2
ATOM      1  C   UNL     1      -1.180   5.346  24.991  0.00  0.00    +0.004 C 
ATOM      2  C   UNL     1      -1.123   4.525  25.045  0.00  0.00    +0.019 C 
ATOM      3  C   UNL     1      -1.877   4.494  25.377  0.00  0.00    +0.004 C 
ATOM      4  C   UNL     1      -0.368   4.556  24.712  0.00  0.00    +0.004 C 
ENDBRANCH   5   2
ENDBRANCH  11   8
ENDBRANCH  14  13
ENDBRANCH  15  14
BRANCH  20  21
ATOM     21  C   UNL     1      -3.148  -1.097  25.638  0.00  0.00    +0.087 C 
BRANCH  21  22
ATOM     22  C   UNL     1      -3.832  -0.794  25.290  0.00  0.00    +0.242 C 
ATOM     23  O   UNL     1      -4.336  -1.294  24.869  0.00  0.00    -0.273 OA
ATOM     24  N   UNL     1      -4.011   0.007  25.362  0.00  0.00    -0.201 NA
BRANCH  24  25
ATOM     25  C   UNL     1      -4.694   0.310  25.013  0.00  0.00    +0.142 C 
BRANCH  25  26
ATOM     26  C   UNL     1      -4.810   1.127  24.973  0.00  0.00    +0.003 A 
ATOM     27  C   UNL     1      -4.561   1.547  24.308  0.00  0.00    +0.001 A 
ATOM     28  C   UNL     1      -4.677   2.362  24.268  0.00  0.00    +0.040 A 
ATOM     29  C   UNL     1      -5.042   2.758  24.892  0.00  0.00    +0.176 A 
ATOM     30  O   UNL     1      -5.230   3.553  25.008  0.00  0.00    -0.435 OA
ATOM     31  C   UNL     1      -5.594   3.625  25.745  0.00  0.00    +0.429 C 
ATOM     32  O   UNL     1      -5.633   2.874  26.084  0.00  0.00    -0.435 OA
ATOM     33  C   UNL     1      -5.292   2.339  25.558  0.00  0.00    +0.176 A 
ATOM     34  C   UNL     1      -5.176   1.522  25.598  0.00  0.00    +0.038 A 
ENDBRANCH  25  26
ENDBRANCH  24  25
ENDBRANCH  21  22
ENDBRANCH  20  21
TORSDOF 8
ENDMDL
MODEL 4
REMARK VINA RESULT:     -12.6      1.528      2.358
REMARK  Name = 
REMARK  8 active torsions:
REMARK  status: ('A' for Active; 'I' for Inactive)
REMARK    1  A    between atoms: C_2  and  C_5
REMARK    2  A    between atoms: C_8  and  C_11
REMARK    3  A    between atoms: C_13  and  C_14
REMARK    4  A    between atoms: C_14  and  C_15
REMARK    5  A    between atoms: C_20  and  C_21
REMARK    6  A    between atoms: C_21  and  C_22
REMARK    7  A    between atoms: N_24  and  C_25
REMARK    8  A    between atoms: C_25  and  C_26
REMARK                            x       y       z     vdW  Elec       q    Type
REMARK                         _______ _______ _______ _____ _____    ______ ____
ROOT
ATOM     15  C   UNL     1      -5.161   2.382  24.954  0.00  0.00    +0.024 C 
ATOM     16  C   UNL     1      -5.690   2.214  25.563  0.00  0.00    +0.089 C 
ATOM     17  N   UNL     1      -5.855   2.784  26.136  0.00  0.00    -0.218 NA
ATOM     18  C   UNL     1      -5.490   3.523  26.099  0.00  0.00    +0.089 C 
ATOM     19  C   UNL     1      -4.960   3.692  25.489  0.00  0.00    +0.019 C 
ATOM     20  C   UNL     1      -4.796   3.121  24.917  0.00  0.00    +0.012 C 
ENDROOT
BRANCH  15  14
ATOM     14  C   UNL     1      -4.996   1.812  24.381  0.00  0.00    +0.051 C 
BRANCH  14  13
ATOM     11  C   UNL     1      -3.985  -0.020  24.807  0.00  0.00    +0.177 A 
ATOM     12  C   UNL     1      -3.991   0.745  24.497  0.00  0.00    +0.058 A 
ATOM     13  C   UNL     1      -4.746   1.059  24.608  0.00  0.00    +0.101 A 
ATOM     35  N   UNL     1      -5.206   0.489  24.987  0.00  0.00    -0.081 NA
ATOM     36  O   UNL     1      -4.736  -0.178  25.110  0.00  0.00    -0.354 OA
BRANCH  11   8
ATOM      5  C   UNL     1      -2.053  -1.567  24.826  0.00  0.00    -0.023 A 
ATOM      6  C   UNL     1      -1.929  -0.753  24.806  0.00  0.00    -0.004 A 
ATOM      7  C   UNL     1      -2.573  -0.236  24.799  0.00  0.00    +0.003 A 
ATOM      8  C   UNL     1      -3.341  -0.535  24.814  0.00  0.00    +0.037 A 
ATOM      9  C   UNL     1      -3.466  -1.351  24.834  0.00  0.00    +0.003 A 
ATOM     10  C   UNL     1      -2.822  -1.866  24.840  0.00  0.00    -0.004 A 
BRANCH   5   2
ATOM      1  C   UNL     1      -0.768  -2.601  24.838  0.00  0.00    +0.004 C 
ATOM      2  C   UNL     1      -1.410  -2.084  24.832  0.00  0.00    +0.019 C 
ATOM      3  C   UNL     1      -0.953  -1.512  25.212  0.00  0.00    +0.004 C 
ATOM      4  C   UNL     1      -1.867  -2.656  24.452  0.00  0.00    +0.004 C 
ENDBRANCH   5   2
ENDBRANCH  11   8
ENDBRANCH  14  13
ENDBRANCH  15  14
BRANCH  20  21
ATOM     21  C   UNL     1      -4.266   3.289  24.307  0.00  0.00    +0.087 C 
BRANCH  21  22
ATOM     22  C   UNL     1      -3.586   3.730  24.461  0.00  0.00    +0.242 C 
ATOM     23  O   UNL     1      -3.631   4.553  24.512  0.00  0.00    -0.273 OA
ATOM     24  N   UNL     1      -2.862   3.349  24.564  0.00  0.00    -0.201 NA
BRANCH  24  25
ATOM     25  C   UNL     1      -2.182   3.790  24.718  0.00  0.00    +0.142 C 
BRANCH  25  26
ATOM     26  C   UNL     1      -1.484   3.409  24.938  0.00  0.00    +0.003 A 
ATOM     27  C   UNL     1      -0.943   3.173  24.361  0.00  0.00    +0.001 A 
ATOM     28  C   UNL     1      -0.246   2.792  24.581  0.00  0.00    +0.040 A 
ATOM     29  C   UNL     1      -0.088   2.647  25.378  0.00  0.00    +0.176 A 
ATOM     30  O   UNL     1       0.548   2.286  25.758  0.00  0.00    -0.435 OA
ATOM     31  C   UNL     1       0.402   2.299  26.569  0.00  0.00    +0.429 C 
ATOM     32  O   UNL     1      -0.325   2.669  26.691  0.00  0.00    -0.435 OA
ATOM     33  C   UNL     1      -0.628   2.884  25.955  0.00  0.00    +0.176 A 
ATOM     34  C   UNL     1      -1.326   3.265  25.735  0.00  0.00    +0.038 A 
ENDBRANCH  25  26
ENDBRANCH  24  25
ENDBRANCH  21  22
ENDBRANCH  20  21
TORSDOF 8
ENDMDL
