MODEL 1
REMARK VINA RESULT:     -11.0      0.000      0.000
REMARK  Name = 
REMARK  3 active torsions:
REMARK  status: ('A' for Active; 'I' for Inactive)
REMARK    1  A    between atoms: O_2  and  C_3
REMARK    2  A    between atoms: C_8  and  C_10
REMARK    3  A    between atoms: N_17  and  C_18
REMARK                            x       y       z     vdW  Elec       q    Type
REMARK                         _______ _______ _______ _____ _____    ______ ____
ROOT
ATOM     10  C   UNL     1      -3.333   2.002  24.977  0.00  0.00    +0.080 C 
ATOM     11  C   UNL     1      -4.142   1.874  25.069  0.00  0.00    +0.031 C 
ATOM     12  C   UNL     1      -4.288   1.068  24.964  0.00  0.00    +0.096 C 
ATOM     13  N   UNL     1      -3.567   0.698  24.808  0.00  0.00    -0.262 N 
ATOM     14  C   UNL     1      -2.977   1.275  24.816  0.00  0.00    +0.103 C 
ATOM     15  C   UNL     1      -3.455  -0.107  24.668  0.00  0.00    +0.327 C 
ATOM     16  O   UNL     1      -2.698  -0.399  24.518  0.00  0.00    -0.250 OA
ATOM     17  N   UNL     1      -4.101  -0.621  24.677  0.00  0.00    -0.162 NA
ENDROOT
BRANCH  10   8
ATOM      3  C   UNL     1      -1.338   4.933  25.086  0.00  0.00    +0.140 A 
ATOM      4  C   UNL     1      -1.327   4.132  24.891  0.00  0.00    +0.058 A 
ATOM      5  C   UNL     1      -2.007   3.674  24.983  0.00  0.00    +0.103 A 
ATOM      6  C   UNL     1      -2.699   4.018  25.272  0.00  0.00    +0.100 A 
ATOM      7  N   UNL     1      -3.279   3.434  25.305  0.00  0.00    -0.229 NA
ATOM      8  C   UNL     1      -2.947   2.729  25.037  0.00  0.00    +0.140 A 
ATOM      9  N   UNL     1      -2.160   2.878  24.838  0.00  0.00    -0.229 NA
ATOM     25  C   UNL     1      -2.711   4.820  25.468  0.00  0.00    +0.024 A 
ATOM     26  C   UNL     1      -2.030   5.277  25.375  0.00  0.00    +0.039 A 
BRANCH   3   2
ATOM      1  C   UNL     1      -0.200   5.316  24.311  0.00  0.00    +0.252 C 
ATOM      2  O   UNL     1      -0.658   5.390  24.993  0.00  0.00    -0.471 OA
ENDBRANCH   3   2
ENDBRANCH  10   8
BRANCH  17  18
ATOM     18  C   UNL     1      -3.989  -1.426  24.537  0.00  0.00    +0.075 A 
ATOM     19  C   UNL     1      -4.252  -1.762  23.830  0.00  0.00    +0.019 A 
ATOM     20  C   UNL     1      -4.140  -2.567  23.690  0.00  0.00    +0.031 A 
ATOM     21  C   UNL     1      -3.766  -3.037  24.257  0.00  0.00    +0.140 A 
ATOM     22  F   UNL     1      -3.655  -3.842  24.115  0.00  0.00    -0.204 F 
ATOM     23  C   UNL     1      -3.504  -2.701  24.962  0.00  0.00    +0.031 A 
ATOM     24  C   UNL     1      -3.615  -1.895  25.103  0.00  0.00    +0.019 A 
ENDBRANCH  17  18
TORSDOF 3
ENDMDL
MODEL 2
REMARK VINA RESULT:     -10.9      2.551      6.316
REMARK  Name = 
REMARK  3 active torsions:
REMARK  status: ('A' for Active; 'I' for Inactive)
REMARK    1  A    between atoms: O_2  and  C_3
REMARK    2  A    between atoms: C_8  and  C_10
REMARK    3  A    between atoms: N_17  and  C_18
REMARK                            x       y       z     vdW  Elec       q    Type
REMARK                         _______ _______ _______ _____ _____    ______ ____
ROOT
ATOM     10  C   UNL     1      -1.631   0.399  25.191  0.00  0.00    +0.080 C 
ATOM     11  C   UNL     1      -0.999   0.566  25.694  0.00  0.00    +0.031 C 
ATOM     12  C   UNL     1      -0.893   1.384  25.711  0.00  0.00    +0.096 C 
ATOM     13  N   UNL     1      -1.461   1.723  25.218  0.00  0.00    -0.262 N 
ATOM     14  C   UNL     1      -1.916   1.115  24.897  0.00  0.00    +0.103 C 
ATOM     15  C   UNL     1      -1.556   2.529  25.072  0.00  0.00    +0.327 C 
ATOM     16  O   UNL     1      -2.151   2.789  24.563  0.00  0.00    -0.250 OA
ATOM     17  N   UNL     1      -1.056   3.077  25.435  0.00  0.00    -0.162 NA
ENDROOT
BRANCH  10   8
ATOM      3  C   UNL     1      -3.274  -2.664  24.488  0.00  0.00    +0.140 A 
ATOM      4  C   UNL     1      -3.404  -1.878  24.698  0.00  0.00    +0.058 A 
ATOM      5  C   UNL     1      -2.764  -1.366  24.796  0.00  0.00    +0.103 A 
ATOM      6  C   UNL     1      -1.995  -1.641  24.684  0.00  0.00    +0.100 A 
ATOM      7  N   UNL     1      -1.477  -1.014  24.818  0.00  0.00    -0.229 NA
ATOM      8  C   UNL     1      -1.926  -0.350  25.013  0.00  0.00    +0.140 A 
ATOM      9  N   UNL     1      -2.721  -0.568  25.000  0.00  0.00    -0.229 NA
ATOM     25  C   UNL     1      -1.865  -2.429  24.473  0.00  0.00    +0.024 A 
ATOM     26  C   UNL     1      -2.505  -2.940  24.376  0.00  0.00    +0.039 A 
BRANCH   3   2
ATOM      1  C   UNL     1      -4.371  -3.139  23.705  0.00  0.00    +0.252 C 
ATOM      2  O   UNL     1      -3.914  -3.176  24.391  0.00  0.00    -0.471 OA
ENDBRANCH   3   2
ENDBRANCH  10   8
BRANCH  17  18
ATOM     18  C   UNL     1      -1.152   3.883  25.288  0.00  0.00    +0.075 A 
ATOM     19  C   UNL     1      -0.600   4.286  24.825  0.00  0.00    +0.019 A 
ATOM     20  C   UNL     1      -0.695   5.092  24.678  0.00  0.00    +0.031 A 
ATOM     21  C   UNL     1      -1.342   5.496  24.995  0.00  0.00    +0.140 A 
ATOM     22  F   UNL     1      -1.436   6.302  24.848  0.00  0.00    -0.204 F 
ATOM     23  C   UNL     1      -1.892   5.093  25.458  0.00  0.00    +0.031 A 
ATOM     24  C   UNL     1      -1.797   4.286  25.605  0.00  0.00    +0.019 A 
ENDBRANCH  17  18
TORSDOF 3
ENDMDL
MODEL 3
REMARK VINA RESULT:      -9.5      3.750      4.717
REMARK  Name = 
REMARK  3 active torsions:
REMARK  status: ('A' for Active; 'I' for Inactive)
REMARK    1  A    between atoms: O_2  and  C_3
REMARK    2  A    between atoms: C_8  and  C_10
REMARK    3  A    between atoms: N_17  and  C_18
REMARK                            x       y       z     vdW  Elec       q    Type
REMARK                         _______ _______ _______ _____ _____    ______ ____
ROOT
ATOM     10  C   UNL     1      -0.538   0.814  24.245  0.00  0.00    +0.080 C 
ATOM     11  C   UNL     1      -0.643   0.784  25.062  0.00  0.00    +0.031 C 
ATOM     12  C   UNL     1      -1.434   0.953  25.225  0.00  0.00    +0.096 C 
ATOM     13  N   UNL     1      -1.818   1.088  24.507  0.00  0.00    -0.262 N 
ATOM     14  C   UNL     1      -1.264   1.002  23.902  0.00  0.00    +0.103 C 
ATOM     15  C   UNL     1      -2.615   1.276  24.412  0.00  0.00    +0.327 C 
ATOM     16  O   UNL     1      -2.924   1.396  23.656  0.00  0.00    -0.250 OA
ATOM     17  N   UNL     1      -3.106   1.344  25.072  0.00  0.00    -0.162 NA
ENDROOT
BRANCH  10   8
ATOM      3  C   UNL     1       2.644   0.577  22.696  0.00  0.00    +0.140 A 
ATOM      4  C   UNL     1       2.195   1.030  23.218  0.00  0.00    +0.058 A 
ATOM      5  C   UNL     1       1.419   0.810  23.394  0.00  0.00    +0.103 A 
ATOM      6  C   UNL     1       1.093   0.136  23.048  0.00  0.00    +0.100 A 
ATOM      7  N   UNL     1       0.321   0.056  23.324  0.00  0.00    -0.229 NA
ATOM      8  C   UNL     1       0.169   0.679  23.841  0.00  0.00    +0.140 A 
ATOM      9  N   UNL     1       0.848   1.145  23.885  0.00  0.00    -0.229 NA
ATOM     25  C   UNL     1       1.543  -0.318  22.524  0.00  0.00    +0.024 A 
ATOM     26  C   UNL     1       2.318  -0.097  22.349  0.00  0.00    +0.039 A 
BRANCH   3   2
ATOM      1  C   UNL     1       4.051   0.407  22.878  0.00  0.00    +0.252 C 
ATOM      2  O   UNL     1       3.419   0.797  22.520  0.00  0.00    -0.471 OA
ENDBRANCH   3   2
ENDBRANCH  10   8
BRANCH  17  18
ATOM     18  C   UNL     1      -3.903   1.532  24.976  0.00  0.00    +0.075 A 
ATOM     19  C   UNL     1      -4.467   0.931  24.946  0.00  0.00    +0.019 A 
ATOM     20  C   UNL     1      -5.266   1.118  24.850  0.00  0.00    +0.031 A 
ATOM     21  C   UNL     1      -5.498   1.908  24.785  0.00  0.00    +0.140 A 
ATOM     22  F   UNL     1      -6.296   2.095  24.689  0.00  0.00    -0.204 F 
ATOM     23  C   UNL     1      -4.934   2.508  24.815  0.00  0.00    +0.031 A 
ATOM     24  C   UNL     1      -4.136   2.320  24.911  0.00  0.00    +0.019 A 
ENDBRANCH  17  18
TORSDOF 3
ENDMDL
MODEL 4
REMARK VINA RESULT:      -8.9      3.414      4.511
REMARK  Name = 
REMARK  3 active torsions:
REMARK  status: ('A' for Active; 'I' for Inactive)
REMARK    1  A    between atoms: O_2  and  C_3
REMARK    2  A    between atoms: C_8  and  C_10
REMARK    3  A    between atoms: N_17  and  C_18
REMARK                            x       y       z     vdW  Elec       q    Type
REMARK                         _______ _______ _______ _____ _____    ______ ____
ROOT
ATOM     10  C   UNL     1      -2.419   0.716  24.574  0.00  0.00    +0.080 C 
ATOM     11  C   UNL     1      -2.165  -0.011  24.869  0.00  0.00    +0.031 C 
ATOM     12  C   UNL     1      -1.410  -0.160  24.570  0.00  0.00    +0.096 C 
ATOM     13  N   UNL     1      -1.198   0.477  24.090  0.00  0.00    -0.262 N 
ATOM     14  C   UNL     1      -1.821   1.018  24.093  0.00  0.00    +0.103 C 
ATOM     15  C   UNL     1      -0.487   0.558  23.680  0.00  0.00    +0.327 C 
ATOM     16  O   UNL     1      -0.351   1.229  23.219  0.00  0.00    -0.250 OA
ATOM     17  N   UNL     1       0.089  -0.031  23.730  0.00  0.00    -0.162 NA
ENDROOT
BRANCH  10   8
ATOM      3  C   UNL     1      -5.314   2.595  25.393  0.00  0.00    +0.140 A 
ATOM      4  C   UNL     1      -4.490   2.615  25.397  0.00  0.00    +0.058 A 
ATOM      5  C   UNL     1      -4.059   1.968  25.118  0.00  0.00    +0.103 A 
ATOM      6  C   UNL     1      -4.454   1.301  24.836  0.00  0.00    +0.100 A 
ATOM      7  N   UNL     1      -3.888   0.751  24.597  0.00  0.00    -0.229 NA
ATOM      8  C   UNL     1      -3.143   1.078  24.733  0.00  0.00    +0.140 A 
ATOM      9  N   UNL     1      -3.249   1.830  25.054  0.00  0.00    -0.229 NA
ATOM     25  C   UNL     1      -5.280   1.281  24.832  0.00  0.00    +0.024 A 
ATOM     26  C   UNL     1      -5.709   1.928  25.110  0.00  0.00    +0.039 A 
BRANCH   3   2
ATOM      1  C   UNL     1      -5.517   4.007  25.465  0.00  0.00    +0.252 C 
ATOM      2  O   UNL     1      -5.743   3.241  25.671  0.00  0.00    -0.471 OA
ENDBRANCH   3   2
ENDBRANCH  10   8
BRANCH  17  18
ATOM     18  C   UNL     1       0.799   0.051  23.319  0.00  0.00    +0.075 A 
ATOM     19  C   UNL     1       0.916  -0.357  22.611  0.00  0.00    +0.019 A 
ATOM     20  C   UNL     1       1.627  -0.276  22.200  0.00  0.00    +0.031 A 
ATOM     21  C   UNL     1       2.221   0.214  22.498  0.00  0.00    +0.140 A 
ATOM     22  F   UNL     1       2.931   0.295  22.086  0.00  0.00    -0.204 F 
ATOM     23  C   UNL     1       2.104   0.621  23.205  0.00  0.00    +0.031 A 
ATOM     24  C   UNL     1       1.393   0.540  23.616  0.00  0.00    +0.019 A 
ENDBRANCH  17  18
TORSDOF 3
ENDMDL
MODEL 5
REMARK VINA RESULT:      -7.8     14.647     16.849
REMARK  Name = 
REMARK  3 active torsions:
REMARK  status: ('A' for Active; 'I' for Inactive)
REMARK    1  A    between atoms: O_2  and  C_3
REMARK    2  A    between atoms: C_8  and  C_10
REMARK    3  A    between atoms: N_17  and  C_18
REMARK                            x       y       z     vdW  Elec       q    Type
REMARK                         _______ _______ _______ _____ _____    ______ ____
ROOT
ATOM     10  C   UNL     1      -4.044 -10.535  14.211  0.00  0.00    +0.080 C 
ATOM     11  C   UNL     1      -3.293 -10.781  13.975  0.00  0.00    +0.031 C 
ATOM     12  C   UNL     1      -3.226 -10.656  13.162  0.00  0.00    +0.096 C 
ATOM     13  N   UNL     1      -3.937 -10.332  12.896  0.00  0.00    -0.262 N 
ATOM     14  C   UNL     1      -4.442 -10.257  13.545  0.00  0.00    +0.103 C 
ATOM     15  C   UNL     1      -4.112 -10.120  12.119  0.00  0.00    +0.327 C 
ATOM     16  O   UNL     1      -4.850  -9.800  11.934  0.00  0.00    -0.250 OA
ATOM     17  N   UNL     1      -3.549 -10.227  11.525  0.00  0.00    -0.162 NA
ENDROOT
BRANCH  10   8
ATOM      3  C   UNL     1      -5.710 -10.628  17.342  0.00  0.00    +0.140 A 
ATOM      4  C   UNL     1      -5.833 -10.584  16.528  0.00  0.00    +0.058 A 
ATOM      5  C   UNL     1      -5.190 -10.582  16.011  0.00  0.00    +0.103 A 
ATOM      6  C   UNL     1      -4.422 -10.624  16.310  0.00  0.00    +0.100 A 
ATOM      7  N   UNL     1      -3.899 -10.612  15.672  0.00  0.00    -0.229 NA
ATOM      8  C   UNL     1      -4.344 -10.562  14.979  0.00  0.00    +0.140 A 
ATOM      9  N   UNL     1      -5.141 -10.543  15.190  0.00  0.00    -0.229 NA
ATOM     25  C   UNL     1      -4.298 -10.669  17.125  0.00  0.00    +0.024 A 
ATOM     26  C   UNL     1      -4.942 -10.671  17.640  0.00  0.00    +0.039 A 
BRANCH   3   2
ATOM      1  C   UNL     1      -6.231 -10.561  18.671  0.00  0.00    +0.252 C 
ATOM      2  O   UNL     1      -6.353 -10.630  17.857  0.00  0.00    -0.471 OA
ENDBRANCH   3   2
ENDBRANCH  10   8
BRANCH  17  18
ATOM     18  C   UNL     1      -3.724 -10.014  10.747  0.00  0.00    +0.075 A 
ATOM     19  C   UNL     1      -4.081 -10.561  10.241  0.00  0.00    +0.019 A 
ATOM     20  C   UNL     1      -4.256 -10.349   9.463  0.00  0.00    +0.031 A 
ATOM     21  C   UNL     1      -4.075  -9.590   9.192  0.00  0.00    +0.140 A 
ATOM     22  F   UNL     1      -4.251  -9.380   8.414  0.00  0.00    -0.204 F 
ATOM     23  C   UNL     1      -3.719  -9.046   9.697  0.00  0.00    +0.031 A 
ATOM     24  C   UNL     1      -3.544  -9.257  10.475  0.00  0.00    +0.019 A 
ENDBRANCH  17  18
TORSDOF 3
ENDMDL
MODEL 6
REMARK VINA RESULT:      -7.8     18.129     18.865
REMARK  Name = 
REMARK  3 active torsions:
REMARK  status: ('A' for Active; 'I' for Inactive)
REMARK    1  A    between atoms: O_2  and  C_3
REMARK    2  A    between atoms: C_8  and  C_10
REMARK    3  A    between atoms: N_17  and  C_18
REMARK                            x       y       z     vdW  Elec       q    Type
REMARK                         _______ _______ _______ _____ _____    ______ ____
ROOT
ATOM     10  C   UNL     1      -6.903  -8.266   8.886  0.00  0.00    +0.080 C 
ATOM     11  C   UNL     1      -6.652  -8.858   8.370  0.00  0.00    +0.031 C 
ATOM     12  C   UNL     1      -5.945  -9.168   8.660  0.00  0.00    +0.096 C 
ATOM     13  N   UNL     1      -5.758  -8.767   9.356  0.00  0.00    -0.262 N 
ATOM     14  C   UNL     1      -6.351  -8.210   9.496  0.00  0.00    +0.103 C 
ATOM     15  C   UNL     1      -5.096  -8.900   9.830  0.00  0.00    +0.327 C 
ATOM     16  O   UNL     1      -4.982  -8.453  10.515  0.00  0.00    -0.250 OA
ATOM     17  N   UNL     1      -4.548  -9.479   9.620  0.00  0.00    -0.162 NA
ENDROOT
BRANCH  10   8
ATOM      3  C   UNL     1      -9.599  -6.020   8.370  0.00  0.00    +0.140 A 
ATOM      4  C   UNL     1      -8.787  -6.114   8.262  0.00  0.00    +0.058 A 
ATOM      5  C   UNL     1      -8.416  -6.809   8.507  0.00  0.00    +0.103 A 
ATOM      6  C   UNL     1      -8.858  -7.409   8.861  0.00  0.00    +0.100 A 
ATOM      7  N   UNL     1      -8.345  -8.028   9.046  0.00  0.00    -0.229 NA
ATOM      8  C   UNL     1      -7.586  -7.810   8.807  0.00  0.00    +0.140 A 
ATOM      9  N   UNL     1      -7.631  -7.057   8.474  0.00  0.00    -0.229 NA
ATOM     25  C   UNL     1      -9.671  -7.315   8.970  0.00  0.00    +0.024 A 
ATOM     26  C   UNL     1     -10.041  -6.620   8.724  0.00  0.00    +0.039 A 
BRANCH   3   2
ATOM      1  C   UNL     1     -10.285  -4.805   8.682  0.00  0.00    +0.252 C 
ATOM      2  O   UNL     1      -9.970  -5.325   8.124  0.00  0.00    -0.471 OA
ENDBRANCH   3   2
ENDBRANCH  10   8
BRANCH  17  18
ATOM     18  C   UNL     1      -3.886  -9.612  10.093  0.00  0.00    +0.075 A 
ATOM     19  C   UNL     1      -3.899 -10.209  10.663  0.00  0.00    +0.019 A 
ATOM     20  C   UNL     1      -3.237 -10.343  11.137  0.00  0.00    +0.031 A 
ATOM     21  C   UNL     1      -2.562  -9.878  11.041  0.00  0.00    +0.140 A 
ATOM     22  F   UNL     1      -1.900 -10.011  11.516  0.00  0.00    -0.204 F 
ATOM     23  C   UNL     1      -2.549  -9.281  10.473  0.00  0.00    +0.031 A 
ATOM     24  C   UNL     1      -3.211  -9.148   9.998  0.00  0.00    +0.019 A 
ENDBRANCH  17  18
TORSDOF 3
ENDMDL
MODEL 7
REMARK VINA RESULT:      -7.7      4.619      5.767
REMARK  Name = 
REMARK  3 active torsions:
REMARK  status: ('A' for Active; 'I' for Inactive)
REMARK    1  A    between atoms: O_2  and  C_3
REMARK    2  A    between atoms: C_8  and  C_10
REMARK    3  A    between atoms: N_17  and  C_18
REMARK                            x       y       z     vdW  Elec       q    Type
REMARK                         _______ _______ _______ _____ _____    ______ ____
ROOT
ATOM     10  C   UNL     1      -0.340   0.698  23.481  0.00  0.00    +0.080 C 
ATOM     11  C   UNL     1      -0.237  -0.041  23.129  0.00  0.00    +0.031 C 
ATOM     12  C   UNL     1       0.571  -0.161  23.016  0.00  0.00    +0.096 C 
ATOM     13  N   UNL     1       0.969   0.505  23.298  0.00  0.00    -0.262 N 
ATOM     14  C   UNL     1       0.406   1.035  23.585  0.00  0.00    +0.103 C 
ATOM     15  C   UNL     1       1.785   0.620  23.294  0.00  0.00    +0.327 C 
ATOM     16  O   UNL     1       2.106   1.318  23.597  0.00  0.00    -0.250 OA
ATOM     17  N   UNL     1       2.283   0.038  22.988  0.00  0.00    -0.162 NA
ENDROOT
BRANCH  10   8
ATOM      3  C   UNL     1      -3.411   1.952  24.737  0.00  0.00    +0.140 A 
ATOM      4  C   UNL     1      -2.779   1.453  24.913  0.00  0.00    +0.058 A 
ATOM      5  C   UNL     1      -2.162   1.361  24.373  0.00  0.00    +0.103 A 
ATOM      6  C   UNL     1      -2.178   1.768  23.656  0.00  0.00    +0.100 A 
ATOM      7  N   UNL     1      -1.498   1.569  23.234  0.00  0.00    -0.229 NA
ATOM      8  C   UNL     1      -1.061   1.039  23.691  0.00  0.00    +0.140 A 
ATOM      9  N   UNL     1      -1.471   0.911  24.394  0.00  0.00    -0.229 NA
ATOM     25  C   UNL     1      -2.811   2.268  23.479  0.00  0.00    +0.024 A 
ATOM     26  C   UNL     1      -3.427   2.359  24.019  0.00  0.00    +0.039 A 
BRANCH   3   2
ATOM      1  C   UNL     1      -4.801   1.866  25.055  0.00  0.00    +0.252 C 
ATOM      2  O   UNL     1      -4.027   2.044  25.277  0.00  0.00    -0.471 OA
ENDBRANCH   3   2
ENDBRANCH  10   8
BRANCH  17  18
ATOM     18  C   UNL     1       3.100   0.153  22.984  0.00  0.00    +0.075 A 
ATOM     19  C   UNL     1       3.424   0.790  22.571  0.00  0.00    +0.019 A 
ATOM     20  C   UNL     1       4.241   0.905  22.566  0.00  0.00    +0.031 A 
ATOM     21  C   UNL     1       4.734   0.384  22.976  0.00  0.00    +0.140 A 
ATOM     22  F   UNL     1       5.550   0.500  22.971  0.00  0.00    -0.204 F 
ATOM     23  C   UNL     1       4.409  -0.252  23.388  0.00  0.00    +0.031 A 
ATOM     24  C   UNL     1       3.592  -0.367  23.393  0.00  0.00    +0.019 A 
ENDBRANCH  17  18
TORSDOF 3
ENDMDL
MODEL 8
REMARK VINA RESULT:      -7.3      4.541      5.098
REMARK  Name = 
REMARK  3 active torsions:
REMARK  status: ('A' for Active; 'I' for Inactive)
REMARK    1  A    between atoms: O_2  and  C_3
REMARK    2  A    between atoms: C_8  and  C_10
REMARK    3  A    between atoms: N_17  and  C_18
REMARK                            x       y       z     vdW  Elec       q    Type
REMARK                         _______ _______ _______ _____ _____    ______ ____
ROOT
ATOM     10  C   UNL     1       0.789   0.190  23.476  0.00  0.00    +0.080 C 
ATOM     11  C   UNL     1       0.179   0.689  23.232  0.00  0.00    +0.031 C 
ATOM     12  C   UNL     1      -0.532   0.382  23.518  0.00  0.00    +0.096 C 
ATOM     13  N   UNL     1      -0.360  -0.306  23.939  0.00  0.00    -0.262 N 
ATOM     14  C   UNL     1       0.456  -0.424  23.913  0.00  0.00    +0.103 C 
ATOM     15  C   UNL     1      -0.908  -0.791  24.319  0.00  0.00    +0.327 C 
ATOM     16  O   UNL     1      -0.654  -1.466  24.721  0.00  0.00    -0.250 OA
ATOM     17  N   UNL     1      -1.711  -0.602  24.298  0.00  0.00    -0.162 NA
ENDROOT
BRANCH  10   8
ATOM      3  C   UNL     1       4.279   0.211  22.839  0.00  0.00    +0.140 A 
ATOM      4  C   UNL     1       3.647  -0.277  23.045  0.00  0.00    +0.058 A 
ATOM      5  C   UNL     1       2.889   0.039  23.123  0.00  0.00    +0.103 A 
ATOM      6  C   UNL     1       2.763   0.844  22.995  0.00  0.00    +0.100 A 
ATOM      7  N   UNL     1       1.962   0.999  23.111  0.00  0.00    -0.229 NA
ATOM      8  C   UNL     1       1.592   0.290  23.312  0.00  0.00    +0.140 A 
ATOM      9  N   UNL     1       2.165  -0.303  23.319  0.00  0.00    -0.229 NA
ATOM     25  C   UNL     1       3.396   1.333  22.788  0.00  0.00    +0.024 A 
ATOM     26  C   UNL     1       4.153   1.016  22.710  0.00  0.00    +0.039 A 
BRANCH   3   2
ATOM      1  C   UNL     1       5.583  -0.023  23.373  0.00  0.00    +0.252 C 
ATOM      2  O   UNL     1       5.036  -0.105  22.761  0.00  0.00    -0.471 OA
ENDBRANCH   3   2
ENDBRANCH  10   8
BRANCH  17  18
ATOM     18  C   UNL     1      -2.259  -1.087  24.679  0.00  0.00    +0.075 A 
ATOM     19  C   UNL     1      -2.566  -0.866  25.412  0.00  0.00    +0.019 A 
ATOM     20  C   UNL     1      -3.115  -1.351  25.793  0.00  0.00    +0.031 A 
ATOM     21  C   UNL     1      -3.356  -2.057  25.440  0.00  0.00    +0.140 A 
ATOM     22  F   UNL     1      -3.904  -2.541  25.822  0.00  0.00    -0.204 F 
ATOM     23  C   UNL     1      -3.049  -2.277  24.708  0.00  0.00    +0.031 A 
ATOM     24  C   UNL     1      -2.501  -1.792  24.326  0.00  0.00    +0.019 A 
ENDBRANCH  17  18
TORSDOF 3
ENDMDL
MODEL 9
REMARK VINA RESULT:      -7.2     14.341     15.624
REMARK  Name = 
REMARK  3 active torsions:
REMARK  status: ('A' for Active; 'I' for Inactive)
REMARK    1  A    between atoms: O_2  and  C_3
REMARK    2  A    between atoms: C_8  and  C_10
REMARK    3  A    between atoms: N_17  and  C_18
REMARK                            x       y       z     vdW  Elec       q    Type
REMARK                         _______ _______ _______ _____ _____    ______ ____
ROOT
ATOM     10  C   UNL     1      -4.367 -10.420  15.666  0.00  0.00    +0.080 C 
ATOM     11  C   UNL     1      -4.205 -10.481  16.473  0.00  0.00    +0.031 C 
ATOM     12  C   UNL     1      -4.914 -10.390  16.884  0.00  0.00    +0.096 C 
ATOM     13  N   UNL     1      -5.515 -10.272  16.331  0.00  0.00    -0.262 N 
ATOM     14  C   UNL     1      -5.177 -10.291  15.579  0.00  0.00    +0.103 C 
ATOM     15  C   UNL     1      -6.314 -10.156  16.501  0.00  0.00    +0.327 C 
ATOM     16  O   UNL     1      -6.854 -10.045  15.887  0.00  0.00    -0.250 OA
ATOM     17  N   UNL     1      -6.573 -10.151  17.284  0.00  0.00    -0.162 NA
ENDROOT
BRANCH  10   8
ATOM      3  C   UNL     1      -2.322 -10.700  12.781  0.00  0.00    +0.140 A 
ATOM      4  C   UNL     1      -3.105 -10.681  13.037  0.00  0.00    +0.058 A 
ATOM      5  C   UNL     1      -3.276 -10.599  13.840  0.00  0.00    +0.103 A 
ATOM      6  C   UNL     1      -2.662 -10.536  14.388  0.00  0.00    +0.100 A 
ATOM      7  N   UNL     1      -2.996 -10.462  15.138  0.00  0.00    -0.229 NA
ATOM      8  C   UNL     1      -3.816 -10.478  15.055  0.00  0.00    +0.140 A 
ATOM      9  N   UNL     1      -3.989 -10.563  14.253  0.00  0.00    -0.229 NA
ATOM     25  C   UNL     1      -1.877 -10.555  14.132  0.00  0.00    +0.024 A 
ATOM     26  C   UNL     1      -1.708 -10.637  13.329  0.00  0.00    +0.039 A 
BRANCH   3   2
ATOM      1  C   UNL     1      -1.952 -10.119  11.529  0.00  0.00    +0.252 C 
ATOM      2  O   UNL     1      -2.152 -10.781  11.979  0.00  0.00    -0.471 OA
ENDBRANCH   3   2
ENDBRANCH  10   8
BRANCH  17  18
ATOM     18  C   UNL     1      -7.372 -10.035  17.453  0.00  0.00    +0.075 A 
ATOM     19  C   UNL     1      -7.837 -10.669  17.703  0.00  0.00    +0.019 A 
ATOM     20  C   UNL     1      -8.636 -10.554  17.873  0.00  0.00    +0.031 A 
ATOM     21  C   UNL     1      -8.970  -9.803  17.792  0.00  0.00    +0.140 A 
ATOM     22  F   UNL     1      -9.769  -9.688  17.962  0.00  0.00    -0.204 F 
ATOM     23  C   UNL     1      -8.506  -9.170  17.542  0.00  0.00    +0.031 A 
ATOM     24  C   UNL     1      -7.706  -9.285  17.373  0.00  0.00    +0.019 A 
ENDBRANCH  17  18
TORSDOF 3
ENDMDL
MODEL 10
REMARK VINA RESULT:      -7.1     14.137     16.112
REMARK  Name = 
REMARK  3 active torsions:
REMARK  status: ('A' for Active; 'I' for Inactive)
REMARK    1  A    between atoms: O_2  and  C_3
REMARK    2  A    between atoms: C_8  and  C_10
REMARK    3  A    between atoms: N_17  and  C_18
REMARK                            x       y       z     vdW  Elec       q    Type
REMARK                         _______ _______ _______ _____ _____    ______ ____
ROOT
ATOM     10  C   UNL     1      -5.900 -10.093  13.758  0.00  0.00    +0.080 C 
ATOM     11  C   UNL     1      -6.467 -10.675  13.897  0.00  0.00    +0.031 C 
ATOM     12  C   UNL     1      -6.531 -10.781  14.712  0.00  0.00    +0.096 C 
ATOM     13  N   UNL     1      -6.003 -10.263  15.078  0.00  0.00    -0.262 N 
ATOM     14  C   UNL     1      -5.614  -9.838  14.488  0.00  0.00    +0.103 C 
ATOM     15  C   UNL     1      -5.886 -10.184  15.890  0.00  0.00    +0.327 C 
ATOM     16  O   UNL     1      -5.336  -9.639  16.177  0.00  0.00    -0.250 OA
ATOM     17  N   UNL     1      -6.318 -10.649  16.417  0.00  0.00    -0.162 NA
ENDROOT
BRANCH  10   8
ATOM      3  C   UNL     1      -4.572  -9.174  10.600  0.00  0.00    +0.140 A 
ATOM      4  C   UNL     1      -4.468  -9.687  11.237  0.00  0.00    +0.058 A 
ATOM      5  C   UNL     1      -4.984  -9.657  11.880  0.00  0.00    +0.103 A 
ATOM      6  C   UNL     1      -5.605  -9.114  11.884  0.00  0.00    +0.100 A 
ATOM      7  N   UNL     1      -6.024  -9.211  12.588  0.00  0.00    -0.229 NA
ATOM      8  C   UNL     1      -5.662  -9.814  13.019  0.00  0.00    +0.140 A 
ATOM      9  N   UNL     1      -5.020 -10.089  12.581  0.00  0.00    -0.229 NA
ATOM     25  C   UNL     1      -5.710  -8.601  11.246  0.00  0.00    +0.024 A 
ATOM     26  C   UNL     1      -5.193  -8.631  10.604  0.00  0.00    +0.039 A 
BRANCH   3   2
ATOM      1  C   UNL     1      -4.286  -8.898   9.227  0.00  0.00    +0.252 C 
ATOM      2  O   UNL     1      -4.055  -9.204   9.958  0.00  0.00    -0.471 OA
ENDBRANCH   3   2
ENDBRANCH  10   8
BRANCH  17  18
ATOM     18  C   UNL     1      -6.200 -10.570  17.230  0.00  0.00    +0.075 A 
ATOM     19  C   UNL     1      -6.807 -10.279  17.708  0.00  0.00    +0.019 A 
ATOM     20  C   UNL     1      -6.690 -10.200  18.521  0.00  0.00    +0.031 A 
ATOM     21  C   UNL     1      -5.966 -10.411  18.855  0.00  0.00    +0.140 A 
ATOM     22  F   UNL     1      -5.849 -10.332  19.668  0.00  0.00    -0.204 F 
ATOM     23  C   UNL     1      -5.360 -10.702  18.378  0.00  0.00    +0.031 A 
ATOM     24  C   UNL     1      -5.477 -10.781  17.564  0.00  0.00    +0.019 A 
ENDBRANCH  17  18
TORSDOF 3
ENDMDL
