MODEL 1
REMARK VINA RESULT:      -9.5      0.000      0.000
REMARK  Name = 
REMARK  3 active torsions:
REMARK  status: ('A' for Active; 'I' for Inactive)
REMARK    1  A    between atoms: C_2  and  C_3
REMARK    2  A    between atoms: C_12  and  O_14
REMARK    3  A    between atoms: O_14  and  C_15
REMARK                            x       y       z     vdW  Elec       q    Type
REMARK                         _______ _______ _______ _____ _____    ______ ____
ROOT
ATOM      1  O   UNL     1      -4.721  -0.891  24.110  0.00  0.00    -0.275 OA
ATOM      2  C   UNL     1      -3.959  -0.922  24.425  0.00  0.00    +0.225 C 
ATOM      7  N   UNL     1      -3.524  -0.227  24.522  0.00  0.00    -0.273 N 
ATOM      8  C   UNL     1      -2.770  -0.320  24.842  0.00  0.00    +0.126 C 
ATOM      9  C   UNL     1      -2.206   0.260  25.006  0.00  0.00    +0.164 C 
ATOM     10  O   UNL     1      -2.258   1.075  24.889  0.00  0.00    -0.348 OA
ATOM     11  C   UNL     1      -2.886   1.512  24.580  0.00  0.00    +0.187 C 
ATOM     12  C   UNL     1      -3.618   1.241  24.311  0.00  0.00    +0.217 C 
ATOM     13  C   UNL     1      -3.902   0.467  24.286  0.00  0.00    +0.140 C 
ENDROOT
BRANCH   2   3
ATOM      3  C   UNL     1      -3.633  -1.648  24.645  0.00  0.00    +0.077 C 
ATOM      4  C   UNL     1      -3.265  -2.266  24.243  0.00  0.00    +0.009 C 
ATOM      5  C   UNL     1      -3.171  -2.672  24.954  0.00  0.00    +0.001 C 
ATOM      6  C   UNL     1      -3.539  -2.053  25.357  0.00  0.00    +0.009 C 
ENDBRANCH   2   3
BRANCH  12  14
ATOM     14  O   UNL     1      -4.133   1.821  24.032  0.00  0.00    -0.459 OA
BRANCH  14  15
ATOM     15  C   UNL     1      -4.479   2.354  24.558  0.00  0.00    +0.245 A 
ATOM     16  C   UNL     1      -4.148   3.101  24.667  0.00  0.00    +0.156 A 
ATOM     17  N   UNL     1      -4.494   3.634  25.193  0.00  0.00    -0.236 NA
ATOM     18  C   UNL     1      -5.173   3.419  25.610  0.00  0.00    +0.120 A 
ATOM     19  C   UNL     1      -5.505   2.672  25.501  0.00  0.00    +0.123 A 
ATOM     20  N   UNL     1      -5.159   2.140  24.975  0.00  0.00    -0.207 NA
ENDBRANCH  14  15
ENDBRANCH  12  14
TORSDOF 3
ENDMDL
MODEL 2
REMARK VINA RESULT:      -9.1      2.320      2.849
REMARK  Name = 
REMARK  3 active torsions:
REMARK  status: ('A' for Active; 'I' for Inactive)
REMARK    1  A    between atoms: C_2  and  C_3
REMARK    2  A    between atoms: C_12  and  O_14
REMARK    3  A    between atoms: O_14  and  C_15
REMARK                            x       y       z     vdW  Elec       q    Type
REMARK                         _______ _______ _______ _____ _____    ______ ____
ROOT
ATOM      1  O   UNL     1      -3.622  -0.538  25.473  0.00  0.00    -0.275 OA
ATOM      2  C   UNL     1      -3.127  -1.071  25.084  0.00  0.00    +0.225 C 
ATOM      7  N   UNL     1      -2.322  -0.904  25.006  0.00  0.00    -0.273 N 
ATOM      8  C   UNL     1      -1.876  -1.472  24.608  0.00  0.00    +0.126 C 
ATOM      9  C   UNL     1      -1.068  -1.468  24.442  0.00  0.00    +0.164 C 
ATOM     10  O   UNL     1      -0.507  -0.894  24.633  0.00  0.00    -0.348 OA
ATOM     11  C   UNL     1      -0.615  -0.182  25.037  0.00  0.00    +0.187 C 
ATOM     12  C   UNL     1      -1.311   0.131  25.350  0.00  0.00    +0.217 C 
ATOM     13  C   UNL     1      -2.071  -0.190  25.336  0.00  0.00    +0.140 C 
ENDROOT
BRANCH   2   3
ATOM      3  C   UNL     1      -3.435  -1.771  24.774  0.00  0.00    +0.077 C 
ATOM      4  C   UNL     1      -3.463  -2.556  25.022  0.00  0.00    +0.009 C 
ATOM      5  C   UNL     1      -3.871  -2.759  24.335  0.00  0.00    +0.001 C 
ATOM      6  C   UNL     1      -3.843  -1.973  24.086  0.00  0.00    +0.009 C 
ENDBRANCH   2   3
BRANCH  12  14
ATOM     14  O   UNL     1      -1.238   0.861  25.726  0.00  0.00    -0.459 OA
BRANCH  14  15
ATOM     15  C   UNL     1      -1.022   1.529  25.292  0.00  0.00    +0.245 A 
ATOM     16  C   UNL     1      -0.242   1.795  25.303  0.00  0.00    +0.156 A 
ATOM     17  N   UNL     1      -0.026   2.463  24.870  0.00  0.00    -0.236 NA
ATOM     18  C   UNL     1      -0.592   2.865  24.425  0.00  0.00    +0.120 A 
ATOM     19  C   UNL     1      -1.373   2.600  24.413  0.00  0.00    +0.123 A 
ATOM     20  N   UNL     1      -1.589   1.932  24.847  0.00  0.00    -0.207 NA
ENDBRANCH  14  15
ENDBRANCH  12  14
TORSDOF 3
ENDMDL
MODEL 3
REMARK VINA RESULT:      -9.1      1.336      1.960
REMARK  Name = 
REMARK  3 active torsions:
REMARK  status: ('A' for Active; 'I' for Inactive)
REMARK    1  A    between atoms: C_2  and  C_3
REMARK    2  A    between atoms: C_12  and  O_14
REMARK    3  A    between atoms: O_14  and  C_15
REMARK                            x       y       z     vdW  Elec       q    Type
REMARK                         _______ _______ _______ _____ _____    ______ ____
ROOT
ATOM      1  O   UNL     1      -2.180  -0.326  24.254  0.00  0.00    -0.275 OA
ATOM      2  C   UNL     1      -2.956  -0.399  24.523  0.00  0.00    +0.225 C 
ATOM      7  N   UNL     1      -3.433   0.271  24.591  0.00  0.00    -0.273 N 
ATOM      8  C   UNL     1      -4.199   0.138  24.865  0.00  0.00    +0.126 C 
ATOM      9  C   UNL     1      -4.803   0.686  24.992  0.00  0.00    +0.164 C 
ATOM     10  O   UNL     1      -4.788   1.503  24.877  0.00  0.00    -0.348 OA
ATOM     11  C   UNL     1      -4.167   1.973  24.606  0.00  0.00    +0.187 C 
ATOM     12  C   UNL     1      -3.407   1.743  24.383  0.00  0.00    +0.217 C 
ATOM     13  C   UNL     1      -3.080   0.986  24.377  0.00  0.00    +0.140 C 
ENDROOT
BRANCH   2   3
ATOM      3  C   UNL     1      -3.255  -1.141  24.723  0.00  0.00    +0.077 C 
ATOM      4  C   UNL     1      -3.292  -1.588  25.415  0.00  0.00    +0.009 C 
ATOM      5  C   UNL     1      -3.679  -2.190  25.006  0.00  0.00    +0.001 C 
ATOM      6  C   UNL     1      -3.643  -1.744  24.313  0.00  0.00    +0.009 C 
ENDBRANCH   2   3
BRANCH  12  14
ATOM     14  O   UNL     1      -2.907   2.350  24.135  0.00  0.00    -0.459 OA
BRANCH  14  15
ATOM     15  C   UNL     1      -2.638   2.911  24.676  0.00  0.00    +0.245 A 
ATOM     16  C   UNL     1      -3.030   3.633  24.754  0.00  0.00    +0.156 A 
ATOM     17  N   UNL     1      -2.760   4.193  25.296  0.00  0.00    -0.236 NA
ATOM     18  C   UNL     1      -2.097   4.032  25.760  0.00  0.00    +0.120 A 
ATOM     19  C   UNL     1      -1.705   3.311  25.683  0.00  0.00    +0.123 A 
ATOM     20  N   UNL     1      -1.975   2.750  25.141  0.00  0.00    -0.207 NA
ENDBRANCH  14  15
ENDBRANCH  12  14
TORSDOF 3
ENDMDL
