MODEL 1
REMARK VINA RESULT:     -12.5      0.000      0.000
REMARK  Name = 
REMARK  5 active torsions:
REMARK  status: ('A' for Active; 'I' for Inactive)
REMARK    1  A    between atoms: C_4  and  N_21
REMARK    2  A    between atoms: C_6  and  C_7
REMARK    3  A    between atoms: C_9  and  C_12
REMARK    4  A    between atoms: N_21  and  S_22
REMARK    5  A    between atoms: S_22  and  C_25
REMARK                            x       y       z     vdW  Elec       q    Type
REMARK                         _______ _______ _______ _____ _____    ______ ____
ROOT
ATOM      1  C   UNL     1       0.144   0.344  23.824  0.00  0.00    +0.090 C 
ATOM      2  N   UNL     1      -0.361  -0.016  24.367  0.00  0.00    -0.264 NA
ATOM      3  C   UNL     1      -0.620  -0.800  24.342  0.00  0.00    +0.092 C 
ATOM      4  C   UNL     1      -1.115  -0.925  24.990  0.00  0.00    +0.115 C 
ATOM      5  C   UNL     1      -1.163  -0.219  25.414  0.00  0.00    +0.046 C 
ATOM      6  C   UNL     1      -0.698   0.342  25.030  0.00  0.00    +0.139 C 
ENDROOT
BRANCH   6   7
ATOM      7  C   UNL     1      -0.587   1.125  25.265  0.00  0.00    +0.251 A 
ATOM      8  N   UNL     1      -1.095   1.756  25.107  0.00  0.00    -0.190 NA
ATOM      9  C   UNL     1      -0.771   2.435  25.443  0.00  0.00    +0.203 A 
ATOM     10  N   UNL     1      -0.063   2.225  25.810  0.00  0.00    -0.056 NA
ATOM     11  O   UNL     1       0.051   1.415  25.700  0.00  0.00    -0.336 OA
BRANCH   9  12
ATOM     12  C   UNL     1      -1.098   3.192  25.417  0.00  0.00    +0.042 A 
ATOM     13  C   UNL     1      -0.670   3.815  25.089  0.00  0.00    +0.043 A 
ATOM     14  C   UNL     1      -0.997   4.573  25.064  0.00  0.00    +0.177 A 
ATOM     15  C   UNL     1      -1.753   4.706  25.366  0.00  0.00    +0.176 A 
ATOM     16  O   UNL     1      -1.931   5.504  25.266  0.00  0.00    -0.435 OA
ATOM     17  C   UNL     1      -1.286   5.865  24.901  0.00  0.00    +0.429 C 
ATOM     18  O   UNL     1      -0.709   5.289  24.776  0.00  0.00    -0.435 OA
ATOM     19  C   UNL     1      -2.182   4.081  25.695  0.00  0.00    +0.040 A 
ATOM     20  C   UNL     1      -1.854   3.325  25.720  0.00  0.00    +0.006 A 
ENDBRANCH   9  12
ENDBRANCH   6   7
BRANCH   4  21
ATOM     21  N   UNL     1      -1.497  -1.631  25.180  0.00  0.00    -0.078 NA
BRANCH  21  22
ATOM     22  S   UNL     1      -2.233  -1.804  24.852  0.00  0.00    +0.077 S 
ATOM     23  O   UNL     1      -2.603  -1.423  25.483  0.00  0.00    -0.152 OA
ATOM     24  O   UNL     1      -1.863  -2.186  24.221  0.00  0.00    -0.152 OA
BRANCH  22  25
ATOM     25  C   UNL     1      -2.970  -1.977  24.524  0.00  0.00    +0.124 A 
ATOM     26  C   UNL     1      -3.482  -1.366  24.312  0.00  0.00    +0.020 A 
ATOM     27  C   UNL     1      -4.218  -1.538  23.984  0.00  0.00    +0.001 A 
ATOM     28  C   UNL     1      -4.444  -2.323  23.869  0.00  0.00    +0.000 A 
ATOM     29  C   UNL     1      -3.934  -2.935  24.081  0.00  0.00    +0.001 A 
ATOM     30  C   UNL     1      -3.197  -2.762  24.409  0.00  0.00    +0.020 A 
ENDBRANCH  22  25
ENDBRANCH  21  22
ENDBRANCH   4  21
TORSDOF 5
ENDMDL
MODEL 2
REMARK VINA RESULT:     -12.0      1.453      5.549
REMARK  Name = 
REMARK  5 active torsions:
REMARK  status: ('A' for Active; 'I' for Inactive)
REMARK    1  A    between atoms: C_4  and  N_21
REMARK    2  A    between atoms: C_6  and  C_7
REMARK    3  A    between atoms: C_9  and  C_12
REMARK    4  A    between atoms: N_21  and  S_22
REMARK    5  A    between atoms: S_22  and  C_25
REMARK                            x       y       z     vdW  Elec       q    Type
REMARK                         _______ _______ _______ _____ _____    ______ ____
ROOT
ATOM      1  C   UNL     1       0.149   0.608  23.511  0.00  0.00    +0.090 C 
ATOM      2  N   UNL     1      -0.028   0.974  24.229  0.00  0.00    -0.264 NA
ATOM      3  C   UNL     1       0.174   1.745  24.442  0.00  0.00    +0.092 C 
ATOM      4  C   UNL     1      -0.112   1.881  25.204  0.00  0.00    +0.115 C 
ATOM      5  C   UNL     1      -0.490   1.195  25.461  0.00  0.00    +0.046 C 
ATOM      6  C   UNL     1      -0.439   0.635  24.858  0.00  0.00    +0.139 C 
ENDROOT
BRANCH   6   7
ATOM      7  C   UNL     1      -0.744  -0.132  24.880  0.00  0.00    +0.251 A 
ATOM      8  N   UNL     1      -1.502  -0.358  24.648  0.00  0.00    -0.190 NA
ATOM      9  C   UNL     1      -1.573  -1.172  24.762  0.00  0.00    +0.203 A 
ATOM     10  N   UNL     1      -0.857  -1.449  25.066  0.00  0.00    -0.056 NA
ATOM     11  O   UNL     1      -0.345  -0.806  25.138  0.00  0.00    -0.336 OA
BRANCH   9  12
ATOM     12  C   UNL     1      -2.240  -1.628  24.601  0.00  0.00    +0.042 A 
ATOM     13  C   UNL     1      -2.908  -1.279  24.268  0.00  0.00    +0.043 A 
ATOM     14  C   UNL     1      -3.577  -1.736  24.107  0.00  0.00    +0.177 A 
ATOM     15  C   UNL     1      -3.576  -2.542  24.280  0.00  0.00    +0.176 A 
ATOM     16  O   UNL     1      -4.309  -2.850  24.062  0.00  0.00    -0.435 OA
ATOM     17  C   UNL     1      -4.763  -2.235  23.755  0.00  0.00    +0.429 C 
ATOM     18  O   UNL     1      -4.310  -1.546  23.783  0.00  0.00    -0.435 OA
ATOM     19  C   UNL     1      -2.907  -2.893  24.614  0.00  0.00    +0.040 A 
ATOM     20  C   UNL     1      -2.239  -2.435  24.774  0.00  0.00    +0.006 A 
ENDBRANCH   9  12
ENDBRANCH   6   7
BRANCH   4  21
ATOM     21  N   UNL     1      -0.033   2.581  25.634  0.00  0.00    -0.078 NA
BRANCH  21  22
ATOM     22  S   UNL     1      -0.597   3.177  25.560  0.00  0.00    +0.077 S 
ATOM     23  O   UNL     1      -0.991   2.887  26.223  0.00  0.00    -0.152 OA
ATOM     24  O   UNL     1      -0.203   3.468  24.895  0.00  0.00    -0.152 OA
BRANCH  22  25
ATOM     25  C   UNL     1      -1.163   3.774  25.485  0.00  0.00    +0.124 A 
ATOM     26  C   UNL     1      -1.927   3.657  25.774  0.00  0.00    +0.020 A 
ATOM     27  C   UNL     1      -2.492   4.253  25.700  0.00  0.00    +0.001 A 
ATOM     28  C   UNL     1      -2.293   4.966  25.337  0.00  0.00    +0.000 A 
ATOM     29  C   UNL     1      -1.529   5.084  25.049  0.00  0.00    +0.001 A 
ATOM     30  C   UNL     1      -0.964   4.488  25.123  0.00  0.00    +0.020 A 
ENDBRANCH  22  25
ENDBRANCH  21  22
ENDBRANCH   4  21
TORSDOF 5
ENDMDL
MODEL 3
REMARK VINA RESULT:     -11.9      2.427      6.041
REMARK  Name = 
REMARK  5 active torsions:
REMARK  status: ('A' for Active; 'I' for Inactive)
REMARK    1  A    between atoms: C_4  and  N_21
REMARK    2  A    between atoms: C_6  and  C_7
REMARK    3  A    between atoms: C_9  and  C_12
REMARK    4  A    between atoms: N_21  and  S_22
REMARK    5  A    between atoms: S_22  and  C_25
REMARK                            x       y       z     vdW  Elec       q    Type
REMARK                         _______ _______ _______ _____ _____    ______ ____
ROOT
ATOM      1  C   UNL     1      -5.819   1.817  25.959  0.00  0.00    +0.090 C 
ATOM      2  N   UNL     1      -5.188   2.230  25.623  0.00  0.00    -0.264 NA
ATOM      3  C   UNL     1      -5.013   3.028  25.743  0.00  0.00    +0.092 C 
ATOM      4  C   UNL     1      -4.339   3.209  25.303  0.00  0.00    +0.115 C 
ATOM      5  C   UNL     1      -4.098   2.524  24.911  0.00  0.00    +0.046 C 
ATOM      6  C   UNL     1      -4.623   1.919  25.109  0.00  0.00    +0.139 C 
ENDROOT
BRANCH   6   7
ATOM      7  C   UNL     1      -4.590   1.140  24.841  0.00  0.00    +0.251 A 
ATOM      8  N   UNL     1      -3.969   0.610  24.965  0.00  0.00    -0.190 NA
ATOM      9  C   UNL     1      -4.166  -0.104  24.603  0.00  0.00    +0.203 A 
ATOM     10  N   UNL     1      -4.909  -0.017  24.254  0.00  0.00    -0.056 NA
ATOM     11  O   UNL     1      -5.170   0.753  24.402  0.00  0.00    -0.336 OA
BRANCH   9  12
ATOM     12  C   UNL     1      -3.702  -0.785  24.591  0.00  0.00    +0.042 A 
ATOM     13  C   UNL     1      -2.880  -0.725  24.608  0.00  0.00    +0.043 A 
ATOM     14  C   UNL     1      -2.415  -1.407  24.597  0.00  0.00    +0.177 A 
ATOM     15  C   UNL     1      -2.774  -2.150  24.568  0.00  0.00    +0.176 A 
ATOM     16  O   UNL     1      -2.179  -2.720  24.562  0.00  0.00    -0.435 OA
ATOM     17  C   UNL     1      -1.452  -2.331  24.587  0.00  0.00    +0.429 C 
ATOM     18  O   UNL     1      -1.599  -1.520  24.608  0.00  0.00    -0.435 OA
ATOM     19  C   UNL     1      -3.597  -2.210  24.551  0.00  0.00    +0.040 A 
ATOM     20  C   UNL     1      -4.061  -1.528  24.563  0.00  0.00    +0.006 A 
ENDBRANCH   9  12
ENDBRANCH   6   7
BRANCH   4  21
ATOM     21  N   UNL     1      -3.970   3.945  25.261  0.00  0.00    -0.078 NA
BRANCH  21  22
ATOM     22  S   UNL     1      -3.147   3.997  25.284  0.00  0.00    +0.077 S 
ATOM     23  O   UNL     1      -3.171   4.013  26.108  0.00  0.00    -0.152 OA
ATOM     24  O   UNL     1      -3.123   3.981  24.459  0.00  0.00    -0.152 OA
BRANCH  22  25
ATOM     25  C   UNL     1      -2.324   4.049  25.307  0.00  0.00    +0.124 A 
ATOM     26  C   UNL     1      -1.880   3.427  25.619  0.00  0.00    +0.020 A 
ATOM     27  C   UNL     1      -1.057   3.479  25.642  0.00  0.00    +0.001 A 
ATOM     28  C   UNL     1      -0.678   4.152  25.353  0.00  0.00    +0.000 A 
ATOM     29  C   UNL     1      -1.121   4.774  25.041  0.00  0.00    +0.001 A 
ATOM     30  C   UNL     1      -1.945   4.722  25.018  0.00  0.00    +0.020 A 
ENDBRANCH  22  25
ENDBRANCH  21  22
ENDBRANCH   4  21
TORSDOF 5
ENDMDL
MODEL 4
REMARK VINA RESULT:     -10.7      1.985      5.256
REMARK  Name = 
REMARK  5 active torsions:
REMARK  status: ('A' for Active; 'I' for Inactive)
REMARK    1  A    between atoms: C_4  and  N_21
REMARK    2  A    between atoms: C_6  and  C_7
REMARK    3  A    between atoms: C_9  and  C_12
REMARK    4  A    between atoms: N_21  and  S_22
REMARK    5  A    between atoms: S_22  and  C_25
REMARK                            x       y       z     vdW  Elec       q    Type
REMARK                         _______ _______ _______ _____ _____    ______ ____
ROOT
ATOM      1  C   UNL     1      -0.163   2.272  25.977  0.00  0.00    +0.090 C 
ATOM      2  N   UNL     1      -0.864   2.456  25.583  0.00  0.00    -0.264 NA
ATOM      3  C   UNL     1      -1.243   3.190  25.586  0.00  0.00    +0.092 C 
ATOM      4  C   UNL     1      -1.922   3.126  25.121  0.00  0.00    +0.115 C 
ATOM      5  C   UNL     1      -1.961   2.355  24.831  0.00  0.00    +0.046 C 
ATOM      6  C   UNL     1      -1.308   1.942  25.116  0.00  0.00    +0.139 C 
ENDROOT
BRANCH   6   7
ATOM      7  C   UNL     1      -1.128   1.151  24.962  0.00  0.00    +0.251 A 
ATOM      8  N   UNL     1      -1.665   0.524  24.959  0.00  0.00    -0.190 NA
ATOM      9  C   UNL     1      -1.250  -0.166  24.779  0.00  0.00    +0.203 A 
ATOM     10  N   UNL     1      -0.457   0.034  24.671  0.00  0.00    -0.056 NA
ATOM     11  O   UNL     1      -0.383   0.849  24.783  0.00  0.00    -0.336 OA
BRANCH   9  12
ATOM     12  C   UNL     1      -1.572  -0.923  24.719  0.00  0.00    +0.042 A 
ATOM     13  C   UNL     1      -2.389  -1.022  24.680  0.00  0.00    +0.043 A 
ATOM     14  C   UNL     1      -2.711  -1.779  24.620  0.00  0.00    +0.177 A 
ATOM     15  C   UNL     1      -2.215  -2.438  24.598  0.00  0.00    +0.176 A 
ATOM     16  O   UNL     1      -2.686  -3.111  24.537  0.00  0.00    -0.435 OA
ATOM     17  C   UNL     1      -3.475  -2.870  24.521  0.00  0.00    +0.429 C 
ATOM     18  O   UNL     1      -3.490  -2.047  24.572  0.00  0.00    -0.435 OA
ATOM     19  C   UNL     1      -1.396  -2.339  24.637  0.00  0.00    +0.040 A 
ATOM     20  C   UNL     1      -1.075  -1.581  24.697  0.00  0.00    +0.006 A 
ENDBRANCH   9  12
ENDBRANCH   6   7
BRANCH   4  21
ATOM     21  N   UNL     1      -2.466   3.729  24.972  0.00  0.00    -0.078 NA
BRANCH  21  22
ATOM     22  S   UNL     1      -3.272   3.591  25.073  0.00  0.00    +0.077 S 
ATOM     23  O   UNL     1      -3.187   3.688  25.887  0.00  0.00    -0.152 OA
ATOM     24  O   UNL     1      -3.357   3.494  24.257  0.00  0.00    -0.152 OA
BRANCH  22  25
ATOM     25  C   UNL     1      -4.080   3.453  25.173  0.00  0.00    +0.124 A 
ATOM     26  C   UNL     1      -4.441   2.818  24.789  0.00  0.00    +0.020 A 
ATOM     27  C   UNL     1      -5.248   2.680  24.890  0.00  0.00    +0.001 A 
ATOM     28  C   UNL     1      -5.694   3.176  25.374  0.00  0.00    +0.000 A 
ATOM     29  C   UNL     1      -5.333   3.811  25.759  0.00  0.00    +0.001 A 
ATOM     30  C   UNL     1      -4.526   3.949  25.658  0.00  0.00    +0.020 A 
ENDBRANCH  22  25
ENDBRANCH  21  22
ENDBRANCH   4  21
TORSDOF 5
ENDMDL
