MODEL 1
REMARK VINA RESULT:      -9.4      0.000      0.000
REMARK  Name = 
REMARK  6 active torsions:
REMARK  status: ('A' for Active; 'I' for Inactive)
REMARK    1  A    between atoms: O_2  and  C_3
REMARK    2  A    between atoms: C_3  and  C_4
REMARK    3  A    between atoms: N_6  and  C_7
REMARK    4  A    between atoms: C_7  and  C_8
REMARK    5  A    between atoms: C_15  and  C_16
REMARK    6  A    between atoms: N_18  and  C_19
REMARK                            x       y       z     vdW  Elec       q    Type
REMARK                         _______ _______ _______ _____ _____    ______ ____
ROOT
ATOM      8  C   UNL     1      -4.170  -0.169  25.024  0.00  0.00    +0.082 C 
ATOM      9  C   UNL     1      -4.330  -0.702  24.481  0.00  0.00    +0.019 C 
ATOM     10  C   UNL     1      -3.910  -1.381  24.348  0.00  0.00    +0.013 C 
ATOM     11  C   UNL     1      -4.257  -1.863  23.676  0.00  0.00    +0.018 C 
ATOM     12  C   UNL     1      -4.219  -1.358  24.089  0.00  0.00    +0.072 C 
ATOM     13  N   UNL     1      -3.747  -0.863  24.883  0.00  0.00    -0.272 NA
ATOM     14  C   UNL     1      -3.006  -1.218  25.282  0.00  0.00    +0.081 C 
ATOM     15  C   UNL     1      -3.198  -1.717  24.736  0.00  0.00    +0.094 C 
ENDROOT
BRANCH  15  16
ATOM     16  C   UNL     1      -2.814  -2.424  24.550  0.00  0.00    +0.242 C 
ATOM     17  O   UNL     1      -3.255  -3.085  24.327  0.00  0.00    -0.273 OA
ATOM     18  N   UNL     1      -1.992  -2.469  24.586  0.00  0.00    -0.207 NA
BRANCH  18  19
ATOM     19  C   UNL     1      -1.551  -1.808  24.809  0.00  0.00    +0.095 C 
ATOM     20  C   UNL     1      -1.244  -1.319  25.397  0.00  0.00    +0.023 C 
ATOM     21  C   UNL     1      -1.095  -1.152  24.603  0.00  0.00    +0.023 C 
ENDBRANCH  18  19
ENDBRANCH  15  16
BRANCH   8   7
ATOM      7  C   UNL     1      -4.311   0.537  25.427  0.00  0.00    +0.145 C 
BRANCH   7   6
ATOM      4  C   UNL     1      -3.865   2.416  24.518  0.00  0.00    +0.131 A 
ATOM      5  C   UNL     1      -3.645   1.768  24.979  0.00  0.00    +0.116 A 
ATOM      6  N   UNL     1      -4.289   1.255  25.021  0.00  0.00    -0.229 N 
ATOM     22  N   UNL     1      -4.908   1.586  24.586  0.00  0.00    -0.064 NA
ATOM     23  N   UNL     1      -4.646   2.303  24.275  0.00  0.00    -0.131 NA
BRANCH   4   3
ATOM      3  C   UNL     1      -3.389   3.064  24.332  0.00  0.00    +0.191 C 
BRANCH   3   2
ATOM      1  C   UNL     1      -2.626   4.185  24.783  0.00  0.00    +0.175 C 
ATOM      2  O   UNL     1      -3.233   3.639  24.902  0.00  0.00    -0.345 OA
ENDBRANCH   3   2
ENDBRANCH   4   3
ENDBRANCH   7   6
ENDBRANCH   8   7
TORSDOF 6
ENDMDL
MODEL 2
REMARK VINA RESULT:      -9.1      1.386      4.517
REMARK  Name = 
REMARK  6 active torsions:
REMARK  status: ('A' for Active; 'I' for Inactive)
REMARK    1  A    between atoms: O_2  and  C_3
REMARK    2  A    between atoms: C_3  and  C_4
REMARK    3  A    between atoms: N_6  and  C_7
REMARK    4  A    between atoms: C_7  and  C_8
REMARK    5  A    between atoms: C_15  and  C_16
REMARK    6  A    between atoms: N_18  and  C_19
REMARK                            x       y       z     vdW  Elec       q    Type
REMARK                         _______ _______ _______ _____ _____    ______ ____
ROOT
ATOM      8  C   UNL     1      -4.121   1.133  24.344  0.00  0.00    +0.082 C 
ATOM      9  C   UNL     1      -4.743   1.256  24.795  0.00  0.00    +0.019 C 
ATOM     10  C   UNL     1      -4.951   1.963  25.131  0.00  0.00    +0.013 C 
ATOM     11  C   UNL     1      -5.702   1.895  25.616  0.00  0.00    +0.018 C 
ATOM     12  C   UNL     1      -5.219   1.678  25.232  0.00  0.00    +0.072 C 
ATOM     13  N   UNL     1      -4.339   1.851  24.689  0.00  0.00    -0.272 NA
ATOM     14  C   UNL     1      -3.960   2.680  24.665  0.00  0.00    +0.081 C 
ATOM     15  C   UNL     1      -4.580   2.758  25.103  0.00  0.00    +0.094 C 
ENDROOT
BRANCH  15  16
ATOM     16  C   UNL     1      -4.847   3.446  25.472  0.00  0.00    +0.242 C 
ATOM     17  O   UNL     1      -5.654   3.557  25.604  0.00  0.00    -0.273 OA
ATOM     18  N   UNL     1      -4.307   4.022  25.710  0.00  0.00    -0.207 NA
BRANCH  18  19
ATOM     19  C   UNL     1      -3.499   3.911  25.579  0.00  0.00    +0.095 C 
ATOM     20  C   UNL     1      -2.847   3.937  25.075  0.00  0.00    +0.023 C 
ATOM     21  C   UNL     1      -2.754   3.692  25.857  0.00  0.00    +0.023 C 
ENDBRANCH  18  19
ENDBRANCH  15  16
BRANCH   8   7
ATOM      7  C   UNL     1      -3.629   0.659  23.882  0.00  0.00    +0.145 C 
BRANCH   7   6
ATOM      4  C   UNL     1      -2.568  -0.972  24.761  0.00  0.00    +0.131 A 
ATOM      5  C   UNL     1      -2.622  -0.174  24.552  0.00  0.00    +0.116 A 
ATOM      6  N   UNL     1      -3.348  -0.057  24.180  0.00  0.00    -0.229 N 
ATOM     22  N   UNL     1      -3.744  -0.780  24.158  0.00  0.00    -0.064 NA
ATOM     23  N   UNL     1      -3.262  -1.346  24.517  0.00  0.00    -0.131 NA
BRANCH   4   3
ATOM      3  C   UNL     1      -1.933  -1.331  25.145  0.00  0.00    +0.191 C 
BRANCH   3   2
ATOM      1  C   UNL     1      -0.549  -1.687  25.171  0.00  0.00    +0.175 C 
ATOM      2  O   UNL     1      -1.209  -1.412  24.759  0.00  0.00    -0.345 OA
ENDBRANCH   3   2
ENDBRANCH   4   3
ENDBRANCH   7   6
ENDBRANCH   8   7
TORSDOF 6
ENDMDL
MODEL 3
REMARK VINA RESULT:      -8.9      2.340      4.913
REMARK  Name = 
REMARK  6 active torsions:
REMARK  status: ('A' for Active; 'I' for Inactive)
REMARK    1  A    between atoms: O_2  and  C_3
REMARK    2  A    between atoms: C_3  and  C_4
REMARK    3  A    between atoms: N_6  and  C_7
REMARK    4  A    between atoms: C_7  and  C_8
REMARK    5  A    between atoms: C_15  and  C_16
REMARK    6  A    between atoms: N_18  and  C_19
REMARK                            x       y       z     vdW  Elec       q    Type
REMARK                         _______ _______ _______ _____ _____    ______ ____
ROOT
ATOM      8  C   UNL     1      -2.586   2.467  24.199  0.00  0.00    +0.082 C 
ATOM      9  C   UNL     1      -2.564   2.992  24.772  0.00  0.00    +0.019 C 
ATOM     10  C   UNL     1      -3.208   3.303  25.153  0.00  0.00    +0.013 C 
ATOM     11  C   UNL     1      -2.970   3.893  25.784  0.00  0.00    +0.018 C 
ATOM     12  C   UNL     1      -2.868   3.461  25.305  0.00  0.00    +0.072 C 
ATOM     13  N   UNL     1      -3.237   2.788  24.591  0.00  0.00    -0.272 NA
ATOM     14  C   UNL     1      -4.135   2.650  24.498  0.00  0.00    +0.081 C 
ATOM     15  C   UNL     1      -4.069   3.166  25.058  0.00  0.00    +0.094 C 
ENDROOT
BRANCH  15  16
ATOM     16  C   UNL     1      -4.681   3.520  25.484  0.00  0.00    +0.242 C 
ATOM     17  O   UNL     1      -4.594   4.290  25.767  0.00  0.00    -0.273 OA
ATOM     18  N   UNL     1      -5.378   3.104  25.627  0.00  0.00    -0.207 NA
BRANCH  18  19
ATOM     19  C   UNL     1      -5.465   2.334  25.344  0.00  0.00    +0.095 C 
ATOM     20  C   UNL     1      -5.661   1.814  24.734  0.00  0.00    +0.023 C 
ATOM     21  C   UNL     1      -5.421   1.519  25.466  0.00  0.00    +0.023 C 
ENDBRANCH  18  19
ENDBRANCH  15  16
BRANCH   8   7
ATOM      7  C   UNL     1      -2.235   1.974  23.638  0.00  0.00    +0.145 C 
BRANCH   7   6
ATOM      4  C   UNL     1      -0.834   0.463  24.195  0.00  0.00    +0.131 A 
ATOM      5  C   UNL     1      -1.603   0.703  24.016  0.00  0.00    +0.116 A 
ATOM      6  N   UNL     1      -1.586   1.509  23.846  0.00  0.00    -0.229 N 
ATOM     22  N   UNL     1      -0.807   1.769  23.919  0.00  0.00    -0.064 NA
ATOM     23  N   UNL     1      -0.342   1.123  24.135  0.00  0.00    -0.131 NA
BRANCH   4   3
ATOM      3  C   UNL     1      -0.598  -0.301  24.398  0.00  0.00    +0.191 C 
BRANCH   3   2
ATOM      1  C   UNL     1      -0.610  -1.395  25.317  0.00  0.00    +0.175 C 
ATOM      2  O   UNL     1      -0.807  -0.616  25.131  0.00  0.00    -0.345 OA
ENDBRANCH   3   2
ENDBRANCH   4   3
ENDBRANCH   7   6
ENDBRANCH   8   7
TORSDOF 6
ENDMDL
MODEL 4
REMARK VINA RESULT:      -8.9      2.133      4.232
REMARK  Name = 
REMARK  6 active torsions:
REMARK  status: ('A' for Active; 'I' for Inactive)
REMARK    1  A    between atoms: O_2  and  C_3
REMARK    2  A    between atoms: C_3  and  C_4
REMARK    3  A    between atoms: N_6  and  C_7
REMARK    4  A    between atoms: C_7  and  C_8
REMARK    5  A    between atoms: C_15  and  C_16
REMARK    6  A    between atoms: N_18  and  C_19
REMARK                            x       y       z     vdW  Elec       q    Type
REMARK                         _______ _______ _______ _____ _____    ______ ____
ROOT
ATOM      8  C   UNL     1      -2.221   0.617  24.957  0.00  0.00    +0.082 C 
ATOM      9  C   UNL     1      -2.862   0.195  24.824  0.00  0.00    +0.019 C 
ATOM     10  C   UNL     1      -3.613   0.489  24.758  0.00  0.00    +0.013 C 
ATOM     11  C   UNL     1      -4.213  -0.161  24.604  0.00  0.00    +0.018 C 
ATOM     12  C   UNL     1      -3.618   0.087  24.711  0.00  0.00    +0.072 C 
ATOM     13  N   UNL     1      -2.990   0.908  24.889  0.00  0.00    -0.272 NA
ATOM     14  C   UNL     1      -3.330   1.753  24.941  0.00  0.00    +0.081 C 
ATOM     15  C   UNL     1      -3.933   1.304  24.810  0.00  0.00    +0.094 C 
ENDROOT
BRANCH  15  16
ATOM     16  C   UNL     1      -4.721   1.537  24.732  0.00  0.00    +0.242 C 
ATOM     17  O   UNL     1      -5.327   1.019  24.944  0.00  0.00    -0.273 OA
ATOM     18  N   UNL     1      -4.902   2.288  24.443  0.00  0.00    -0.207 NA
BRANCH  18  19
ATOM     19  C   UNL     1      -4.296   2.807  24.231  0.00  0.00    +0.095 C 
ATOM     20  C   UNL     1      -3.741   3.380  24.439  0.00  0.00    +0.023 C 
ATOM     21  C   UNL     1      -3.803   3.130  23.655  0.00  0.00    +0.023 C 
ENDBRANCH  18  19
ENDBRANCH  15  16
BRANCH   8   7
ATOM      7  C   UNL     1      -1.409   0.704  25.075  0.00  0.00    +0.145 C 
BRANCH   7   6
ATOM      4  C   UNL     1       0.007  -0.208  23.764  0.00  0.00    +0.131 A 
ATOM      5  C   UNL     1      -0.456   0.438  23.989  0.00  0.00    +0.116 A 
ATOM      6  N   UNL     1      -0.879   0.225  24.664  0.00  0.00    -0.229 N 
ATOM     22  N   UNL     1      -0.678  -0.552  24.856  0.00  0.00    -0.064 NA
ATOM     23  N   UNL     1      -0.131  -0.819  24.300  0.00  0.00    -0.131 NA
BRANCH   4   3
ATOM      3  C   UNL     1       0.517  -0.236  23.116  0.00  0.00    +0.191 C 
BRANCH   3   2
ATOM      1  C   UNL     1       1.805   0.012  22.550  0.00  0.00    +0.175 C 
ATOM      2  O   UNL     1       1.262   0.116  23.162  0.00  0.00    -0.345 OA
ENDBRANCH   3   2
ENDBRANCH   4   3
ENDBRANCH   7   6
ENDBRANCH   8   7
TORSDOF 6
ENDMDL
MODEL 5
REMARK VINA RESULT:      -8.8      1.242      2.036
REMARK  Name = 
REMARK  6 active torsions:
REMARK  status: ('A' for Active; 'I' for Inactive)
REMARK    1  A    between atoms: O_2  and  C_3
REMARK    2  A    between atoms: C_3  and  C_4
REMARK    3  A    between atoms: N_6  and  C_7
REMARK    4  A    between atoms: C_7  and  C_8
REMARK    5  A    between atoms: C_15  and  C_16
REMARK    6  A    between atoms: N_18  and  C_19
REMARK                            x       y       z     vdW  Elec       q    Type
REMARK                         _______ _______ _______ _____ _____    ______ ____
ROOT
ATOM      8  C   UNL     1      -2.664   0.682  24.827  0.00  0.00    +0.082 C 
ATOM      9  C   UNL     1      -1.908   0.504  24.775  0.00  0.00    +0.019 C 
ATOM     10  C   UNL     1      -1.599  -0.244  24.758  0.00  0.00    +0.013 C 
ATOM     11  C   UNL     1      -0.705  -0.235  24.696  0.00  0.00    +0.018 C 
ATOM     12  C   UNL     1      -1.301   0.028  24.736  0.00  0.00    +0.072 C 
ATOM     13  N   UNL     1      -2.342  -0.078  24.809  0.00  0.00    -0.272 NA
ATOM     14  C   UNL     1      -2.726  -0.905  24.841  0.00  0.00    +0.081 C 
ATOM     15  C   UNL     1      -1.976  -1.036  24.790  0.00  0.00    +0.094 C 
ENDROOT
BRANCH  15  16
ATOM     16  C   UNL     1      -1.598  -1.770  24.768  0.00  0.00    +0.242 C 
ATOM     17  O   UNL     1      -0.775  -1.811  24.816  0.00  0.00    -0.273 OA
ATOM     18  N   UNL     1      -2.042  -2.460  24.697  0.00  0.00    -0.207 NA
BRANCH  18  19
ATOM     19  C   UNL     1      -2.865  -2.419  24.649  0.00  0.00    +0.095 C 
ATOM     20  C   UNL     1      -3.601  -2.358  25.016  0.00  0.00    +0.023 C 
ATOM     21  C   UNL     1      -3.554  -2.409  24.194  0.00  0.00    +0.023 C 
ENDBRANCH  18  19
ENDBRANCH  15  16
BRANCH   8   7
ATOM      7  C   UNL     1      -3.294   1.212  24.868  0.00  0.00    +0.145 C 
BRANCH   7   6
ATOM      4  C   UNL     1      -2.896   3.302  24.691  0.00  0.00    +0.131 A 
ATOM      5  C   UNL     1      -2.924   2.608  25.138  0.00  0.00    +0.116 A 
ATOM      6  N   UNL     1      -3.185   2.000  24.647  0.00  0.00    -0.229 N 
ATOM     22  N   UNL     1      -3.318   2.316  23.897  0.00  0.00    -0.064 NA
ATOM     23  N   UNL     1      -3.140   3.121  23.924  0.00  0.00    -0.131 NA
BRANCH   4   3
ATOM      3  C   UNL     1      -2.665   4.046  24.964  0.00  0.00    +0.191 C 
BRANCH   3   2
ATOM      1  C   UNL     1      -1.633   4.989  25.259  0.00  0.00    +0.175 C 
ATOM      2  O   UNL     1      -1.868   4.259  24.954  0.00  0.00    -0.345 OA
ENDBRANCH   3   2
ENDBRANCH   4   3
ENDBRANCH   7   6
ENDBRANCH   8   7
TORSDOF 6
ENDMDL
MODEL 6
REMARK VINA RESULT:      -8.8      1.424      4.731
REMARK  Name = 
REMARK  6 active torsions:
REMARK  status: ('A' for Active; 'I' for Inactive)
REMARK    1  A    between atoms: O_2  and  C_3
REMARK    2  A    between atoms: C_3  and  C_4
REMARK    3  A    between atoms: N_6  and  C_7
REMARK    4  A    between atoms: C_7  and  C_8
REMARK    5  A    between atoms: C_15  and  C_16
REMARK    6  A    between atoms: N_18  and  C_19
REMARK                            x       y       z     vdW  Elec       q    Type
REMARK                         _______ _______ _______ _____ _____    ______ ____
ROOT
ATOM      8  C   UNL     1      -3.303   1.816  24.418  0.00  0.00    +0.082 C 
ATOM      9  C   UNL     1      -3.800   2.327  24.731  0.00  0.00    +0.019 C 
ATOM     10  C   UNL     1      -3.595   2.983  25.158  0.00  0.00    +0.013 C 
ATOM     11  C   UNL     1      -4.315   3.442  25.431  0.00  0.00    +0.018 C 
ATOM     12  C   UNL     1      -3.997   2.957  25.130  0.00  0.00    +0.072 C 
ATOM     13  N   UNL     1      -3.102   2.487  24.855  0.00  0.00    -0.272 NA
ATOM     14  C   UNL     1      -2.295   2.835  25.102  0.00  0.00    +0.081 C 
ATOM     15  C   UNL     1      -2.816   3.312  25.393  0.00  0.00    +0.094 C 
ENDROOT
BRANCH  15  16
ATOM     16  C   UNL     1      -2.675   3.995  25.835  0.00  0.00    +0.242 C 
ATOM     17  O   UNL     1      -3.274   4.312  26.305  0.00  0.00    -0.273 OA
ATOM     18  N   UNL     1      -1.936   4.359  25.806  0.00  0.00    -0.207 NA
BRANCH  18  19
ATOM     19  C   UNL     1      -1.337   4.042  25.335  0.00  0.00    +0.095 C 
ATOM     20  C   UNL     1      -0.725   3.500  25.226  0.00  0.00    +0.023 C 
ATOM     21  C   UNL     1      -0.911   4.038  24.628  0.00  0.00    +0.023 C 
ENDBRANCH  18  19
ENDBRANCH  15  16
BRANCH   8   7
ATOM      7  C   UNL     1      -3.120   1.137  23.988  0.00  0.00    +0.145 C 
BRANCH   7   6
ATOM      4  C   UNL     1      -3.645  -0.822  24.654  0.00  0.00    +0.131 A 
ATOM      5  C   UNL     1      -3.093  -0.215  24.563  0.00  0.00    +0.116 A 
ATOM      6  N   UNL     1      -3.468   0.416  24.187  0.00  0.00    -0.229 N 
ATOM     22  N   UNL     1      -4.251   0.199  24.045  0.00  0.00    -0.064 NA
ATOM     23  N   UNL     1      -4.360  -0.566  24.334  0.00  0.00    -0.131 NA
BRANCH   4   3
ATOM      3  C   UNL     1      -3.505  -1.557  25.004  0.00  0.00    +0.191 C 
BRANCH   3   2
ATOM      1  C   UNL     1      -3.351  -2.972  24.888  0.00  0.00    +0.175 C 
ATOM      2  O   UNL     1      -3.523  -2.242  24.545  0.00  0.00    -0.345 OA
ENDBRANCH   3   2
ENDBRANCH   4   3
ENDBRANCH   7   6
ENDBRANCH   8   7
TORSDOF 6
ENDMDL
MODEL 7
REMARK VINA RESULT:      -8.8      2.440      4.049
REMARK  Name = 
REMARK  6 active torsions:
REMARK  status: ('A' for Active; 'I' for Inactive)
REMARK    1  A    between atoms: O_2  and  C_3
REMARK    2  A    between atoms: C_3  and  C_4
REMARK    3  A    between atoms: N_6  and  C_7
REMARK    4  A    between atoms: C_7  and  C_8
REMARK    5  A    between atoms: C_15  and  C_16
REMARK    6  A    between atoms: N_18  and  C_19
REMARK                            x       y       z     vdW  Elec       q    Type
REMARK                         _______ _______ _______ _____ _____    ______ ____
ROOT
ATOM      8  C   UNL     1      -3.689   3.436  24.593  0.00  0.00    +0.082 C 
ATOM      9  C   UNL     1      -4.307   3.498  25.063  0.00  0.00    +0.019 C 
ATOM     10  C   UNL     1      -4.872   2.930  25.176  0.00  0.00    +0.013 C 
ATOM     11  C   UNL     1      -5.501   3.196  25.757  0.00  0.00    +0.018 C 
ATOM     12  C   UNL     1      -4.957   3.255  25.401  0.00  0.00    +0.072 C 
ATOM     13  N   UNL     1      -4.270   2.861  24.714  0.00  0.00    -0.272 NA
ATOM     14  C   UNL     1      -4.381   2.024  24.369  0.00  0.00    +0.081 C 
ATOM     15  C   UNL     1      -4.973   2.125  24.840  0.00  0.00    +0.094 C 
ENDROOT
BRANCH  15  16
ATOM     16  C   UNL     1      -5.581   1.590  25.000  0.00  0.00    +0.242 C 
ATOM     17  O   UNL     1      -6.345   1.866  25.148  0.00  0.00    -0.273 OA
ATOM     18  N   UNL     1      -5.425   0.781  25.012  0.00  0.00    -0.207 NA
BRANCH  18  19
ATOM     19  C   UNL     1      -4.661   0.505  24.865  0.00  0.00    +0.095 C 
ATOM     20  C   UNL     1      -4.066   0.298  24.332  0.00  0.00    +0.023 C 
ATOM     21  C   UNL     1      -3.934   0.234  25.144  0.00  0.00    +0.023 C 
ENDBRANCH  18  19
ENDBRANCH  15  16
BRANCH   8   7
ATOM      7  C   UNL     1      -2.997   3.720  24.246  0.00  0.00    +0.145 C 
BRANCH   7   6
ATOM      4  C   UNL     1      -1.160   3.668  25.332  0.00  0.00    +0.131 A 
ATOM      5  C   UNL     1      -1.716   3.311  24.836  0.00  0.00    +0.116 A 
ATOM      6  N   UNL     1      -2.327   3.849  24.709  0.00  0.00    -0.229 N 
ATOM     22  N   UNL     1      -2.150   4.539  25.124  0.00  0.00    -0.064 NA
ATOM     23  N   UNL     1      -1.429   4.428  25.509  0.00  0.00    -0.131 NA
BRANCH   4   3
ATOM      3  C   UNL     1      -0.459   3.327  25.601  0.00  0.00    +0.191 C 
BRANCH   3   2
ATOM      1  C   UNL     1       0.217   2.407  26.460  0.00  0.00    +0.175 C 
ATOM      2  O   UNL     1      -0.484   2.718  26.157  0.00  0.00    -0.345 OA
ENDBRANCH   3   2
ENDBRANCH   4   3
ENDBRANCH   7   6
ENDBRANCH   8   7
TORSDOF 6
ENDMDL
MODEL 8
REMARK VINA RESULT:      -8.7      1.883      2.442
REMARK  Name = 
REMARK  6 active torsions:
REMARK  status: ('A' for Active; 'I' for Inactive)
REMARK    1  A    between atoms: O_2  and  C_3
REMARK    2  A    between atoms: C_3  and  C_4
REMARK    3  A    between atoms: N_6  and  C_7
REMARK    4  A    between atoms: C_7  and  C_8
REMARK    5  A    between atoms: C_15  and  C_16
REMARK    6  A    between atoms: N_18  and  C_19
REMARK                            x       y       z     vdW  Elec       q    Type
REMARK                         _______ _______ _______ _____ _____    ______ ____
ROOT
ATOM      8  C   UNL     1      -2.176   0.765  24.576  0.00  0.00    +0.082 C 
ATOM      9  C   UNL     1      -2.945   0.874  24.623  0.00  0.00    +0.019 C 
ATOM     10  C   UNL     1      -3.509   0.299  24.543  0.00  0.00    +0.013 C 
ATOM     11  C   UNL     1      -4.338   0.629  24.631  0.00  0.00    +0.018 C 
ATOM     12  C   UNL     1      -3.686   0.656  24.612  0.00  0.00    +0.072 C 
ATOM     13  N   UNL     1      -2.757   0.184  24.495  0.00  0.00    -0.272 NA
ATOM     14  C   UNL     1      -2.705  -0.714  24.337  0.00  0.00    +0.081 C 
ATOM     15  C   UNL     1      -3.452  -0.564  24.390  0.00  0.00    +0.094 C 
ENDROOT
BRANCH  15  16
ATOM     16  C   UNL     1      -4.075  -1.101  24.319  0.00  0.00    +0.242 C 
ATOM     17  O   UNL     1      -4.830  -0.832  24.122  0.00  0.00    -0.273 OA
ATOM     18  N   UNL     1      -3.942  -1.904  24.444  0.00  0.00    -0.207 NA
BRANCH  18  19
ATOM     19  C   UNL     1      -3.187  -2.173  24.641  0.00  0.00    +0.095 C 
ATOM     20  C   UNL     1      -2.607  -2.323  25.208  0.00  0.00    +0.023 C 
ATOM     21  C   UNL     1      -2.460  -2.489  24.413  0.00  0.00    +0.023 C 
ENDBRANCH  18  19
ENDBRANCH  15  16
BRANCH   8   7
ATOM      7  C   UNL     1      -1.394   1.025  24.592  0.00  0.00    +0.145 C 
BRANCH   7   6
ATOM      4  C   UNL     1      -0.938   3.020  25.200  0.00  0.00    +0.131 A 
ATOM      5  C   UNL     1      -1.141   2.472  24.617  0.00  0.00    +0.116 A 
ATOM      6  N   UNL     1      -1.202   1.731  24.973  0.00  0.00    -0.229 N 
ATOM     22  N   UNL     1      -1.037   1.820  25.777  0.00  0.00    -0.064 NA
ATOM     23  N   UNL     1      -0.874   2.616  25.917  0.00  0.00    -0.131 NA
BRANCH   4   3
ATOM      3  C   UNL     1      -0.820   3.828  25.087  0.00  0.00    +0.191 C 
BRANCH   3   2
ATOM      1  C   UNL     1      -1.328   5.164  25.090  0.00  0.00    +0.175 C 
ATOM      2  O   UNL     1      -1.428   4.361  25.250  0.00  0.00    -0.345 OA
ENDBRANCH   3   2
ENDBRANCH   4   3
ENDBRANCH   7   6
ENDBRANCH   8   7
TORSDOF 6
ENDMDL
