MODEL 1
REMARK VINA RESULT:      -9.4      0.000      0.000
REMARK  Name = 
REMARK  7 active torsions:
REMARK  status: ('A' for Active; 'I' for Inactive)
REMARK    1  A    between atoms: C_5  and  S_8
REMARK    2  A    between atoms: S_8  and  N_11
REMARK    3  A    between atoms: N_11  and  C_12
REMARK    4  A    between atoms: C_12  and  C_13
REMARK    5  A    between atoms: C_16  and  N_17
REMARK    6  A    between atoms: N_17  and  C_18
REMARK    7  A    between atoms: C_18  and  C_19
REMARK                            x       y       z     vdW  Elec       q    Type
REMARK                         _______ _______ _______ _____ _____    ______ ____
ROOT
ATOM     13  C   UNL     1      -3.816   1.778  24.685  0.00  0.00    +0.166 C 
ATOM     14  O   UNL     1      -4.228   2.182  25.275  0.00  0.00    -0.350 OA
ATOM     15  C   UNL     1      -3.905   2.939  25.339  0.00  0.00    +0.162 C 
ATOM     16  C   UNL     1      -3.294   3.002  24.789  0.00  0.00    +0.135 C 
ATOM     24  C   UNL     1      -3.239   2.285  24.384  0.00  0.00    +0.199 C 
ATOM     25  O   UNL     1      -2.701   2.106  23.785  0.00  0.00    -0.219 OA
ENDROOT
BRANCH  13  12
ATOM     12  C   UNL     1      -3.957   1.003  24.440  0.00  0.00    +0.148 C 
BRANCH  12  11
ATOM     11  N   UNL     1      -4.213   0.438  24.983  0.00  0.00    -0.075 NA
BRANCH  11   8
ATOM      8  S   UNL     1      -4.081  -0.363  24.838  0.00  0.00    +0.077 S 
ATOM      9  O   UNL     1      -3.641  -0.416  25.535  0.00  0.00    -0.152 OA
ATOM     10  O   UNL     1      -4.520  -0.311  24.142  0.00  0.00    -0.152 OA
BRANCH   8   5
ATOM      1  C   UNL     1      -3.549  -3.569  24.261  0.00  0.00    +0.031 C 
ATOM      2  C   UNL     1      -3.682  -2.767  24.406  0.00  0.00    -0.022 A 
ATOM      3  C   UNL     1      -3.359  -2.410  25.076  0.00  0.00    -0.003 A 
ATOM      4  C   UNL     1      -3.492  -1.609  25.220  0.00  0.00    +0.020 A 
ATOM      5  C   UNL     1      -3.948  -1.164  24.694  0.00  0.00    +0.124 A 
ATOM      6  C   UNL     1      -4.270  -1.523  24.025  0.00  0.00    +0.020 A 
ATOM      7  C   UNL     1      -4.137  -2.324  23.880  0.00  0.00    -0.003 A 
ENDBRANCH   8   5
ENDBRANCH  11   8
ENDBRANCH  12  11
ENDBRANCH  13  12
BRANCH  16  17
ATOM     17  N   UNL     1      -2.821   3.666  24.664  0.00  0.00    -0.208 NA
BRANCH  17  18
ATOM     18  C   UNL     1      -2.450   4.034  25.303  0.00  0.00    +0.136 C 
BRANCH  18  19
ATOM     19  C   UNL     1      -1.828   4.559  25.172  0.00  0.00    +0.097 A 
ATOM     20  C   UNL     1      -1.890   5.381  25.118  0.00  0.00    +0.117 A 
ATOM     21  N   UNL     1      -1.135   5.685  24.984  0.00  0.00    -0.221 NA
ATOM     22  C   UNL     1      -0.606   5.052  24.955  0.00  0.00    +0.199 A 
ATOM     23  N   UNL     1      -1.035   4.356  25.071  0.00  0.00    -0.225 NA
ENDBRANCH  18  19
ENDBRANCH  17  18
ENDBRANCH  16  17
TORSDOF 7
ENDMDL
MODEL 2
REMARK VINA RESULT:      -8.8      3.718      4.601
REMARK  Name = 
REMARK  7 active torsions:
REMARK  status: ('A' for Active; 'I' for Inactive)
REMARK    1  A    between atoms: C_5  and  S_8
REMARK    2  A    between atoms: S_8  and  N_11
REMARK    3  A    between atoms: N_11  and  C_12
REMARK    4  A    between atoms: C_12  and  C_13
REMARK    5  A    between atoms: C_16  and  N_17
REMARK    6  A    between atoms: N_17  and  C_18
REMARK    7  A    between atoms: C_18  and  C_19
REMARK                            x       y       z     vdW  Elec       q    Type
REMARK                         _______ _______ _______ _____ _____    ______ ____
ROOT
ATOM     13  C   UNL     1      -0.861   0.545  24.044  0.00  0.00    +0.166 C 
ATOM     14  O   UNL     1      -0.679  -0.250  23.925  0.00  0.00    -0.350 OA
ATOM     15  C   UNL     1       0.105  -0.297  23.671  0.00  0.00    +0.162 C 
ATOM     16  C   UNL     1       0.407   0.469  23.633  0.00  0.00    +0.135 C 
ATOM     24  C   UNL     1      -0.190   0.991  23.863  0.00  0.00    +0.199 C 
ATOM     25  O   UNL     1      -0.127   1.811  23.906  0.00  0.00    -0.219 OA
ENDROOT
BRANCH  13  12
ATOM     12  C   UNL     1      -1.587   0.844  24.299  0.00  0.00    +0.148 C 
BRANCH  12  11
ATOM     11  N   UNL     1      -2.276   0.406  24.184  0.00  0.00    -0.075 NA
BRANCH  11   8
ATOM      8  S   UNL     1      -3.009   0.731  24.379  0.00  0.00    +0.077 S 
ATOM      9  O   UNL     1      -2.823   0.669  25.181  0.00  0.00    -0.152 OA
ATOM     10  O   UNL     1      -3.195   0.794  23.578  0.00  0.00    -0.152 OA
BRANCH   8   5
ATOM      1  C   UNL     1      -5.939   2.032  25.161  0.00  0.00    +0.031 C 
ATOM      2  C   UNL     1      -5.206   1.707  24.965  0.00  0.00    -0.022 A 
ATOM      3  C   UNL     1      -5.046   0.917  25.142  0.00  0.00    -0.003 A 
ATOM      4  C   UNL     1      -4.313   0.592  24.947  0.00  0.00    +0.020 A 
ATOM      5  C   UNL     1      -3.741   1.057  24.575  0.00  0.00    +0.124 A 
ATOM      6  C   UNL     1      -3.903   1.846  24.399  0.00  0.00    +0.020 A 
ATOM      7  C   UNL     1      -4.635   2.171  24.594  0.00  0.00    -0.003 A 
ENDBRANCH   8   5
ENDBRANCH  11   8
ENDBRANCH  12  11
ENDBRANCH  13  12
BRANCH  16  17
ATOM     17  N   UNL     1       1.171   0.679  23.404  0.00  0.00    -0.208 NA
BRANCH  17  18
ATOM     18  C   UNL     1       1.668   0.115  23.063  0.00  0.00    +0.136 C 
BRANCH  18  19
ATOM     19  C   UNL     1       2.423   0.330  22.811  0.00  0.00    +0.097 A 
ATOM     20  C   UNL     1       2.791   0.083  22.115  0.00  0.00    +0.117 A 
ATOM     21  N   UNL     1       3.539   0.430  22.084  0.00  0.00    -0.221 NA
ATOM     22  C   UNL     1       3.633   0.893  22.760  0.00  0.00    +0.199 A 
ATOM     23  N   UNL     1       2.943   0.831  23.210  0.00  0.00    -0.225 NA
ENDBRANCH  18  19
ENDBRANCH  17  18
ENDBRANCH  16  17
TORSDOF 7
ENDMDL
MODEL 3
REMARK VINA RESULT:      -8.7      1.528      5.827
REMARK  Name = 
REMARK  7 active torsions:
REMARK  status: ('A' for Active; 'I' for Inactive)
REMARK    1  A    between atoms: C_5  and  S_8
REMARK    2  A    between atoms: S_8  and  N_11
REMARK    3  A    between atoms: N_11  and  C_12
REMARK    4  A    between atoms: C_12  and  C_13
REMARK    5  A    between atoms: C_16  and  N_17
REMARK    6  A    between atoms: N_17  and  C_18
REMARK    7  A    between atoms: C_18  and  C_19
REMARK                            x       y       z     vdW  Elec       q    Type
REMARK                         _______ _______ _______ _____ _____    ______ ____
ROOT
ATOM     13  C   UNL     1      -3.711   1.477  24.616  0.00  0.00    +0.166 C 
ATOM     14  O   UNL     1      -4.315   1.290  25.146  0.00  0.00    -0.350 OA
ATOM     15  C   UNL     1      -4.493   0.489  25.057  0.00  0.00    +0.162 C 
ATOM     16  C   UNL     1      -3.999   0.181  24.472  0.00  0.00    +0.135 C 
ATOM     24  C   UNL     1      -3.516   0.792  24.200  0.00  0.00    +0.199 C 
ATOM     25  O   UNL     1      -2.938   0.729  23.614  0.00  0.00    -0.219 OA
ENDROOT
BRANCH  13  12
ATOM     12  C   UNL     1      -3.363   2.219  24.520  0.00  0.00    +0.148 C 
BRANCH  12  11
ATOM     11  N   UNL     1      -3.212   2.692  25.178  0.00  0.00    -0.075 NA
BRANCH  11   8
ATOM      8  S   UNL     1      -2.673   3.314  25.124  0.00  0.00    +0.077 S 
ATOM      9  O   UNL     1      -2.162   2.914  25.635  0.00  0.00    -0.152 OA
ATOM     10  O   UNL     1      -3.183   3.713  24.614  0.00  0.00    -0.152 OA
BRANCH   8   5
ATOM      1  C   UNL     1      -0.514   5.800  24.909  0.00  0.00    +0.031 C 
ATOM      2  C   UNL     1      -1.053   5.178  24.963  0.00  0.00    -0.022 A 
ATOM      3  C   UNL     1      -0.810   4.407  24.801  0.00  0.00    -0.003 A 
ATOM      4  C   UNL     1      -1.350   3.785  24.854  0.00  0.00    +0.020 A 
ATOM      5  C   UNL     1      -2.133   3.935  25.071  0.00  0.00    +0.124 A 
ATOM      6  C   UNL     1      -2.374   4.707  25.232  0.00  0.00    +0.020 A 
ATOM      7  C   UNL     1      -1.835   5.329  25.179  0.00  0.00    -0.003 A 
ENDBRANCH   8   5
ENDBRANCH  11   8
ENDBRANCH  12  11
ENDBRANCH  13  12
BRANCH  16  17
ATOM     17  N   UNL     1      -3.990  -0.599  24.206  0.00  0.00    -0.208 NA
BRANCH  17  18
ATOM     18  C   UNL     1      -4.122  -1.217  24.737  0.00  0.00    +0.136 C 
BRANCH  18  19
ATOM     19  C   UNL     1      -3.914  -1.988  24.532  0.00  0.00    +0.097 A 
ATOM     20  C   UNL     1      -4.202  -2.412  23.885  0.00  0.00    +0.117 A 
ATOM     21  N   UNL     1      -3.848  -3.157  23.890  0.00  0.00    -0.221 NA
ATOM     22  C   UNL     1      -3.341  -3.194  24.540  0.00  0.00    +0.199 A 
ATOM     23  N   UNL     1      -3.382  -2.472  24.936  0.00  0.00    -0.225 NA
ENDBRANCH  18  19
ENDBRANCH  17  18
ENDBRANCH  16  17
TORSDOF 7
ENDMDL
MODEL 4
REMARK VINA RESULT:      -8.5      2.081      6.081
REMARK  Name = 
REMARK  7 active torsions:
REMARK  status: ('A' for Active; 'I' for Inactive)
REMARK    1  A    between atoms: C_5  and  S_8
REMARK    2  A    between atoms: S_8  and  N_11
REMARK    3  A    between atoms: N_11  and  C_12
REMARK    4  A    between atoms: C_12  and  C_13
REMARK    5  A    between atoms: C_16  and  N_17
REMARK    6  A    between atoms: N_17  and  C_18
REMARK    7  A    between atoms: C_18  and  C_19
REMARK                            x       y       z     vdW  Elec       q    Type
REMARK                         _______ _______ _______ _____ _____    ______ ____
ROOT
ATOM     13  C   UNL     1      -1.313   0.682  25.175  0.00  0.00    +0.166 C 
ATOM     14  O   UNL     1      -1.165   0.237  25.854  0.00  0.00    -0.350 OA
ATOM     15  C   UNL     1      -1.483  -0.516  25.741  0.00  0.00    +0.162 C 
ATOM     16  C   UNL     1      -1.828  -0.537  24.992  0.00  0.00    +0.135 C 
ATOM     24  C   UNL     1      -1.723   0.203  24.642  0.00  0.00    +0.199 C 
ATOM     25  O   UNL     1      -1.982   0.426  23.891  0.00  0.00    -0.219 OA
ENDROOT
BRANCH  13  12
ATOM     12  C   UNL     1      -1.091   1.466  25.051  0.00  0.00    +0.148 C 
BRANCH  12  11
ATOM     11  N   UNL     1      -1.122   2.007  25.672  0.00  0.00    -0.075 NA
BRANCH  11   8
ATOM      8  S   UNL     1      -1.172   2.815  25.514  0.00  0.00    +0.077 S 
ATOM      9  O   UNL     1      -0.404   2.804  25.213  0.00  0.00    -0.152 OA
ATOM     10  O   UNL     1      -1.940   2.826  25.815  0.00  0.00    -0.152 OA
BRANCH   8   5
ATOM      1  C   UNL     1      -1.373   6.047  24.880  0.00  0.00    +0.031 C 
ATOM      2  C   UNL     1      -1.323   5.239  25.039  0.00  0.00    -0.022 A 
ATOM      3  C   UNL     1      -1.942   4.856  25.426  0.00  0.00    -0.003 A 
ATOM      4  C   UNL     1      -1.892   4.048  25.585  0.00  0.00    +0.020 A 
ATOM      5  C   UNL     1      -1.222   3.623  25.356  0.00  0.00    +0.124 A 
ATOM      6  C   UNL     1      -0.604   4.007  24.968  0.00  0.00    +0.020 A 
ATOM      7  C   UNL     1      -0.654   4.815  24.809  0.00  0.00    -0.003 A 
ENDBRANCH   8   5
ENDBRANCH  11   8
ENDBRANCH  12  11
ENDBRANCH  13  12
BRANCH  16  17
ATOM     17  N   UNL     1      -2.210  -1.184  24.652  0.00  0.00    -0.208 NA
BRANCH  17  18
ATOM     18  C   UNL     1      -2.817  -1.565  25.061  0.00  0.00    +0.136 C 
BRANCH  18  19
ATOM     19  C   UNL     1      -3.303  -2.104  24.668  0.00  0.00    +0.097 A 
ATOM     20  C   UNL     1      -3.204  -2.923  24.650  0.00  0.00    +0.117 A 
ATOM     21  N   UNL     1      -3.813  -3.244  24.196  0.00  0.00    -0.221 NA
ATOM     22  C   UNL     1      -4.289  -2.623  23.933  0.00  0.00    +0.199 A 
ATOM     23  N   UNL     1      -3.974  -1.918  24.225  0.00  0.00    -0.225 NA
ENDBRANCH  18  19
ENDBRANCH  17  18
ENDBRANCH  16  17
TORSDOF 7
ENDMDL
MODEL 5
REMARK VINA RESULT:      -6.7     14.147     16.015
REMARK  Name = 
REMARK  7 active torsions:
REMARK  status: ('A' for Active; 'I' for Inactive)
REMARK    1  A    between atoms: C_5  and  S_8
REMARK    2  A    between atoms: S_8  and  N_11
REMARK    3  A    between atoms: N_11  and  C_12
REMARK    4  A    between atoms: C_12  and  C_13
REMARK    5  A    between atoms: C_16  and  N_17
REMARK    6  A    between atoms: N_17  and  C_18
REMARK    7  A    between atoms: C_18  and  C_19
REMARK                            x       y       z     vdW  Elec       q    Type
REMARK                         _______ _______ _______ _____ _____    ______ ____
ROOT
ATOM     13  C   UNL     1      -5.731 -10.008  14.028  0.00  0.00    +0.166 C 
ATOM     14  O   UNL     1      -6.390  -9.685  13.651  0.00  0.00    -0.350 OA
ATOM     15  C   UNL     1      -6.210  -9.602  12.849  0.00  0.00    +0.162 C 
ATOM     16  C   UNL     1      -5.440  -9.874  12.731  0.00  0.00    +0.135 C 
ATOM     24  C   UNL     1      -5.144 -10.125  13.459  0.00  0.00    +0.199 C 
ATOM     25  O   UNL     1      -4.394 -10.439  13.595  0.00  0.00    -0.219 OA
ENDROOT
BRANCH  13  12
ATOM     12  C   UNL     1      -5.670 -10.184  14.831  0.00  0.00    +0.148 C 
BRANCH  12  11
ATOM     11  N   UNL     1      -6.229  -9.891  15.361  0.00  0.00    -0.075 NA
BRANCH  11   8
ATOM      8  S   UNL     1      -6.169 -10.068  16.165  0.00  0.00    +0.077 S 
ATOM      9  O   UNL     1      -5.688  -9.407  16.274  0.00  0.00    -0.152 OA
ATOM     10  O   UNL     1      -6.650 -10.729  16.055  0.00  0.00    -0.152 OA
BRANCH   8   5
ATOM      1  C   UNL     1      -5.928 -10.778  19.378  0.00  0.00    +0.031 C 
ATOM      2  C   UNL     1      -5.988 -10.600  18.575  0.00  0.00    -0.022 A 
ATOM      3  C   UNL     1      -5.314 -10.611  18.099  0.00  0.00    -0.003 A 
ATOM      4  C   UNL     1      -5.374 -10.433  17.296  0.00  0.00    +0.020 A 
ATOM      5  C   UNL     1      -6.109 -10.246  16.968  0.00  0.00    +0.124 A 
ATOM      6  C   UNL     1      -6.782 -10.236  17.445  0.00  0.00    +0.020 A 
ATOM      7  C   UNL     1      -6.722 -10.413  18.248  0.00  0.00    -0.003 A 
ENDBRANCH   8   5
ENDBRANCH  11   8
ENDBRANCH  12  11
ENDBRANCH  13  12
BRANCH  16  17
ATOM     17  N   UNL     1      -5.038  -9.892  12.012  0.00  0.00    -0.208 NA
BRANCH  17  18
ATOM     18  C   UNL     1      -5.296  -9.424  11.383  0.00  0.00    +0.136 C 
BRANCH  18  19
ATOM     19  C   UNL     1      -4.846  -9.376  10.693  0.00  0.00    +0.097 A 
ATOM     20  C   UNL     1      -4.401  -8.725  10.448  0.00  0.00    +0.117 A 
ATOM     21  N   UNL     1      -4.042  -8.917   9.731  0.00  0.00    -0.221 NA
ATOM     22  C   UNL     1      -4.264  -9.687   9.532  0.00  0.00    +0.199 A 
ATOM     23  N   UNL     1      -4.761  -9.970  10.127  0.00  0.00    -0.225 NA
ENDBRANCH  18  19
ENDBRANCH  17  18
ENDBRANCH  16  17
TORSDOF 7
ENDMDL
MODEL 6
REMARK VINA RESULT:      -6.4     17.892     18.682
REMARK  Name = 
REMARK  7 active torsions:
REMARK  status: ('A' for Active; 'I' for Inactive)
REMARK    1  A    between atoms: C_5  and  S_8
REMARK    2  A    between atoms: S_8  and  N_11
REMARK    3  A    between atoms: N_11  and  C_12
REMARK    4  A    between atoms: C_12  and  C_13
REMARK    5  A    between atoms: C_16  and  N_17
REMARK    6  A    between atoms: N_17  and  C_18
REMARK    7  A    between atoms: C_18  and  C_19
REMARK                            x       y       z     vdW  Elec       q    Type
REMARK                         _______ _______ _______ _____ _____    ______ ____
ROOT
ATOM     13  C   UNL     1      -6.317  -8.776   9.400  0.00  0.00    +0.166 C 
ATOM     14  O   UNL     1      -6.348  -8.609   8.593  0.00  0.00    -0.350 OA
ATOM     15  C   UNL     1      -7.098  -8.311   8.422  0.00  0.00    +0.162 C 
ATOM     16  C   UNL     1      -7.532  -8.294   9.124  0.00  0.00    +0.135 C 
ATOM     24  C   UNL     1      -7.049  -8.581   9.729  0.00  0.00    +0.199 C 
ATOM     25  O   UNL     1      -7.261  -8.660  10.521  0.00  0.00    -0.219 OA
ENDROOT
BRANCH  13  12
ATOM     12  C   UNL     1      -5.670  -9.084   9.808  0.00  0.00    +0.148 C 
BRANCH  12  11
ATOM     11  N   UNL     1      -4.910  -8.998   9.500  0.00  0.00    -0.075 NA
BRANCH  11   8
ATOM      8  S   UNL     1      -4.256  -9.231   9.944  0.00  0.00    +0.077 S 
ATOM      9  O   UNL     1      -4.155  -8.454  10.204  0.00  0.00    -0.152 OA
ATOM     10  O   UNL     1      -4.356 -10.008   9.685  0.00  0.00    -0.152 OA
BRANCH   8   5
ATOM      1  C   UNL     1      -1.638 -10.164  11.724  0.00  0.00    +0.031 C 
ATOM      2  C   UNL     1      -2.292  -9.931  11.279  0.00  0.00    -0.022 A 
ATOM      3  C   UNL     1      -2.213  -9.340  10.708  0.00  0.00    -0.003 A 
ATOM      4  C   UNL     1      -2.868  -9.107  10.263  0.00  0.00    +0.020 A 
ATOM      5  C   UNL     1      -3.601  -9.464  10.389  0.00  0.00    +0.124 A 
ATOM      6  C   UNL     1      -3.679 -10.054  10.960  0.00  0.00    +0.020 A 
ATOM      7  C   UNL     1      -3.025 -10.288  11.405  0.00  0.00    -0.003 A 
ENDBRANCH   8   5
ENDBRANCH  11   8
ENDBRANCH  12  11
ENDBRANCH  13  12
BRANCH  16  17
ATOM     17  N   UNL     1      -8.310  -8.034   9.207  0.00  0.00    -0.208 NA
BRANCH  17  18
ATOM     18  C   UNL     1      -8.636  -7.523   8.647  0.00  0.00    +0.136 C 
BRANCH  18  19
ATOM     19  C   UNL     1      -9.366  -7.167   8.790  0.00  0.00    +0.097 A 
ATOM     20  C   UNL     1      -9.526  -6.358   8.756  0.00  0.00    +0.117 A 
ATOM     21  N   UNL     1     -10.323  -6.247   8.937  0.00  0.00    -0.221 NA
ATOM     22  C   UNL     1     -10.656  -6.988   9.084  0.00  0.00    +0.199 A 
ATOM     23  N   UNL     1     -10.065  -7.556   8.993  0.00  0.00    -0.225 NA
ENDBRANCH  18  19
ENDBRANCH  17  18
ENDBRANCH  16  17
TORSDOF 7
ENDMDL
MODEL 7
REMARK VINA RESULT:      -5.5     17.590     19.090
REMARK  Name = 
REMARK  7 active torsions:
REMARK  status: ('A' for Active; 'I' for Inactive)
REMARK    1  A    between atoms: C_5  and  S_8
REMARK    2  A    between atoms: S_8  and  N_11
REMARK    3  A    between atoms: N_11  and  C_12
REMARK    4  A    between atoms: C_12  and  C_13
REMARK    5  A    between atoms: C_16  and  N_17
REMARK    6  A    between atoms: N_17  and  C_18
REMARK    7  A    between atoms: C_18  and  C_19
REMARK                            x       y       z     vdW  Elec       q    Type
REMARK                         _______ _______ _______ _____ _____    ______ ____
ROOT
ATOM     13  C   UNL     1      13.074   7.868  19.989  0.00  0.00    +0.166 C 
ATOM     14  O   UNL     1      12.932   7.171  20.406  0.00  0.00    -0.350 OA
ATOM     15  C   UNL     1      13.602   7.003  20.858  0.00  0.00    +0.162 C 
ATOM     16  C   UNL     1      14.158   7.597  20.720  0.00  0.00    +0.135 C 
ATOM     24  C   UNL     1      13.832   8.132  20.182  0.00  0.00    +0.199 C 
ATOM     25  O   UNL     1      14.198   8.810  19.890  0.00  0.00    -0.219 OA
ENDROOT
BRANCH  13  12
ATOM     12  C   UNL     1      12.550   8.237  19.469  0.00  0.00    +0.148 C 
BRANCH  12  11
ATOM     11  N   UNL     1      12.007   7.787  19.042  0.00  0.00    -0.075 NA
BRANCH  11   8
ATOM      8  S   UNL     1      11.743   8.048  18.306  0.00  0.00    +0.077 S 
ATOM      9  O   UNL     1      12.044   7.364  17.955  0.00  0.00    -0.152 OA
ATOM     10  O   UNL     1      11.443   8.732  18.656  0.00  0.00    -0.152 OA
BRANCH   8   5
ATOM      1  C   UNL     1      10.687   9.093  15.359  0.00  0.00    +0.031 C 
ATOM      2  C   UNL     1      10.951   8.832  16.096  0.00  0.00    -0.022 A 
ATOM      3  C   UNL     1      11.760   8.768  16.244  0.00  0.00    -0.003 A 
ATOM      4  C   UNL     1      12.024   8.506  16.981  0.00  0.00    +0.020 A 
ATOM      5  C   UNL     1      11.479   8.309  17.569  0.00  0.00    +0.124 A 
ATOM      6  C   UNL     1      10.671   8.374  17.419  0.00  0.00    +0.020 A 
ATOM      7  C   UNL     1      10.407   8.635  16.683  0.00  0.00    -0.003 A 
ENDBRANCH   8   5
ENDBRANCH  11   8
ENDBRANCH  12  11
ENDBRANCH  13  12
BRANCH  16  17
ATOM     17  N   UNL     1      14.908   7.648  21.059  0.00  0.00    -0.208 NA
BRANCH  17  18
ATOM     18  C   UNL     1      15.305   6.961  21.286  0.00  0.00    +0.136 C 
BRANCH  18  19
ATOM     19  C   UNL     1      16.128   6.927  21.243  0.00  0.00    +0.097 A 
ATOM     20  C   UNL     1      16.605   6.321  21.539  0.00  0.00    +0.117 A 
ATOM     21  N   UNL     1      17.390   6.512  21.375  0.00  0.00    -0.221 NA
ATOM     22  C   UNL     1      17.400   7.236  20.978  0.00  0.00    +0.199 A 
ATOM     23  N   UNL     1      16.619   7.492  20.896  0.00  0.00    -0.225 NA
ENDBRANCH  18  19
ENDBRANCH  17  18
ENDBRANCH  16  17
TORSDOF 7
ENDMDL
