MODEL 1
REMARK VINA RESULT:      -9.9      0.000      0.000
REMARK  Name = 
REMARK  5 active torsions:
REMARK  status: ('A' for Active; 'I' for Inactive)
REMARK    1  A    between atoms: N_2  and  C_4
REMARK    2  A    between atoms: C_7  and  C_10
REMARK    3  A    between atoms: N_15  and  C_16
REMARK    4  A    between atoms: C_20  and  N_24
REMARK    5  A    between atoms: N_27  and  C_28
REMARK                            x       y       z     vdW  Elec       q    Type
REMARK                         _______ _______ _______ _____ _____    ______ ____
ROOT
ATOM     16  C   UNL     1      -0.108   0.905  23.879  0.00  0.00    +0.154 C 
ATOM     17  C   UNL     1      -0.595   0.252  23.754  0.00  0.00    +0.166 C 
ATOM     18  O   UNL     1      -1.371   0.523  23.681  0.00  0.00    -0.350 OA
ATOM     19  C   UNL     1      -1.363   1.343  23.762  0.00  0.00    +0.166 C 
ATOM     20  C   UNL     1      -1.837   2.019  23.767  0.00  0.00    +0.156 C 
ATOM     21  C   UNL     1      -1.349   2.673  23.893  0.00  0.00    +0.166 C 
ATOM     22  O   UNL     1      -0.574   2.401  23.965  0.00  0.00    -0.350 OA
ATOM     23  C   UNL     1      -0.582   1.579  23.884  0.00  0.00    +0.166 C 
ENDROOT
BRANCH  16  15
ATOM     10  C   UNL     1       2.488   0.156  22.947  0.00  0.00    +0.086 A 
ATOM     11  C   UNL     1       2.149  -0.181  22.275  0.00  0.00    +0.040 A 
ATOM     12  C   UNL     1       1.331  -0.163  22.171  0.00  0.00    +0.103 A 
ATOM     13  N   UNL     1       0.851   0.193  22.741  0.00  0.00    -0.211 NA
ATOM     14  C   UNL     1       1.190   0.530  23.413  0.00  0.00    +0.237 A 
ATOM     15  N   UNL     1       0.711   0.886  23.982  0.00  0.00    -0.200 NA
ATOM     38  N   UNL     1       2.009   0.511  23.516  0.00  0.00    -0.212 NA
BRANCH  10   7
ATOM      4  C   UNL     1       4.943   0.097  23.256  0.00  0.00    +0.048 A 
ATOM      5  C   UNL     1       4.586   0.759  22.916  0.00  0.00    +0.015 A 
ATOM      6  C   UNL     1       3.767   0.778  22.814  0.00  0.00    +0.003 A 
ATOM      7  C   UNL     1       3.306   0.137  23.050  0.00  0.00    +0.018 A 
ATOM      8  C   UNL     1       3.664  -0.525  23.390  0.00  0.00    +0.003 A 
ATOM      9  C   UNL     1       4.482  -0.545  23.493  0.00  0.00    +0.015 A 
BRANCH   4   2
ATOM      1  C   UNL     1       6.239  -0.291  22.796  0.00  0.00    +0.112 C 
ATOM      2  N   UNL     1       5.761   0.077  23.359  0.00  0.00    -0.304 N 
ATOM      3  C   UNL     1       6.101   0.425  24.026  0.00  0.00    +0.112 C 
ENDBRANCH   4   2
ENDBRANCH  10   7
ENDBRANCH  16  15
BRANCH  20  24
ATOM     24  N   UNL     1      -2.656   2.037  23.664  0.00  0.00    -0.184 NA
ATOM     25  C   UNL     1      -3.131   2.434  24.208  0.00  0.00    +0.344 C 
ATOM     26  O   UNL     1      -2.788   2.814  24.856  0.00  0.00    -0.249 OA
ATOM     27  N   UNL     1      -3.949   2.453  24.106  0.00  0.00    -0.161 NA
BRANCH  27  28
ATOM     28  C   UNL     1      -4.425   2.850  24.651  0.00  0.00    +0.075 A 
ATOM     29  C   UNL     1      -4.253   3.630  24.856  0.00  0.00    +0.017 A 
ATOM     30  C   UNL     1      -4.729   4.027  25.401  0.00  0.00    +0.001 A 
ATOM     31  C   UNL     1      -5.376   3.644  25.740  0.00  0.00    +0.000 A 
ATOM     32  C   UNL     1      -5.547   2.865  25.535  0.00  0.00    +0.001 A 
ATOM     33  C   UNL     1      -6.195   2.481  25.874  0.00  0.00    +0.000 A 
ATOM     34  C   UNL     1      -6.366   1.701  25.668  0.00  0.00    +0.000 A 
ATOM     35  C   UNL     1      -5.890   1.304  25.123  0.00  0.00    +0.000 A 
ATOM     36  C   UNL     1      -5.244   1.687  24.784  0.00  0.00    +0.001 A 
ATOM     37  C   UNL     1      -5.071   2.467  24.989  0.00  0.00    +0.015 A 
ENDBRANCH  27  28
ENDBRANCH  20  24
TORSDOF 5
ENDMDL
MODEL 2
REMARK VINA RESULT:      -8.3      1.312      8.146
REMARK  Name = 
REMARK  5 active torsions:
REMARK  status: ('A' for Active; 'I' for Inactive)
REMARK    1  A    between atoms: N_2  and  C_4
REMARK    2  A    between atoms: C_7  and  C_10
REMARK    3  A    between atoms: N_15  and  C_16
REMARK    4  A    between atoms: C_20  and  N_24
REMARK    5  A    between atoms: N_27  and  C_28
REMARK                            x       y       z     vdW  Elec       q    Type
REMARK                         _______ _______ _______ _____ _____    ______ ____
ROOT
ATOM     16  C   UNL     1      -0.916   0.278  24.522  0.00  0.00    +0.154 C 
ATOM     17  C   UNL     1      -0.802  -0.539  24.521  0.00  0.00    +0.166 C 
ATOM     18  O   UNL     1      -0.096  -0.698  24.123  0.00  0.00    -0.350 OA
ATOM     19  C   UNL     1       0.224   0.021  23.878  0.00  0.00    +0.166 C 
ATOM     20  C   UNL     1       0.859   0.368  23.481  0.00  0.00    +0.156 C 
ATOM     21  C   UNL     1       0.745   1.186  23.481  0.00  0.00    +0.166 C 
ATOM     22  O   UNL     1       0.039   1.344  23.879  0.00  0.00    -0.350 OA
ATOM     23  C   UNL     1      -0.282   0.624  24.125  0.00  0.00    +0.166 C 
ENDROOT
BRANCH  16  15
ATOM     10  C   UNL     1      -3.704   0.903  24.569  0.00  0.00    +0.086 A 
ATOM     11  C   UNL     1      -3.825   0.417  23.914  0.00  0.00    +0.040 A 
ATOM     12  C   UNL     1      -3.188   0.017  23.574  0.00  0.00    +0.103 A 
ATOM     13  N   UNL     1      -2.430   0.104  23.890  0.00  0.00    -0.211 NA
ATOM     14  C   UNL     1      -2.310   0.590  24.545  0.00  0.00    +0.237 A 
ATOM     15  N   UNL     1      -1.553   0.677  24.861  0.00  0.00    -0.200 NA
ATOM     38  N   UNL     1      -2.948   0.990  24.884  0.00  0.00    -0.212 NA
BRANCH  10   7
ATOM      4  C   UNL     1      -5.616   2.103  25.586  0.00  0.00    +0.048 A 
ATOM      5  C   UNL     1      -5.604   1.278  25.577  0.00  0.00    +0.015 A 
ATOM      6  C   UNL     1      -4.967   0.878  25.238  0.00  0.00    +0.003 A 
ATOM      7  C   UNL     1      -4.342   1.303  24.908  0.00  0.00    +0.018 A 
ATOM      8  C   UNL     1      -4.353   2.128  24.917  0.00  0.00    +0.003 A 
ATOM      9  C   UNL     1      -4.990   2.528  25.256  0.00  0.00    +0.015 A 
BRANCH   4   2
ATOM      1  C   UNL     1      -6.425   3.276  25.692  0.00  0.00    +0.112 C 
ATOM      2  N   UNL     1      -6.252   2.503  25.924  0.00  0.00    -0.304 N 
ATOM      3  C   UNL     1      -6.717   2.130  26.496  0.00  0.00    +0.112 C 
ENDBRANCH   4   2
ENDBRANCH  10   7
ENDBRANCH  16  15
BRANCH  20  24
ATOM     24  N   UNL     1       1.496  -0.032  23.141  0.00  0.00    -0.184 NA
ATOM     25  C   UNL     1       2.256   0.282  23.196  0.00  0.00    +0.344 C 
ATOM     26  O   UNL     1       2.381   0.997  23.589  0.00  0.00    -0.249 OA
ATOM     27  N   UNL     1       2.894  -0.118  22.857  0.00  0.00    -0.161 NA
BRANCH  27  28
ATOM     28  C   UNL     1       3.654   0.197  22.912  0.00  0.00    +0.075 A 
ATOM     29  C   UNL     1       3.813   0.947  22.610  0.00  0.00    +0.017 A 
ATOM     30  C   UNL     1       4.574   1.262  22.664  0.00  0.00    +0.001 A 
ATOM     31  C   UNL     1       5.176   0.825  23.020  0.00  0.00    +0.000 A 
ATOM     32  C   UNL     1       5.018   0.075  23.322  0.00  0.00    +0.001 A 
ATOM     33  C   UNL     1       5.620  -0.363  23.679  0.00  0.00    +0.000 A 
ATOM     34  C   UNL     1       5.462  -1.114  23.980  0.00  0.00    +0.000 A 
ATOM     35  C   UNL     1       4.700  -1.428  23.926  0.00  0.00    +0.000 A 
ATOM     36  C   UNL     1       4.098  -0.992  23.570  0.00  0.00    +0.001 A 
ATOM     37  C   UNL     1       4.256  -0.240  23.268  0.00  0.00    +0.015 A 
ENDBRANCH  27  28
ENDBRANCH  20  24
TORSDOF 5
ENDMDL
