MODEL 1
REMARK VINA RESULT:      -9.4      0.000      0.000
REMARK  Name = 
REMARK  7 active torsions:
REMARK  status: ('A' for Active; 'I' for Inactive)
REMARK    1  A    between atoms: C_3  and  C_4
REMARK    2  A    between atoms: C_4  and  N_5
REMARK    3  A    between atoms: N_5  and  S_6
REMARK    4  A    between atoms: S_6  and  C_9
REMARK    5  A    between atoms: C_17  and  N_18
REMARK    6  A    between atoms: N_18  and  C_19
REMARK    7  A    between atoms: C_19  and  C_20
REMARK                            x       y       z     vdW  Elec       q    Type
REMARK                         _______ _______ _______ _____ _____    ______ ____
ROOT
ATOM      1  O   UNL     1      -2.795   0.925  23.642  0.00  0.00    -0.219 OA
ATOM      2  C   UNL     1      -3.387   1.006  24.210  0.00  0.00    +0.199 C 
ATOM      3  C   UNL     1      -3.571   1.696  24.623  0.00  0.00    +0.166 C 
ATOM     15  O   UNL     1      -4.196   1.528  25.133  0.00  0.00    -0.350 OA
ATOM     16  C   UNL     1      -4.398   0.735  25.037  0.00  0.00    +0.162 C 
ATOM     17  C   UNL     1      -3.898   0.412  24.466  0.00  0.00    +0.135 C 
ENDROOT
BRANCH   3   4
ATOM      4  C   UNL     1      -3.196   2.426  24.540  0.00  0.00    +0.148 C 
BRANCH   4   5
ATOM      5  N   UNL     1      -3.010   2.873  25.207  0.00  0.00    -0.075 NA
BRANCH   5   6
ATOM      6  S   UNL     1      -2.479   3.502  25.149  0.00  0.00    +0.077 S 
ATOM      7  O   UNL     1      -2.987   3.883  24.622  0.00  0.00    -0.152 OA
ATOM      8  O   UNL     1      -1.970   3.121  25.675  0.00  0.00    -0.152 OA
BRANCH   6   9
ATOM      9  C   UNL     1      -1.948   4.130  25.090  0.00  0.00    +0.124 A 
ATOM     10  C   UNL     1      -2.205   4.902  25.226  0.00  0.00    +0.020 A 
ATOM     11  C   UNL     1      -1.674   5.530  25.167  0.00  0.00    +0.001 A 
ATOM     12  C   UNL     1      -0.885   5.387  24.971  0.00  0.00    +0.000 A 
ATOM     13  C   UNL     1      -0.628   4.615  24.835  0.00  0.00    +0.001 A 
ATOM     14  C   UNL     1      -1.159   3.986  24.894  0.00  0.00    +0.020 A 
ENDBRANCH   6   9
ENDBRANCH   5   6
ENDBRANCH   4   5
ENDBRANCH   3   4
BRANCH  17  18
ATOM     18  N   UNL     1      -3.908  -0.368  24.198  0.00  0.00    -0.209 NA
BRANCH  18  19
ATOM     19  C   UNL     1      -4.061  -0.984  24.726  0.00  0.00    +0.122 C 
BRANCH  19  20
ATOM     20  C   UNL     1      -3.909  -1.764  24.505  0.00  0.00    +0.025 A 
ATOM     21  C   UNL     1      -4.237  -2.157  23.858  0.00  0.00    +0.004 A 
ATOM     22  C   UNL     1      -3.933  -2.925  23.845  0.00  0.00    +0.007 A 
ATOM     23  C   UNL     1      -3.417  -3.006  24.484  0.00  0.00    +0.035 A 
ATOM     24  S   UNL     1      -3.403  -2.289  24.892  0.00  0.00    -0.089 S 
ENDBRANCH  19  20
ENDBRANCH  18  19
ENDBRANCH  17  18
TORSDOF 7
ENDMDL
MODEL 2
REMARK VINA RESULT:      -9.3      0.982      5.698
REMARK  Name = 
REMARK  7 active torsions:
REMARK  status: ('A' for Active; 'I' for Inactive)
REMARK    1  A    between atoms: C_3  and  C_4
REMARK    2  A    between atoms: C_4  and  N_5
REMARK    3  A    between atoms: N_5  and  S_6
REMARK    4  A    between atoms: S_6  and  C_9
REMARK    5  A    between atoms: C_17  and  N_18
REMARK    6  A    between atoms: N_18  and  C_19
REMARK    7  A    between atoms: C_19  and  C_20
REMARK                            x       y       z     vdW  Elec       q    Type
REMARK                         _______ _______ _______ _____ _____    ______ ____
ROOT
ATOM      1  O   UNL     1      -2.408   1.769  23.742  0.00  0.00    -0.219 OA
ATOM      2  C   UNL     1      -3.009   1.962  24.274  0.00  0.00    +0.199 C 
ATOM      3  C   UNL     1      -3.614   1.461  24.524  0.00  0.00    +0.166 C 
ATOM     15  O   UNL     1      -4.088   1.879  25.054  0.00  0.00    -0.350 OA
ATOM     16  C   UNL     1      -3.775   2.637  25.132  0.00  0.00    +0.162 C 
ATOM     17  C   UNL     1      -3.108   2.689  24.650  0.00  0.00    +0.135 C 
ENDROOT
BRANCH   3   4
ATOM      4  C   UNL     1      -3.727   0.679  24.286  0.00  0.00    +0.148 C 
BRANCH   4   5
ATOM      5  N   UNL     1      -4.093   0.141  24.794  0.00  0.00    -0.075 NA
BRANCH   5   6
ATOM      6  S   UNL     1      -3.993  -0.670  24.677  0.00  0.00    +0.077 S 
ATOM      7  O   UNL     1      -3.719  -0.747  25.452  0.00  0.00    -0.152 OA
ATOM      8  O   UNL     1      -4.267  -0.592  23.902  0.00  0.00    -0.152 OA
BRANCH   6   9
ATOM      9  C   UNL     1      -3.894  -1.480  24.561  0.00  0.00    +0.124 A 
ATOM     10  C   UNL     1      -4.258  -1.853  23.922  0.00  0.00    +0.020 A 
ATOM     11  C   UNL     1      -4.158  -2.663  23.806  0.00  0.00    +0.001 A 
ATOM     12  C   UNL     1      -3.694  -3.102  24.329  0.00  0.00    +0.000 A 
ATOM     13  C   UNL     1      -3.330  -2.728  24.968  0.00  0.00    +0.001 A 
ATOM     14  C   UNL     1      -3.430  -1.917  25.084  0.00  0.00    +0.020 A 
ENDBRANCH   6   9
ENDBRANCH   5   6
ENDBRANCH   4   5
ENDBRANCH   3   4
BRANCH  17  18
ATOM     18  N   UNL     1      -2.625   3.352  24.560  0.00  0.00    -0.209 NA
BRANCH  18  19
ATOM     19  C   UNL     1      -2.306   3.724  25.223  0.00  0.00    +0.122 C 
BRANCH  19  20
ATOM     20  C   UNL     1      -1.777   4.350  25.131  0.00  0.00    +0.025 A 
ATOM     21  C   UNL     1      -1.970   5.152  25.134  0.00  0.00    +0.004 A 
ATOM     22  C   UNL     1      -1.274   5.582  25.025  0.00  0.00    +0.007 A 
ATOM     23  C   UNL     1      -0.651   5.045  24.954  0.00  0.00    +0.035 A 
ATOM     24  S   UNL     1      -0.962   4.284  25.020  0.00  0.00    -0.089 S 
ENDBRANCH  19  20
ENDBRANCH  18  19
ENDBRANCH  17  18
TORSDOF 7
ENDMDL
MODEL 3
REMARK VINA RESULT:      -7.6      3.296      4.465
REMARK  Name = 
REMARK  7 active torsions:
REMARK  status: ('A' for Active; 'I' for Inactive)
REMARK    1  A    between atoms: C_3  and  C_4
REMARK    2  A    between atoms: C_4  and  N_5
REMARK    3  A    between atoms: N_5  and  S_6
REMARK    4  A    between atoms: S_6  and  C_9
REMARK    5  A    between atoms: C_17  and  N_18
REMARK    6  A    between atoms: N_18  and  C_19
REMARK    7  A    between atoms: C_19  and  C_20
REMARK                            x       y       z     vdW  Elec       q    Type
REMARK                         _______ _______ _______ _____ _____    ______ ____
ROOT
ATOM      1  O   UNL     1      -0.770   2.048  23.912  0.00  0.00    -0.219 OA
ATOM      2  C   UNL     1      -0.942   1.246  24.001  0.00  0.00    +0.199 C 
ATOM      3  C   UNL     1      -1.655   0.931  24.272  0.00  0.00    +0.166 C 
ATOM     15  O   UNL     1      -1.585   0.110  24.273  0.00  0.00    -0.350 OA
ATOM     16  C   UNL     1      -0.831  -0.083  24.003  0.00  0.00    +0.162 C 
ATOM     17  C   UNL     1      -0.433   0.619  23.835  0.00  0.00    +0.135 C 
ENDROOT
BRANCH   3   4
ATOM      4  C   UNL     1      -2.320   1.362  24.502  0.00  0.00    +0.148 C 
BRANCH   4   5
ATOM      5  N   UNL     1      -3.073   1.042  24.402  0.00  0.00    -0.075 NA
BRANCH   5   6
ATOM      6  S   UNL     1      -3.737   1.462  24.658  0.00  0.00    +0.077 S 
ATOM      7  O   UNL     1      -3.652   1.136  25.411  0.00  0.00    -0.152 OA
ATOM      8  O   UNL     1      -3.822   1.787  23.904  0.00  0.00    -0.152 OA
BRANCH   6   9
ATOM      9  C   UNL     1      -4.399   1.880  24.914  0.00  0.00    +0.124 A 
ATOM     10  C   UNL     1      -4.335   2.680  25.104  0.00  0.00    +0.020 A 
ATOM     11  C   UNL     1      -4.997   3.099  25.360  0.00  0.00    +0.001 A 
ATOM     12  C   UNL     1      -5.727   2.718  25.426  0.00  0.00    +0.000 A 
ATOM     13  C   UNL     1      -5.792   1.917  25.235  0.00  0.00    +0.001 A 
ATOM     14  C   UNL     1      -5.128   1.499  24.979  0.00  0.00    +0.020 A 
ENDBRANCH   6   9
ENDBRANCH   5   6
ENDBRANCH   4   5
ENDBRANCH   3   4
BRANCH  17  18
ATOM     18  N   UNL     1       0.339   0.683  23.550  0.00  0.00    -0.209 NA
BRANCH  18  19
ATOM     19  C   UNL     1       0.745   0.009  23.303  0.00  0.00    +0.122 C 
BRANCH  19  20
ATOM     20  C   UNL     1       1.489   0.080  22.953  0.00  0.00    +0.025 A 
ATOM     21  C   UNL     1       2.141   0.469  23.274  0.00  0.00    +0.004 A 
ATOM     22  C   UNL     1       2.766   0.405  22.739  0.00  0.00    +0.007 A 
ATOM     23  C   UNL     1       2.499  -0.025  22.087  0.00  0.00    +0.035 A 
ATOM     24  S   UNL     1       1.710  -0.225  22.219  0.00  0.00    -0.089 S 
ENDBRANCH  19  20
ENDBRANCH  18  19
ENDBRANCH  17  18
TORSDOF 7
ENDMDL
MODEL 4
REMARK VINA RESULT:      -6.1     14.358     16.389
REMARK  Name = 
REMARK  7 active torsions:
REMARK  status: ('A' for Active; 'I' for Inactive)
REMARK    1  A    between atoms: C_3  and  C_4
REMARK    2  A    between atoms: C_4  and  N_5
REMARK    3  A    between atoms: N_5  and  S_6
REMARK    4  A    between atoms: S_6  and  C_9
REMARK    5  A    between atoms: C_17  and  N_18
REMARK    6  A    between atoms: N_18  and  C_19
REMARK    7  A    between atoms: C_19  and  C_20
REMARK                            x       y       z     vdW  Elec       q    Type
REMARK                         _______ _______ _______ _____ _____    ______ ____
ROOT
ATOM      1  O   UNL     1      -4.074 -10.658  13.688  0.00  0.00    -0.219 OA
ATOM      2  C   UNL     1      -4.800 -10.297  13.539  0.00  0.00    +0.199 C 
ATOM      3  C   UNL     1      -5.379 -10.122  14.100  0.00  0.00    +0.166 C 
ATOM     15  O   UNL     1      -6.012  -9.764  13.710  0.00  0.00    -0.350 OA
ATOM     16  C   UNL     1      -5.825  -9.718  12.909  0.00  0.00    +0.162 C 
ATOM     17  C   UNL     1      -5.076 -10.047  12.803  0.00  0.00    +0.135 C 
ENDROOT
BRANCH   3   4
ATOM      4  C   UNL     1      -5.333 -10.277  14.909  0.00  0.00    +0.148 C 
BRANCH   4   5
ATOM      5  N   UNL     1      -5.890  -9.954  15.424  0.00  0.00    -0.075 NA
BRANCH   5   6
ATOM      6  S   UNL     1      -5.849 -10.116  16.232  0.00  0.00    +0.077 S 
ATOM      7  O   UNL     1      -5.368  -9.454  16.340  0.00  0.00    -0.152 OA
ATOM      8  O   UNL     1      -6.329 -10.778  16.124  0.00  0.00    -0.152 OA
BRANCH   6   9
ATOM      9  C   UNL     1      -5.807 -10.277  17.039  0.00  0.00    +0.124 A 
ATOM     10  C   UNL     1      -6.481 -10.208  17.510  0.00  0.00    +0.020 A 
ATOM     11  C   UNL     1      -6.440 -10.370  18.317  0.00  0.00    +0.001 A 
ATOM     12  C   UNL     1      -5.723 -10.601  18.656  0.00  0.00    +0.000 A 
ATOM     13  C   UNL     1      -5.049 -10.670  18.185  0.00  0.00    +0.001 A 
ATOM     14  C   UNL     1      -5.091 -10.509  17.377  0.00  0.00    +0.020 A 
ENDBRANCH   6   9
ENDBRANCH   5   6
ENDBRANCH   4   5
ENDBRANCH   3   4
BRANCH  17  18
ATOM     18  N   UNL     1      -4.673 -10.115  12.086  0.00  0.00    -0.209 NA
BRANCH  18  19
ATOM     19  C   UNL     1      -4.896  -9.649  11.442  0.00  0.00    +0.122 C 
BRANCH  19  20
ATOM     20  C   UNL     1      -4.479  -9.701  10.731  0.00  0.00    +0.025 A 
ATOM     21  C   UNL     1      -3.895  -9.179  10.473  0.00  0.00    +0.004 A 
ATOM     22  C   UNL     1      -3.628  -9.440   9.737  0.00  0.00    +0.007 A 
ATOM     23  C   UNL     1      -4.048 -10.123   9.540  0.00  0.00    +0.035 A 
ATOM     24  S   UNL     1      -4.574 -10.284  10.155  0.00  0.00    -0.089 S 
ENDBRANCH  19  20
ENDBRANCH  18  19
ENDBRANCH  17  18
TORSDOF 7
ENDMDL
MODEL 5
REMARK VINA RESULT:      -6.1     17.869     19.643
REMARK  Name = 
REMARK  7 active torsions:
REMARK  status: ('A' for Active; 'I' for Inactive)
REMARK    1  A    between atoms: C_3  and  C_4
REMARK    2  A    between atoms: C_4  and  N_5
REMARK    3  A    between atoms: N_5  and  S_6
REMARK    4  A    between atoms: S_6  and  C_9
REMARK    5  A    between atoms: C_17  and  N_18
REMARK    6  A    between atoms: N_18  and  C_19
REMARK    7  A    between atoms: C_19  and  C_20
REMARK                            x       y       z     vdW  Elec       q    Type
REMARK                         _______ _______ _______ _____ _____    ______ ____
ROOT
ATOM      1  O   UNL     1      13.202   6.926  18.346  0.00  0.00    -0.219 OA
ATOM      2  C   UNL     1      13.634   7.573  18.070  0.00  0.00    +0.199 C 
ATOM      3  C   UNL     1      14.398   7.779  18.299  0.00  0.00    +0.166 C 
ATOM     15  O   UNL     1      14.613   8.460  17.887  0.00  0.00    -0.350 OA
ATOM     16  C   UNL     1      13.982   8.675  17.403  0.00  0.00    +0.162 C 
ATOM     17  C   UNL     1      13.376   8.127  17.516  0.00  0.00    +0.135 C 
ENDROOT
BRANCH   3   4
ATOM      4  C   UNL     1      14.866   7.375  18.846  0.00  0.00    +0.148 C 
BRANCH   4   5
ATOM      5  N   UNL     1      15.451   7.778  19.266  0.00  0.00    -0.075 NA
BRANCH   5   6
ATOM      6  S   UNL     1      15.839   7.406  19.893  0.00  0.00    +0.077 S 
ATOM      7  O   UNL     1      16.120   6.828  19.375  0.00  0.00    -0.152 OA
ATOM      8  O   UNL     1      15.558   7.985  20.410  0.00  0.00    -0.152 OA
BRANCH   6   9
ATOM      9  C   UNL     1      16.227   7.035  20.518  0.00  0.00    +0.124 A 
ATOM     10  C   UNL     1      15.826   6.888  21.224  0.00  0.00    +0.020 A 
ATOM     11  C   UNL     1      16.214   6.516  21.849  0.00  0.00    +0.001 A 
ATOM     12  C   UNL     1      17.004   6.291  21.770  0.00  0.00    +0.000 A 
ATOM     13  C   UNL     1      17.405   6.438  21.064  0.00  0.00    +0.001 A 
ATOM     14  C   UNL     1      17.017   6.810  20.438  0.00  0.00    +0.020 A 
ENDBRANCH   6   9
ENDBRANCH   5   6
ENDBRANCH   4   5
ENDBRANCH   3   4
BRANCH  17  18
ATOM     18  N   UNL     1      12.642   8.131  17.140  0.00  0.00    -0.209 NA
BRANCH  18  19
ATOM     19  C   UNL     1      12.194   8.824  17.118  0.00  0.00    +0.122 C 
BRANCH  19  20
ATOM     20  C   UNL     1      11.500   8.853  16.671  0.00  0.00    +0.025 A 
ATOM     21  C   UNL     1      10.746   8.647  16.933  0.00  0.00    +0.004 A 
ATOM     22  C   UNL     1      10.219   8.760  16.308  0.00  0.00    +0.007 A 
ATOM     23  C   UNL     1      10.648   9.035  15.659  0.00  0.00    +0.035 A 
ATOM     24  S   UNL     1      11.440   9.092  15.883  0.00  0.00    -0.089 S 
ENDBRANCH  19  20
ENDBRANCH  18  19
ENDBRANCH  17  18
TORSDOF 7
ENDMDL
MODEL 6
REMARK VINA RESULT:      -6.1     14.326     15.068
REMARK  Name = 
REMARK  7 active torsions:
REMARK  status: ('A' for Active; 'I' for Inactive)
REMARK    1  A    between atoms: C_3  and  C_4
REMARK    2  A    between atoms: C_4  and  N_5
REMARK    3  A    between atoms: N_5  and  S_6
REMARK    4  A    between atoms: S_6  and  C_9
REMARK    5  A    between atoms: C_17  and  N_18
REMARK    6  A    between atoms: N_18  and  C_19
REMARK    7  A    between atoms: C_19  and  C_20
REMARK                            x       y       z     vdW  Elec       q    Type
REMARK                         _______ _______ _______ _____ _____    ______ ____
ROOT
ATOM      1  O   UNL     1      -5.308 -10.128  15.373  0.00  0.00    -0.219 OA
ATOM      2  C   UNL     1      -5.109 -10.333  16.147  0.00  0.00    +0.199 C 
ATOM      3  C   UNL     1      -5.621 -10.340  16.794  0.00  0.00    +0.166 C 
ATOM     15  O   UNL     1      -5.191 -10.578  17.456  0.00  0.00    -0.350 OA
ATOM     16  C   UNL     1      -4.415 -10.719  17.219  0.00  0.00    +0.162 C 
ATOM     17  C   UNL     1      -4.363 -10.568  16.410  0.00  0.00    +0.135 C 
ENDROOT
BRANCH   3   4
ATOM      4  C   UNL     1      -6.422 -10.142  16.780  0.00  0.00    +0.148 C 
BRANCH   4   5
ATOM      5  N   UNL     1      -6.863 -10.159  17.477  0.00  0.00    -0.075 NA
BRANCH   5   6
ATOM      6  S   UNL     1      -7.638  -9.875  17.482  0.00  0.00    +0.077 S 
ATOM      7  O   UNL     1      -7.891 -10.559  17.096  0.00  0.00    -0.152 OA
ATOM      8  O   UNL     1      -7.384  -9.191  17.868  0.00  0.00    -0.152 OA
BRANCH   6   9
ATOM      9  C   UNL     1      -8.412  -9.591  17.488  0.00  0.00    +0.124 A 
ATOM     10  C   UNL     1      -9.001 -10.006  17.889  0.00  0.00    +0.020 A 
ATOM     11  C   UNL     1      -9.775  -9.723  17.894  0.00  0.00    +0.001 A 
ATOM     12  C   UNL     1      -9.961  -9.023  17.498  0.00  0.00    +0.000 A 
ATOM     13  C   UNL     1      -9.372  -8.608  17.096  0.00  0.00    +0.001 A 
ATOM     14  C   UNL     1      -8.597  -8.892  17.091  0.00  0.00    +0.020 A 
ENDBRANCH   6   9
ENDBRANCH   5   6
ENDBRANCH   4   5
ENDBRANCH   3   4
BRANCH  17  18
ATOM     18  N   UNL     1      -3.685 -10.639  15.945  0.00  0.00    -0.209 NA
BRANCH  18  19
ATOM     19  C   UNL     1      -2.942 -10.504  16.276  0.00  0.00    +0.122 C 
BRANCH  19  20
ATOM     20  C   UNL     1      -2.265 -10.561  15.808  0.00  0.00    +0.025 A 
ATOM     21  C   UNL     1      -2.222 -10.414  14.998  0.00  0.00    +0.004 A 
ATOM     22  C   UNL     1      -1.442 -10.537  14.756  0.00  0.00    +0.007 A 
ATOM     23  C   UNL     1      -1.003 -10.761  15.419  0.00  0.00    +0.035 A 
ATOM     24  S   UNL     1      -1.512 -10.776  16.068  0.00  0.00    -0.089 S 
ENDBRANCH  19  20
ENDBRANCH  18  19
ENDBRANCH  17  18
TORSDOF 7
ENDMDL
MODEL 7
REMARK VINA RESULT:      -5.9     17.670     18.718
REMARK  Name = 
REMARK  7 active torsions:
REMARK  status: ('A' for Active; 'I' for Inactive)
REMARK    1  A    between atoms: C_3  and  C_4
REMARK    2  A    between atoms: C_4  and  N_5
REMARK    3  A    between atoms: N_5  and  S_6
REMARK    4  A    between atoms: S_6  and  C_9
REMARK    5  A    between atoms: C_17  and  N_18
REMARK    6  A    between atoms: N_18  and  C_19
REMARK    7  A    between atoms: C_19  and  C_20
REMARK                            x       y       z     vdW  Elec       q    Type
REMARK                         _______ _______ _______ _____ _____    ______ ____
ROOT
ATOM      1  O   UNL     1      -5.321  -8.063  10.912  0.00  0.00    -0.219 OA
ATOM      2  C   UNL     1      -5.195  -8.481  10.212  0.00  0.00    +0.199 C 
ATOM      3  C   UNL     1      -5.692  -8.486   9.553  0.00  0.00    +0.166 C 
ATOM     15  O   UNL     1      -5.353  -8.975   8.982  0.00  0.00    -0.350 OA
ATOM     16  C   UNL     1      -4.648  -9.272   9.287  0.00  0.00    +0.162 C 
ATOM     17  C   UNL     1      -4.550  -8.967  10.047  0.00  0.00    +0.135 C 
ENDROOT
BRANCH   3   4
ATOM      4  C   UNL     1      -6.403  -8.073   9.479  0.00  0.00    +0.148 C 
BRANCH   4   5
ATOM      5  N   UNL     1      -6.910  -8.236   8.850  0.00  0.00    -0.075 NA
BRANCH   5   6
ATOM      6  S   UNL     1      -7.588  -7.779   8.737  0.00  0.00    +0.077 S 
ATOM      7  O   UNL     1      -7.963  -8.184   9.351  0.00  0.00    -0.152 OA
ATOM      8  O   UNL     1      -7.213  -7.374   8.124  0.00  0.00    -0.152 OA
BRANCH   6   9
ATOM      9  C   UNL     1      -8.266  -7.323   8.625  0.00  0.00    +0.124 A 
ATOM     10  C   UNL     1      -8.205  -6.564   8.306  0.00  0.00    +0.020 A 
ATOM     11  C   UNL     1      -8.882  -6.108   8.194  0.00  0.00    +0.001 A 
ATOM     12  C   UNL     1      -9.622  -6.409   8.402  0.00  0.00    +0.000 A 
ATOM     13  C   UNL     1      -9.683  -7.168   8.721  0.00  0.00    +0.001 A 
ATOM     14  C   UNL     1      -9.005  -7.624   8.833  0.00  0.00    +0.020 A 
ENDBRANCH   6   9
ENDBRANCH   5   6
ENDBRANCH   4   5
ENDBRANCH   3   4
BRANCH  17  18
ATOM     18  N   UNL     1      -3.917  -9.121  10.554  0.00  0.00    -0.209 NA
BRANCH  18  19
ATOM     19  C   UNL     1      -3.358  -9.694  10.354  0.00  0.00    +0.122 C 
BRANCH  19  20
ATOM     20  C   UNL     1      -2.732  -9.858  10.867  0.00  0.00    +0.025 A 
ATOM     21  C   UNL     1      -2.022  -9.441  10.913  0.00  0.00    +0.004 A 
ATOM     22  C   UNL     1      -1.558  -9.792  11.498  0.00  0.00    +0.007 A 
ATOM     23  C   UNL     1      -1.982 -10.426  11.813  0.00  0.00    +0.035 A 
ATOM     24  S   UNL     1      -2.708 -10.467  11.423  0.00  0.00    -0.089 S 
ENDBRANCH  19  20
ENDBRANCH  18  19
ENDBRANCH  17  18
TORSDOF 7
ENDMDL
MODEL 8
REMARK VINA RESULT:      -5.9     14.861     16.728
REMARK  Name = 
REMARK  7 active torsions:
REMARK  status: ('A' for Active; 'I' for Inactive)
REMARK    1  A    between atoms: C_3  and  C_4
REMARK    2  A    between atoms: C_4  and  N_5
REMARK    3  A    between atoms: N_5  and  S_6
REMARK    4  A    between atoms: S_6  and  C_9
REMARK    5  A    between atoms: C_17  and  N_18
REMARK    6  A    between atoms: N_18  and  C_19
REMARK    7  A    between atoms: C_19  and  C_20
REMARK                            x       y       z     vdW  Elec       q    Type
REMARK                         _______ _______ _______ _____ _____    ______ ____
ROOT
ATOM      1  O   UNL     1      -4.159 -10.494  14.102  0.00  0.00    -0.219 OA
ATOM      2  C   UNL     1      -4.956 -10.286  14.054  0.00  0.00    +0.199 C 
ATOM      3  C   UNL     1      -5.361 -10.072  13.369  0.00  0.00    +0.166 C 
ATOM     15  O   UNL     1      -6.143  -9.910  13.574  0.00  0.00    -0.350 OA
ATOM     16  C   UNL     1      -6.221 -10.024  14.387  0.00  0.00    +0.162 C 
ATOM     17  C   UNL     1      -5.488 -10.257  14.684  0.00  0.00    +0.135 C 
ENDROOT
BRANCH   3   4
ATOM      4  C   UNL     1      -5.040 -10.027  12.610  0.00  0.00    +0.148 C 
BRANCH   4   5
ATOM      5  N   UNL     1      -5.464  -9.663  12.003  0.00  0.00    -0.075 NA
BRANCH   5   6
ATOM      6  S   UNL     1      -5.095  -9.497  11.284  0.00  0.00    +0.077 S 
ATOM      7  O   UNL     1      -5.001 -10.305  11.145  0.00  0.00    -0.152 OA
ATOM      8  O   UNL     1      -5.189  -8.689  11.423  0.00  0.00    -0.152 OA
BRANCH   6   9
ATOM      9  C   UNL     1      -4.727  -9.331  10.565  0.00  0.00    +0.124 A 
ATOM     10  C   UNL     1      -3.903  -9.343  10.511  0.00  0.00    +0.020 A 
ATOM     11  C   UNL     1      -3.535  -9.177   9.792  0.00  0.00    +0.001 A 
ATOM     12  C   UNL     1      -3.989  -8.998   9.126  0.00  0.00    +0.000 A 
ATOM     13  C   UNL     1      -4.812  -8.986   9.181  0.00  0.00    +0.001 A 
ATOM     14  C   UNL     1      -5.181  -9.153   9.900  0.00  0.00    +0.020 A 
ENDBRANCH   6   9
ENDBRANCH   5   6
ENDBRANCH   4   5
ENDBRANCH   3   4
BRANCH  17  18
ATOM     18  N   UNL     1      -5.317 -10.430  15.472  0.00  0.00    -0.209 NA
BRANCH  18  19
ATOM     19  C   UNL     1      -5.815 -10.160  16.071  0.00  0.00    +0.122 C 
BRANCH  19  20
ATOM     20  C   UNL     1      -5.674 -10.377  16.855  0.00  0.00    +0.025 A 
ATOM     21  C   UNL     1      -4.938 -10.391  17.229  0.00  0.00    +0.004 A 
ATOM     22  C   UNL     1      -5.052 -10.641  18.007  0.00  0.00    +0.007 A 
ATOM     23  C   UNL     1      -5.859 -10.781  18.114  0.00  0.00    +0.035 A 
ATOM     24  S   UNL     1      -6.242 -10.618  17.402  0.00  0.00    -0.089 S 
ENDBRANCH  19  20
ENDBRANCH  18  19
ENDBRANCH  17  18
TORSDOF 7
ENDMDL
MODEL 9
REMARK VINA RESULT:      -5.8     17.873     18.817
REMARK  Name = 
REMARK  7 active torsions:
REMARK  status: ('A' for Active; 'I' for Inactive)
REMARK    1  A    between atoms: C_3  and  C_4
REMARK    2  A    between atoms: C_4  and  N_5
REMARK    3  A    between atoms: N_5  and  S_6
REMARK    4  A    between atoms: S_6  and  C_9
REMARK    5  A    between atoms: C_17  and  N_18
REMARK    6  A    between atoms: N_18  and  C_19
REMARK    7  A    between atoms: C_19  and  C_20
REMARK                            x       y       z     vdW  Elec       q    Type
REMARK                         _______ _______ _______ _____ _____    ______ ____
ROOT
ATOM      1  O   UNL     1      -6.378  -8.346  10.582  0.00  0.00    -0.219 OA
ATOM      2  C   UNL     1      -6.164  -8.554   9.813  0.00  0.00    +0.199 C 
ATOM      3  C   UNL     1      -5.455  -8.909   9.586  0.00  0.00    +0.166 C 
ATOM     15  O   UNL     1      -5.475  -9.018   8.769  0.00  0.00    -0.350 OA
ATOM     16  C   UNL     1      -6.196  -8.732   8.491  0.00  0.00    +0.162 C 
ATOM     17  C   UNL     1      -6.622  -8.445   9.136  0.00  0.00    +0.135 C 
ENDROOT
BRANCH   3   4
ATOM      4  C   UNL     1      -4.835  -9.117  10.089  0.00  0.00    +0.148 C 
BRANCH   4   5
ATOM      5  N   UNL     1      -4.137  -9.427   9.777  0.00  0.00    -0.075 NA
BRANCH   5   6
ATOM      6  S   UNL     1      -3.514  -9.629  10.279  0.00  0.00    +0.077 S 
ATOM      7  O   UNL     1      -3.680 -10.429  10.164  0.00  0.00    -0.152 OA
ATOM      8  O   UNL     1      -3.347  -8.828  10.394  0.00  0.00    -0.152 OA
BRANCH   6   9
ATOM      9  C   UNL     1      -2.891  -9.830  10.780  0.00  0.00    +0.124 A 
ATOM     10  C   UNL     1      -2.958 -10.484  11.279  0.00  0.00    +0.020 A 
ATOM     11  C   UNL     1      -2.335 -10.686  11.781  0.00  0.00    +0.001 A 
ATOM     12  C   UNL     1      -1.644 -10.234  11.784  0.00  0.00    +0.000 A 
ATOM     13  C   UNL     1      -1.578  -9.580  11.285  0.00  0.00    +0.001 A 
ATOM     14  C   UNL     1      -2.201  -9.378  10.783  0.00  0.00    +0.020 A 
ENDBRANCH   6   9
ENDBRANCH   5   6
ENDBRANCH   4   5
ENDBRANCH   3   4
BRANCH  17  18
ATOM     18  N   UNL     1      -7.375  -8.108   9.109  0.00  0.00    -0.209 NA
BRANCH  18  19
ATOM     19  C   UNL     1      -7.652  -7.773   8.407  0.00  0.00    +0.122 C 
BRANCH  19  20
ATOM     20  C   UNL     1      -8.344  -7.324   8.410  0.00  0.00    +0.025 A 
ATOM     21  C   UNL     1      -9.086  -7.579   8.664  0.00  0.00    +0.004 A 
ATOM     22  C   UNL     1      -9.617  -6.953   8.570  0.00  0.00    +0.007 A 
ATOM     23  C   UNL     1      -9.202  -6.312   8.256  0.00  0.00    +0.035 A 
ATOM     24  S   UNL     1      -8.415  -6.541   8.158  0.00  0.00    -0.089 S 
ENDBRANCH  19  20
ENDBRANCH  18  19
ENDBRANCH  17  18
TORSDOF 7
ENDMDL
MODEL 10
REMARK VINA RESULT:      -5.5     20.222     20.989
REMARK  Name = 
REMARK  7 active torsions:
REMARK  status: ('A' for Active; 'I' for Inactive)
REMARK    1  A    between atoms: C_3  and  C_4
REMARK    2  A    between atoms: C_4  and  N_5
REMARK    3  A    between atoms: N_5  and  S_6
REMARK    4  A    between atoms: S_6  and  C_9
REMARK    5  A    between atoms: C_17  and  N_18
REMARK    6  A    between atoms: N_18  and  C_19
REMARK    7  A    between atoms: C_19  and  C_20
REMARK                            x       y       z     vdW  Elec       q    Type
REMARK                         _______ _______ _______ _____ _____    ______ ____
ROOT
ATOM      1  O   UNL     1      17.308  -6.137  23.750  0.00  0.00    -0.219 OA
ATOM      2  C   UNL     1      17.171  -5.907  24.530  0.00  0.00    +0.199 C 
ATOM      3  C   UNL     1      17.089  -5.132  24.799  0.00  0.00    +0.166 C 
ATOM     15  O   UNL     1      16.960  -5.157  25.613  0.00  0.00    -0.350 OA
ATOM     16  C   UNL     1      16.961  -5.947  25.847  0.00  0.00    +0.162 C 
ATOM     17  C   UNL     1      17.091  -6.411  25.177  0.00  0.00    +0.135 C 
ENDROOT
BRANCH   3   4
ATOM      4  C   UNL     1      17.130  -4.450  24.336  0.00  0.00    +0.148 C 
BRANCH   4   5
ATOM      5  N   UNL     1      16.567  -3.854  24.427  0.00  0.00    -0.075 NA
BRANCH   5   6
ATOM      6  S   UNL     1      16.601  -3.178  23.955  0.00  0.00    +0.077 S 
ATOM      7  O   UNL     1      16.268  -3.600  23.328  0.00  0.00    -0.152 OA
ATOM      8  O   UNL     1      16.933  -2.757  24.581  0.00  0.00    -0.152 OA
BRANCH   6   9
ATOM      9  C   UNL     1      16.634  -2.504  23.482  0.00  0.00    +0.124 A 
ATOM     10  C   UNL     1      15.954  -2.232  23.101  0.00  0.00    +0.020 A 
ATOM     11  C   UNL     1      15.987  -1.558  22.628  0.00  0.00    +0.001 A 
ATOM     12  C   UNL     1      16.701  -1.153  22.536  0.00  0.00    +0.000 A 
ATOM     13  C   UNL     1      17.381  -1.424  22.917  0.00  0.00    +0.001 A 
ATOM     14  C   UNL     1      17.347  -2.099  23.390  0.00  0.00    +0.020 A 
ENDBRANCH   6   9
ENDBRANCH   5   6
ENDBRANCH   4   5
ENDBRANCH   3   4
BRANCH  17  18
ATOM     18  N   UNL     1      17.135  -7.235  25.159  0.00  0.00    -0.209 NA
BRANCH  18  19
ATOM     19  C   UNL     1      16.823  -7.679  25.780  0.00  0.00    +0.122 C 
BRANCH  19  20
ATOM     20  C   UNL     1      16.790  -8.501  25.724  0.00  0.00    +0.025 A 
ATOM     21  C   UNL     1      16.136  -8.945  25.487  0.00  0.00    +0.004 A 
ATOM     22  C   UNL     1      16.347  -9.743  25.512  0.00  0.00    +0.007 A 
ATOM     23  C   UNL     1      17.132  -9.791  25.763  0.00  0.00    +0.035 A 
ATOM     24  S   UNL     1      17.405  -9.024  25.894  0.00  0.00    -0.089 S 
ENDBRANCH  19  20
ENDBRANCH  18  19
ENDBRANCH  17  18
TORSDOF 7
ENDMDL
