MODEL 1
REMARK VINA RESULT:      -9.2      0.000      0.000
REMARK  Name = 
REMARK  6 active torsions:
REMARK  status: ('A' for Active; 'I' for Inactive)
REMARK    1  A    between atoms: C_2  and  N_3
REMARK    2  A    between atoms: N_6  and  C_7
REMARK    3  A    between atoms: C_11  and  O_15
REMARK    4  A    between atoms: O_15  and  C_16
REMARK    5  A    between atoms: N_18  and  C_19
REMARK    6  A    between atoms: C_22  and  C_25
REMARK                            x       y       z     vdW  Elec       q    Type
REMARK                         _______ _______ _______ _____ _____    ______ ____
ROOT
ATOM      7  C   UNL     1       1.019   0.568  23.448  0.00  0.00    +0.156 C 
ATOM      8  C   UNL     1       0.820  -0.127  23.049  0.00  0.00    +0.166 C 
ATOM      9  O   UNL     1       0.039  -0.313  23.237  0.00  0.00    -0.348 OA
ATOM     10  C   UNL     1      -0.246   0.264  23.752  0.00  0.00    +0.186 C 
ATOM     11  C   UNL     1      -0.903   0.507  24.186  0.00  0.00    +0.229 C 
ATOM     12  C   UNL     1      -0.705   1.200  24.586  0.00  0.00    +0.188 C 
ATOM     13  O   UNL     1       0.077   1.388  24.398  0.00  0.00    -0.348 OA
ATOM     14  C   UNL     1       0.360   0.809  23.883  0.00  0.00    +0.168 C 
ENDROOT
BRANCH   7   6
ATOM      3  N   UNL     1       3.120   0.974  23.020  0.00  0.00    -0.187 NA
ATOM      4  C   UNL     1       2.391   0.590  23.050  0.00  0.00    +0.339 C 
ATOM      5  O   UNL     1       2.305  -0.158  22.712  0.00  0.00    -0.249 OA
ATOM      6  N   UNL     1       1.748   0.952  23.418  0.00  0.00    -0.184 NA
BRANCH   3   2
ATOM      1  C   UNL     1       4.531   0.843  22.841  0.00  0.00    +0.025 C 
ATOM      2  C   UNL     1       3.763   0.611  22.652  0.00  0.00    +0.117 C 
ENDBRANCH   3   2
ENDBRANCH   7   6
BRANCH  11  15
ATOM     15  O   UNL     1      -1.633   0.121  24.216  0.00  0.00    -0.432 OA
BRANCH  15  16
ATOM     16  C   UNL     1      -2.297   0.519  24.502  0.00  0.00    +0.425 C 
ATOM     17  O   UNL     1      -2.277   0.874  25.246  0.00  0.00    -0.224 OA
ATOM     18  N   UNL     1      -2.982   0.561  24.042  0.00  0.00    -0.142 NA
BRANCH  18  19
ATOM     19  C   UNL     1      -3.645   0.958  24.328  0.00  0.00    +0.077 A 
ATOM     20  C   UNL     1      -3.763   1.753  24.137  0.00  0.00    +0.017 A 
ATOM     21  C   UNL     1      -4.427   2.151  24.423  0.00  0.00    +0.004 A 
ATOM     22  C   UNL     1      -4.973   1.755  24.898  0.00  0.00    +0.035 A 
ATOM     23  C   UNL     1      -4.855   0.961  25.088  0.00  0.00    +0.004 A 
ATOM     24  C   UNL     1      -4.191   0.562  24.803  0.00  0.00    +0.017 A 
BRANCH  22  25
ATOM     25  C   UNL     1      -5.637   2.153  25.183  0.00  0.00    +0.173 C 
ATOM     26  C   UNL     1      -5.546   2.797  25.690  0.00  0.00    +0.077 C 
ATOM     27  O   UNL     1      -6.392   1.907  24.961  0.00  0.00    -0.291 OA
ENDBRANCH  22  25
ENDBRANCH  18  19
ENDBRANCH  15  16
ENDBRANCH  11  15
TORSDOF 6
ENDMDL
MODEL 2
REMARK VINA RESULT:      -9.0      3.034      4.317
REMARK  Name = 
REMARK  6 active torsions:
REMARK  status: ('A' for Active; 'I' for Inactive)
REMARK    1  A    between atoms: C_2  and  N_3
REMARK    2  A    between atoms: N_6  and  C_7
REMARK    3  A    between atoms: C_11  and  O_15
REMARK    4  A    between atoms: O_15  and  C_16
REMARK    5  A    between atoms: N_18  and  C_19
REMARK    6  A    between atoms: C_22  and  C_25
REMARK                            x       y       z     vdW  Elec       q    Type
REMARK                         _______ _______ _______ _____ _____    ______ ____
ROOT
ATOM      7  C   UNL     1      -0.406   2.801  25.355  0.00  0.00    +0.156 C 
ATOM      8  C   UNL     1      -0.548   2.531  26.122  0.00  0.00    +0.166 C 
ATOM      9  O   UNL     1      -0.533   1.706  26.108  0.00  0.00    -0.348 OA
ATOM     10  C   UNL     1      -0.382   1.466  25.333  0.00  0.00    +0.186 C 
ATOM     11  C   UNL     1      -0.280   0.810  24.845  0.00  0.00    +0.229 C 
ATOM     12  C   UNL     1      -0.138   1.080  24.079  0.00  0.00    +0.188 C 
ATOM     13  O   UNL     1      -0.153   1.905  24.092  0.00  0.00    -0.348 OA
ATOM     14  C   UNL     1      -0.304   2.143  24.868  0.00  0.00    +0.168 C 
ENDROOT
BRANCH   7   6
ATOM      3  N   UNL     1      -0.980   4.880  25.024  0.00  0.00    -0.187 NA
ATOM      4  C   UNL     1      -1.013   4.091  25.261  0.00  0.00    +0.339 C 
ATOM      5  O   UNL     1      -1.687   3.802  25.639  0.00  0.00    -0.249 OA
ATOM      6  N   UNL     1      -0.373   3.590  25.119  0.00  0.00    -0.184 NA
BRANCH   3   2
ATOM      1  C   UNL     1      -1.618   6.150  24.866  0.00  0.00    +0.025 C 
ATOM      2  C   UNL     1      -1.621   5.382  25.166  0.00  0.00    +0.117 C 
ENDBRANCH   3   2
ENDBRANCH   7   6
BRANCH  11  15
ATOM     15  O   UNL     1      -0.313   0.020  25.082  0.00  0.00    -0.432 OA
BRANCH  15  16
ATOM     16  C   UNL     1      -0.922  -0.466  24.811  0.00  0.00    +0.425 C 
ATOM     17  O   UNL     1      -1.072  -0.529  24.002  0.00  0.00    -0.224 OA
ATOM     18  N   UNL     1      -1.381  -0.890  25.351  0.00  0.00    -0.142 NA
BRANCH  18  19
ATOM     19  C   UNL     1      -1.990  -1.376  25.080  0.00  0.00    +0.077 A 
ATOM     20  C   UNL     1      -1.812  -2.095  24.714  0.00  0.00    +0.017 A 
ATOM     21  C   UNL     1      -2.421  -2.581  24.444  0.00  0.00    +0.004 A 
ATOM     22  C   UNL     1      -3.208  -2.350  24.538  0.00  0.00    +0.035 A 
ATOM     23  C   UNL     1      -3.385  -1.632  24.903  0.00  0.00    +0.004 A 
ATOM     24  C   UNL     1      -2.777  -1.145  25.174  0.00  0.00    +0.017 A 
BRANCH  22  25
ATOM     25  C   UNL     1      -3.816  -2.837  24.266  0.00  0.00    +0.173 C 
ATOM     26  C   UNL     1      -4.394  -2.534  23.762  0.00  0.00    +0.077 C 
ATOM     27  O   UNL     1      -3.846  -3.627  24.500  0.00  0.00    -0.291 OA
ENDBRANCH  22  25
ENDBRANCH  18  19
ENDBRANCH  15  16
ENDBRANCH  11  15
TORSDOF 6
ENDMDL
MODEL 3
REMARK VINA RESULT:      -8.9      3.908      4.928
REMARK  Name = 
REMARK  6 active torsions:
REMARK  status: ('A' for Active; 'I' for Inactive)
REMARK    1  A    between atoms: C_2  and  N_3
REMARK    2  A    between atoms: N_6  and  C_7
REMARK    3  A    between atoms: C_11  and  O_15
REMARK    4  A    between atoms: O_15  and  C_16
REMARK    5  A    between atoms: N_18  and  C_19
REMARK    6  A    between atoms: C_22  and  C_25
REMARK                            x       y       z     vdW  Elec       q    Type
REMARK                         _______ _______ _______ _____ _____    ______ ____
ROOT
ATOM      7  C   UNL     1      -3.346   3.804  25.097  0.00  0.00    +0.156 C 
ATOM      8  C   UNL     1      -3.546   3.537  25.852  0.00  0.00    +0.166 C 
ATOM      9  O   UNL     1      -3.964   2.831  25.770  0.00  0.00    -0.348 OA
ATOM     10  C   UNL     1      -4.023   2.660  24.966  0.00  0.00    +0.186 C 
ATOM     11  C   UNL     1      -4.317   2.118  24.418  0.00  0.00    +0.229 C 
ATOM     12  C   UNL     1      -4.117   2.384  23.663  0.00  0.00    +0.188 C 
ATOM     13  O   UNL     1      -3.699   3.091  23.744  0.00  0.00    -0.348 OA
ATOM     14  C   UNL     1      -3.641   3.261  24.550  0.00  0.00    +0.168 C 
ENDROOT
BRANCH   7   6
ATOM      3  N   UNL     1      -1.706   5.235  24.940  0.00  0.00    -0.187 NA
ATOM      4  C   UNL     1      -2.126   4.547  25.116  0.00  0.00    +0.339 C 
ATOM      5  O   UNL     1      -1.747   3.916  25.487  0.00  0.00    -0.249 OA
ATOM      6  N   UNL     1      -2.926   4.491  24.921  0.00  0.00    -0.184 NA
BRANCH   3   2
ATOM      1  C   UNL     1      -0.382   5.665  24.621  0.00  0.00    +0.025 C 
ATOM      2  C   UNL     1      -0.906   5.291  25.135  0.00  0.00    +0.117 C 
ENDBRANCH   3   2
ENDBRANCH   7   6
BRANCH  11  15
ATOM     15  O   UNL     1      -4.737   1.430  24.594  0.00  0.00    -0.432 OA
BRANCH  15  16
ATOM     16  C   UNL     1      -4.389   0.692  24.473  0.00  0.00    +0.425 C 
ATOM     17  O   UNL     1      -3.904   0.567  23.818  0.00  0.00    -0.224 OA
ATOM     18  N   UNL     1      -4.526   0.079  25.009  0.00  0.00    -0.142 NA
BRANCH  18  19
ATOM     19  C   UNL     1      -4.178  -0.659  24.888  0.00  0.00    +0.077 A 
ATOM     20  C   UNL     1      -3.620  -0.944  25.426  0.00  0.00    +0.017 A 
ATOM     21  C   UNL     1      -3.272  -1.682  25.306  0.00  0.00    +0.004 A 
ATOM     22  C   UNL     1      -3.480  -2.135  24.648  0.00  0.00    +0.035 A 
ATOM     23  C   UNL     1      -4.037  -1.849  24.111  0.00  0.00    +0.004 A 
ATOM     24  C   UNL     1      -4.386  -1.111  24.231  0.00  0.00    +0.017 A 
BRANCH  22  25
ATOM     25  C   UNL     1      -3.131  -2.873  24.528  0.00  0.00    +0.173 C 
ATOM     26  C   UNL     1      -2.312  -2.937  24.467  0.00  0.00    +0.077 C 
ATOM     27  O   UNL     1      -3.603  -3.547  24.470  0.00  0.00    -0.291 OA
ENDBRANCH  22  25
ENDBRANCH  18  19
ENDBRANCH  15  16
ENDBRANCH  11  15
TORSDOF 6
ENDMDL
MODEL 4
REMARK VINA RESULT:      -8.1      3.001      4.622
REMARK  Name = 
REMARK  6 active torsions:
REMARK  status: ('A' for Active; 'I' for Inactive)
REMARK    1  A    between atoms: C_2  and  N_3
REMARK    2  A    between atoms: N_6  and  C_7
REMARK    3  A    between atoms: C_11  and  O_15
REMARK    4  A    between atoms: O_15  and  C_16
REMARK    5  A    between atoms: N_18  and  C_19
REMARK    6  A    between atoms: C_22  and  C_25
REMARK                            x       y       z     vdW  Elec       q    Type
REMARK                         _______ _______ _______ _____ _____    ______ ____
ROOT
ATOM      7  C   UNL     1      -1.328  -1.298  24.883  0.00  0.00    +0.156 C 
ATOM      8  C   UNL     1      -1.338  -1.081  25.680  0.00  0.00    +0.166 C 
ATOM      9  O   UNL     1      -0.910  -0.380  25.757  0.00  0.00    -0.348 OA
ATOM     10  C   UNL     1      -0.636  -0.164  25.010  0.00  0.00    +0.186 C 
ATOM     11  C   UNL     1      -0.202   0.402  24.596  0.00  0.00    +0.229 C 
ATOM     12  C   UNL     1      -0.192   0.185  23.801  0.00  0.00    +0.188 C 
ATOM     13  O   UNL     1      -0.619  -0.516  23.722  0.00  0.00    -0.348 OA
ATOM     14  C   UNL     1      -0.894  -0.731  24.470  0.00  0.00    +0.168 C 
ENDROOT
BRANCH   7   6
ATOM      3  N   UNL     1      -2.852  -2.771  24.363  0.00  0.00    -0.187 NA
ATOM      4  C   UNL     1      -2.491  -2.104  24.687  0.00  0.00    +0.339 C 
ATOM      5  O   UNL     1      -2.934  -1.576  25.141  0.00  0.00    -0.249 OA
ATOM      6  N   UNL     1      -1.688  -1.965  24.559  0.00  0.00    -0.184 NA
BRANCH   3   2
ATOM      1  C   UNL     1      -4.127  -3.201  23.881  0.00  0.00    +0.025 C 
ATOM      2  C   UNL     1      -3.655  -2.911  24.491  0.00  0.00    +0.117 C 
ENDBRANCH   3   2
ENDBRANCH   7   6
BRANCH  11  15
ATOM     15  O   UNL     1       0.159   1.070  24.922  0.00  0.00    -0.432 OA
BRANCH  15  16
ATOM     16  C   UNL     1      -0.195   1.810  24.840  0.00  0.00    +0.425 C 
ATOM     17  O   UNL     1      -0.480   2.053  24.105  0.00  0.00    -0.224 OA
ATOM     18  N   UNL     1      -0.263   2.309  25.494  0.00  0.00    -0.142 NA
BRANCH  18  19
ATOM     19  C   UNL     1      -0.617   3.050  25.412  0.00  0.00    +0.077 A 
ATOM     20  C   UNL     1      -1.374   3.181  25.716  0.00  0.00    +0.017 A 
ATOM     21  C   UNL     1      -1.727   3.922  25.634  0.00  0.00    +0.004 A 
ATOM     22  C   UNL     1      -1.326   4.531  25.249  0.00  0.00    +0.035 A 
ATOM     23  C   UNL     1      -0.570   4.400  24.946  0.00  0.00    +0.004 A 
ATOM     24  C   UNL     1      -0.215   3.659  25.027  0.00  0.00    +0.017 A 
BRANCH  22  25
ATOM     25  C   UNL     1      -1.681   5.271  25.167  0.00  0.00    +0.173 C 
ATOM     26  C   UNL     1      -2.488   5.360  25.309  0.00  0.00    +0.077 C 
ATOM     27  O   UNL     1      -1.227   5.923  24.944  0.00  0.00    -0.291 OA
ENDBRANCH  22  25
ENDBRANCH  18  19
ENDBRANCH  15  16
ENDBRANCH  11  15
TORSDOF 6
ENDMDL
MODEL 5
REMARK VINA RESULT:      -7.1      2.724      3.870
REMARK  Name = 
REMARK  6 active torsions:
REMARK  status: ('A' for Active; 'I' for Inactive)
REMARK    1  A    between atoms: C_2  and  N_3
REMARK    2  A    between atoms: N_6  and  C_7
REMARK    3  A    between atoms: C_11  and  O_15
REMARK    4  A    between atoms: O_15  and  C_16
REMARK    5  A    between atoms: N_18  and  C_19
REMARK    6  A    between atoms: C_22  and  C_25
REMARK                            x       y       z     vdW  Elec       q    Type
REMARK                         _______ _______ _______ _____ _____    ______ ____
ROOT
ATOM      7  C   UNL     1       0.049   2.584  26.289  0.00  0.00    +0.156 C 
ATOM      8  C   UNL     1      -0.668   2.887  26.563  0.00  0.00    +0.166 C 
ATOM      9  O   UNL     1      -1.262   2.643  26.045  0.00  0.00    -0.348 OA
ATOM     10  C   UNL     1      -0.913   2.190  25.450  0.00  0.00    +0.186 C 
ATOM     11  C   UNL     1      -1.063   1.760  24.763  0.00  0.00    +0.229 C 
ATOM     12  C   UNL     1      -0.347   1.457  24.489  0.00  0.00    +0.188 C 
ATOM     13  O   UNL     1       0.248   1.700  25.007  0.00  0.00    -0.348 OA
ATOM     14  C   UNL     1      -0.103   2.154  25.601  0.00  0.00    +0.168 C 
ENDROOT
BRANCH   7   6
ATOM      3  N   UNL     1       1.608   2.727  27.809  0.00  0.00    -0.187 NA
ATOM      4  C   UNL     1       0.870   2.618  27.458  0.00  0.00    +0.339 C 
ATOM      5  O   UNL     1       0.214   2.435  27.924  0.00  0.00    -0.249 OA
ATOM      6  N   UNL     1       0.787   2.693  26.640  0.00  0.00    -0.184 NA
BRANCH   3   2
ATOM      1  C   UNL     1       2.428   2.765  28.979  0.00  0.00    +0.025 C 
ATOM      2  C   UNL     1       1.691   2.653  28.627  0.00  0.00    +0.117 C 
ENDBRANCH   3   2
ENDBRANCH   7   6
BRANCH  11  15
ATOM     15  O   UNL     1      -1.802   1.651  24.412  0.00  0.00    -0.432 OA
BRANCH  15  16
ATOM     16  C   UNL     1      -2.096   0.889  24.298  0.00  0.00    +0.425 C 
ATOM     17  O   UNL     1      -1.666   0.342  23.855  0.00  0.00    -0.224 OA
ATOM     18  N   UNL     1      -2.821   0.673  24.629  0.00  0.00    -0.142 NA
BRANCH  18  19
ATOM     19  C   UNL     1      -3.115  -0.089  24.516  0.00  0.00    +0.077 A 
ATOM     20  C   UNL     1      -2.864  -0.705  25.005  0.00  0.00    +0.017 A 
ATOM     21  C   UNL     1      -3.158  -1.467  24.892  0.00  0.00    +0.004 A 
ATOM     22  C   UNL     1      -3.703  -1.614  24.290  0.00  0.00    +0.035 A 
ATOM     23  C   UNL     1      -3.954  -1.000  23.802  0.00  0.00    +0.004 A 
ATOM     24  C   UNL     1      -3.660  -0.236  23.914  0.00  0.00    +0.017 A 
BRANCH  22  25
ATOM     25  C   UNL     1      -3.996  -2.377  24.178  0.00  0.00    +0.173 C 
ATOM     26  C   UNL     1      -3.643  -3.016  24.562  0.00  0.00    +0.077 C 
ATOM     27  O   UNL     1      -4.643  -2.501  23.682  0.00  0.00    -0.291 OA
ENDBRANCH  22  25
ENDBRANCH  18  19
ENDBRANCH  15  16
ENDBRANCH  11  15
TORSDOF 6
ENDMDL
MODEL 6
REMARK VINA RESULT:      -7.1      1.266      1.669
REMARK  Name = 
REMARK  6 active torsions:
REMARK  status: ('A' for Active; 'I' for Inactive)
REMARK    1  A    between atoms: C_2  and  N_3
REMARK    2  A    between atoms: N_6  and  C_7
REMARK    3  A    between atoms: C_11  and  O_15
REMARK    4  A    between atoms: O_15  and  C_16
REMARK    5  A    between atoms: N_18  and  C_19
REMARK    6  A    between atoms: C_22  and  C_25
REMARK                            x       y       z     vdW  Elec       q    Type
REMARK                         _______ _______ _______ _____ _____    ______ ____
ROOT
ATOM      7  C   UNL     1       0.319   1.193  23.850  0.00  0.00    +0.156 C 
ATOM      8  C   UNL     1       0.509   1.646  24.513  0.00  0.00    +0.166 C 
ATOM      9  O   UNL     1      -0.133   2.137  24.678  0.00  0.00    -0.348 OA
ATOM     10  C   UNL     1      -0.720   1.988  24.119  0.00  0.00    +0.186 C 
ATOM     11  C   UNL     1      -1.479   2.198  23.874  0.00  0.00    +0.229 C 
ATOM     12  C   UNL     1      -1.669   1.745  23.212  0.00  0.00    +0.188 C 
ATOM     13  O   UNL     1      -1.027   1.254  23.046  0.00  0.00    -0.348 OA
ATOM     14  C   UNL     1      -0.441   1.404  23.607  0.00  0.00    +0.168 C 
ENDROOT
BRANCH   7   6
ATOM      3  N   UNL     1       2.076   0.241  22.975  0.00  0.00    -0.187 NA
ATOM      4  C   UNL     1       1.592   0.805  23.330  0.00  0.00    +0.339 C 
ATOM      5  O   UNL     1       1.896   1.547  23.523  0.00  0.00    -0.249 OA
ATOM      6  N   UNL     1       0.803   0.629  23.494  0.00  0.00    -0.184 NA
BRANCH   3   2
ATOM      1  C   UNL     1       3.333  -0.124  22.402  0.00  0.00    +0.025 C 
ATOM      2  C   UNL     1       2.865   0.418  22.811  0.00  0.00    +0.117 C 
ENDBRANCH   3   2
ENDBRANCH   7   6
BRANCH  11  15
ATOM     15  O   UNL     1      -1.964   2.763  24.231  0.00  0.00    -0.432 OA
BRANCH  15  16
ATOM     16  C   UNL     1      -2.770   2.615  24.323  0.00  0.00    +0.425 C 
ATOM     17  O   UNL     1      -3.260   2.566  23.661  0.00  0.00    -0.224 OA
ATOM     18  N   UNL     1      -3.087   2.517  25.079  0.00  0.00    -0.142 NA
BRANCH  18  19
ATOM     19  C   UNL     1      -3.893   2.368  25.171  0.00  0.00    +0.077 A 
ATOM     20  C   UNL     1      -4.415   2.995  25.300  0.00  0.00    +0.017 A 
ATOM     21  C   UNL     1      -5.222   2.847  25.392  0.00  0.00    +0.004 A 
ATOM     22  C   UNL     1      -5.506   2.074  25.356  0.00  0.00    +0.035 A 
ATOM     23  C   UNL     1      -4.985   1.448  25.228  0.00  0.00    +0.004 A 
ATOM     24  C   UNL     1      -4.178   1.595  25.135  0.00  0.00    +0.017 A 
BRANCH  22  25
ATOM     25  C   UNL     1      -6.313   1.927  25.449  0.00  0.00    +0.173 C 
ATOM     26  C   UNL     1      -6.640   1.879  26.204  0.00  0.00    +0.077 C 
ATOM     27  O   UNL     1      -6.792   1.828  24.784  0.00  0.00    -0.291 OA
ENDBRANCH  22  25
ENDBRANCH  18  19
ENDBRANCH  15  16
ENDBRANCH  11  15
TORSDOF 6
ENDMDL
MODEL 7
REMARK VINA RESULT:      -7.0      1.267      6.757
REMARK  Name = 
REMARK  6 active torsions:
REMARK  status: ('A' for Active; 'I' for Inactive)
REMARK    1  A    between atoms: C_2  and  N_3
REMARK    2  A    between atoms: N_6  and  C_7
REMARK    3  A    between atoms: C_11  and  O_15
REMARK    4  A    between atoms: O_15  and  C_16
REMARK    5  A    between atoms: N_18  and  C_19
REMARK    6  A    between atoms: C_22  and  C_25
REMARK                            x       y       z     vdW  Elec       q    Type
REMARK                         _______ _______ _______ _____ _____    ______ ____
ROOT
ATOM      7  C   UNL     1      -1.661   1.000  24.042  0.00  0.00    +0.156 C 
ATOM      8  C   UNL     1      -1.646   1.512  23.395  0.00  0.00    +0.166 C 
ATOM      9  O   UNL     1      -0.953   1.365  22.971  0.00  0.00    -0.348 OA
ATOM     10  C   UNL     1      -0.541   0.763  23.355  0.00  0.00    +0.186 C 
ATOM     11  C   UNL     1       0.141   0.300  23.332  0.00  0.00    +0.229 C 
ATOM     12  C   UNL     1       0.126  -0.211  23.978  0.00  0.00    +0.188 C 
ATOM     13  O   UNL     1      -0.566  -0.065  24.403  0.00  0.00    -0.348 OA
ATOM     14  C   UNL     1      -0.978   0.537  24.017  0.00  0.00    +0.168 C 
ENDROOT
BRANCH   7   6
ATOM      3  N   UNL     1      -3.637   1.026  24.967  0.00  0.00    -0.187 NA
ATOM      4  C   UNL     1      -3.044   1.067  24.397  0.00  0.00    +0.339 C 
ATOM      5  O   UNL     1      -3.238   1.217  23.609  0.00  0.00    -0.249 OA
ATOM      6  N   UNL     1      -2.255   0.958  24.612  0.00  0.00    -0.184 NA
BRANCH   3   2
ATOM      1  C   UNL     1      -5.020   1.095  25.322  0.00  0.00    +0.025 C 
ATOM      2  C   UNL     1      -4.426   1.134  24.751  0.00  0.00    +0.117 C 
ENDBRANCH   3   2
ENDBRANCH   7   6
BRANCH  11  15
ATOM     15  O   UNL     1       0.736   0.342  22.760  0.00  0.00    -0.432 OA
BRANCH  15  16
ATOM     16  C   UNL     1       1.527   0.380  22.991  0.00  0.00    +0.425 C 
ATOM     17  O   UNL     1       1.734   0.759  23.694  0.00  0.00    -0.224 OA
ATOM     18  N   UNL     1       2.111   0.039  22.518  0.00  0.00    -0.142 NA
BRANCH  18  19
ATOM     19  C   UNL     1       2.902   0.078  22.748  0.00  0.00    +0.077 A 
ATOM     20  C   UNL     1       3.336   0.768  22.619  0.00  0.00    +0.017 A 
ATOM     21  C   UNL     1       4.127   0.806  22.850  0.00  0.00    +0.004 A 
ATOM     22  C   UNL     1       4.485   0.155  23.209  0.00  0.00    +0.035 A 
ATOM     23  C   UNL     1       4.051  -0.534  23.338  0.00  0.00    +0.004 A 
ATOM     24  C   UNL     1       3.260  -0.573  23.108  0.00  0.00    +0.017 A 
BRANCH  22  25
ATOM     25  C   UNL     1       5.276   0.195  23.440  0.00  0.00    +0.173 C 
ATOM     26  C   UNL     1       5.479   0.532  24.164  0.00  0.00    +0.077 C 
ATOM     27  O   UNL     1       5.865  -0.103  22.945  0.00  0.00    -0.291 OA
ENDBRANCH  22  25
ENDBRANCH  18  19
ENDBRANCH  15  16
ENDBRANCH  11  15
TORSDOF 6
ENDMDL
MODEL 8
REMARK VINA RESULT:      -6.9      3.744      4.945
REMARK  Name = 
REMARK  6 active torsions:
REMARK  status: ('A' for Active; 'I' for Inactive)
REMARK    1  A    between atoms: C_2  and  N_3
REMARK    2  A    between atoms: N_6  and  C_7
REMARK    3  A    between atoms: C_11  and  O_15
REMARK    4  A    between atoms: O_15  and  C_16
REMARK    5  A    between atoms: N_18  and  C_19
REMARK    6  A    between atoms: C_22  and  C_25
REMARK                            x       y       z     vdW  Elec       q    Type
REMARK                         _______ _______ _______ _____ _____    ______ ____
ROOT
ATOM      7  C   UNL     1      -3.960  -0.830  24.799  0.00  0.00    +0.156 C 
ATOM      8  C   UNL     1      -4.050  -0.726  25.613  0.00  0.00    +0.166 C 
ATOM      9  O   UNL     1      -4.166   0.079  25.755  0.00  0.00    -0.348 OA
ATOM     10  C   UNL     1      -4.146   0.472  25.031  0.00  0.00    +0.186 C 
ATOM     11  C   UNL     1      -4.205   1.212  24.670  0.00  0.00    +0.229 C 
ATOM     12  C   UNL     1      -4.114   1.108  23.857  0.00  0.00    +0.188 C 
ATOM     13  O   UNL     1      -3.999   0.303  23.714  0.00  0.00    -0.348 OA
ATOM     14  C   UNL     1      -4.019  -0.089  24.440  0.00  0.00    +0.168 C 
ENDROOT
BRANCH   7   6
ATOM      3  N   UNL     1      -3.047  -2.725  24.219  0.00  0.00    -0.187 NA
ATOM      4  C   UNL     1      -3.174  -2.007  24.604  0.00  0.00    +0.339 C 
ATOM      5  O   UNL     1      -2.643  -1.749  25.180  0.00  0.00    -0.249 OA
ATOM      6  N   UNL     1      -3.832  -1.547  24.414  0.00  0.00    -0.184 NA
BRANCH   3   2
ATOM      1  C   UNL     1      -1.859  -3.411  23.820  0.00  0.00    +0.025 C 
ATOM      2  C   UNL     1      -2.389  -3.185  24.409  0.00  0.00    +0.117 C 
ENDBRANCH   3   2
ENDBRANCH   7   6
BRANCH  11  15
ATOM     15  O   UNL     1      -4.332   1.930  25.057  0.00  0.00    -0.432 OA
BRANCH  15  16
ATOM     16  C   UNL     1      -3.813   2.560  24.936  0.00  0.00    +0.425 C 
ATOM     17  O   UNL     1      -3.844   2.992  24.234  0.00  0.00    -0.224 OA
ATOM     18  N   UNL     1      -3.263   2.757  25.519  0.00  0.00    -0.142 NA
BRANCH  18  19
ATOM     19  C   UNL     1      -2.744   3.387  25.399  0.00  0.00    +0.077 A 
ATOM     20  C   UNL     1      -2.007   3.253  25.053  0.00  0.00    +0.017 A 
ATOM     21  C   UNL     1      -1.488   3.883  24.933  0.00  0.00    +0.004 A 
ATOM     22  C   UNL     1      -1.705   4.646  25.158  0.00  0.00    +0.035 A 
ATOM     23  C   UNL     1      -2.441   4.780  25.504  0.00  0.00    +0.004 A 
ATOM     24  C   UNL     1      -2.962   4.150  25.625  0.00  0.00    +0.017 A 
BRANCH  22  25
ATOM     25  C   UNL     1      -1.185   5.275  25.037  0.00  0.00    +0.173 C 
ATOM     26  C   UNL     1      -0.411   5.130  24.794  0.00  0.00    +0.077 C 
ATOM     27  O   UNL     1      -1.440   6.050  25.160  0.00  0.00    -0.291 OA
ENDBRANCH  22  25
ENDBRANCH  18  19
ENDBRANCH  15  16
ENDBRANCH  11  15
TORSDOF 6
ENDMDL
MODEL 9
REMARK VINA RESULT:      -6.4     15.089     16.514
REMARK  Name = 
REMARK  6 active torsions:
REMARK  status: ('A' for Active; 'I' for Inactive)
REMARK    1  A    between atoms: C_2  and  N_3
REMARK    2  A    between atoms: N_6  and  C_7
REMARK    3  A    between atoms: C_11  and  O_15
REMARK    4  A    between atoms: O_15  and  C_16
REMARK    5  A    between atoms: N_18  and  C_19
REMARK    6  A    between atoms: C_22  and  C_25
REMARK                            x       y       z     vdW  Elec       q    Type
REMARK                         _______ _______ _______ _____ _____    ______ ____
ROOT
ATOM      7  C   UNL     1      -4.794 -10.607  16.060  0.00  0.00    +0.156 C 
ATOM      8  C   UNL     1      -3.982 -10.705  16.172  0.00  0.00    +0.166 C 
ATOM      9  O   UNL     1      -3.622 -10.714  15.430  0.00  0.00    -0.348 OA
ATOM     10  C   UNL     1      -4.210 -10.622  14.859  0.00  0.00    +0.186 C 
ATOM     11  C   UNL     1      -4.352 -10.570  14.048  0.00  0.00    +0.229 C 
ATOM     12  C   UNL     1      -5.163 -10.473  13.936  0.00  0.00    +0.188 C 
ATOM     13  O   UNL     1      -5.524 -10.463  14.678  0.00  0.00    -0.348 OA
ATOM     14  C   UNL     1      -4.934 -10.556  15.248  0.00  0.00    +0.168 C 
ENDROOT
BRANCH   7   6
ATOM      3  N   UNL     1      -5.713 -10.615  18.039  0.00  0.00    -0.187 NA
ATOM      4  C   UNL     1      -5.143 -10.654  17.445  0.00  0.00    +0.339 C 
ATOM      5  O   UNL     1      -4.351 -10.781  17.640  0.00  0.00    -0.249 OA
ATOM      6  N   UNL     1      -5.364 -10.567  16.654  0.00  0.00    -0.184 NA
BRANCH   3   2
ATOM      1  C   UNL     1      -6.051 -10.605  19.427  0.00  0.00    +0.025 C 
ATOM      2  C   UNL     1      -5.492 -10.702  18.829  0.00  0.00    +0.117 C 
ENDBRANCH   3   2
ENDBRANCH   7   6
BRANCH  11  15
ATOM     15  O   UNL     1      -3.781 -10.610  13.453  0.00  0.00    -0.432 OA
BRANCH  15  16
ATOM     16  C   UNL     1      -3.993 -10.468  12.669  0.00  0.00    +0.425 C 
ATOM     17  O   UNL     1      -4.698 -10.775  12.370  0.00  0.00    -0.224 OA
ATOM     18  N   UNL     1      -3.500 -10.018  12.183  0.00  0.00    -0.142 NA
BRANCH  18  19
ATOM     19  C   UNL     1      -3.713  -9.877  11.399  0.00  0.00    +0.077 A 
ATOM     20  C   UNL     1      -3.381 -10.330  10.793  0.00  0.00    +0.017 A 
ATOM     21  C   UNL     1      -3.593 -10.188  10.009  0.00  0.00    +0.004 A 
ATOM     22  C   UNL     1      -4.137  -9.594   9.829  0.00  0.00    +0.035 A 
ATOM     23  C   UNL     1      -4.468  -9.142  10.434  0.00  0.00    +0.004 A 
ATOM     24  C   UNL     1      -4.256  -9.283  11.219  0.00  0.00    +0.017 A 
BRANCH  22  25
ATOM     25  C   UNL     1      -4.348  -9.453   9.044  0.00  0.00    +0.173 C 
ATOM     26  C   UNL     1      -4.914  -9.927   8.678  0.00  0.00    +0.077 C 
ATOM     27  O   UNL     1      -3.993  -8.837   8.626  0.00  0.00    -0.291 OA
ENDBRANCH  22  25
ENDBRANCH  18  19
ENDBRANCH  15  16
ENDBRANCH  11  15
TORSDOF 6
ENDMDL
MODEL 10
REMARK VINA RESULT:      -5.6     15.304     16.888
REMARK  Name = 
REMARK  6 active torsions:
REMARK  status: ('A' for Active; 'I' for Inactive)
REMARK    1  A    between atoms: C_2  and  N_3
REMARK    2  A    between atoms: N_6  and  C_7
REMARK    3  A    between atoms: C_11  and  O_15
REMARK    4  A    between atoms: O_15  and  C_16
REMARK    5  A    between atoms: N_18  and  C_19
REMARK    6  A    between atoms: C_22  and  C_25
REMARK                            x       y       z     vdW  Elec       q    Type
REMARK                         _______ _______ _______ _____ _____    ______ ____
ROOT
ATOM      7  C   UNL     1      -7.119 -10.035  15.574  0.00  0.00    +0.156 C 
ATOM      8  C   UNL     1      -6.405  -9.878  15.958  0.00  0.00    +0.166 C 
ATOM      9  O   UNL     1      -5.796  -9.962  15.407  0.00  0.00    -0.348 OA
ATOM     10  C   UNL     1      -6.133 -10.170  14.683  0.00  0.00    +0.186 C 
ATOM     11  C   UNL     1      -5.966 -10.350  13.896  0.00  0.00    +0.229 C 
ATOM     12  C   UNL     1      -6.679 -10.506  13.513  0.00  0.00    +0.188 C 
ATOM     13  O   UNL     1      -7.288 -10.423  14.063  0.00  0.00    -0.348 OA
ATOM     14  C   UNL     1      -6.950 -10.215  14.786  0.00  0.00    +0.168 C 
ENDROOT
BRANCH   7   6
ATOM      3  N   UNL     1      -8.790  -9.435  16.842  0.00  0.00    -0.187 NA
ATOM      4  C   UNL     1      -8.041  -9.455  16.499  0.00  0.00    +0.339 C 
ATOM      5  O   UNL     1      -7.464  -8.916  16.737  0.00  0.00    -0.249 OA
ATOM      6  N   UNL     1      -7.868 -10.015  15.917  0.00  0.00    -0.184 NA
BRANCH   3   2
ATOM      1  C   UNL     1      -9.732  -8.804  17.711  0.00  0.00    +0.025 C 
ATOM      2  C   UNL     1      -8.963  -8.876  17.424  0.00  0.00    +0.117 C 
ENDBRANCH   3   2
ENDBRANCH   7   6
BRANCH  11  15
ATOM     15  O   UNL     1      -5.215 -10.370  13.553  0.00  0.00    -0.432 OA
BRANCH  15  16
ATOM     16  C   UNL     1      -5.132 -10.268  12.738  0.00  0.00    +0.425 C 
ATOM     17  O   UNL     1      -5.537 -10.762  12.216  0.00  0.00    -0.224 OA
ATOM     18  N   UNL     1      -4.644  -9.670  12.446  0.00  0.00    -0.142 NA
BRANCH  18  19
ATOM     19  C   UNL     1      -4.561  -9.567  11.632  0.00  0.00    +0.077 A 
ATOM     20  C   UNL     1      -3.983  -9.989  11.220  0.00  0.00    +0.017 A 
ATOM     21  C   UNL     1      -3.900  -9.887  10.406  0.00  0.00    +0.004 A 
ATOM     22  C   UNL     1      -4.394  -9.363  10.003  0.00  0.00    +0.035 A 
ATOM     23  C   UNL     1      -4.971  -8.942  10.414  0.00  0.00    +0.004 A 
ATOM     24  C   UNL     1      -5.055  -9.044  11.229  0.00  0.00    +0.017 A 
BRANCH  22  25
ATOM     25  C   UNL     1      -4.310  -9.262   9.188  0.00  0.00    +0.173 C 
ATOM     26  C   UNL     1      -4.674  -9.787   8.667  0.00  0.00    +0.077 C 
ATOM     27  O   UNL     1      -3.862  -8.634   8.895  0.00  0.00    -0.291 OA
ENDBRANCH  22  25
ENDBRANCH  18  19
ENDBRANCH  15  16
ENDBRANCH  11  15
TORSDOF 6
ENDMDL
