MODEL 1
REMARK VINA RESULT:      -9.5      0.000      0.000
REMARK  Name = 
REMARK  9 active torsions:
REMARK  status: ('A' for Active; 'I' for Inactive)
REMARK    1  A    between atoms: C_2  and  O_17
REMARK    2  A    between atoms: N_3  and  C_4
REMARK    3  A    between atoms: C_7  and  O_8
REMARK    4  A    between atoms: O_8  and  C_9
REMARK    5  A    between atoms: O_17  and  C_18
REMARK    6  A    between atoms: C_22  and  N_26
REMARK    7  A    between atoms: N_26  and  S_27
REMARK    8  A    between atoms: S_27  and  C_30
REMARK    9  A    between atoms: C_35  and  C_36
REMARK                            x       y       z     vdW  Elec       q    Type
REMARK                         _______ _______ _______ _____ _____    ______ ____
ROOT
ATOM     18  C   UNL     1      -0.711   0.440  24.040  0.00  0.00    +0.229 C 
ATOM     19  C   UNL     1      -0.508   0.579  24.827  0.00  0.00    +0.188 C 
ATOM     20  O   UNL     1      -1.037   1.134  25.132  0.00  0.00    -0.348 OA
ATOM     21  C   UNL     1      -1.567   1.337  24.535  0.00  0.00    +0.166 C 
ATOM     22  C   UNL     1      -2.222   1.804  24.353  0.00  0.00    +0.157 C 
ATOM     23  C   UNL     1      -2.425   1.665  23.566  0.00  0.00    +0.164 C 
ATOM     24  O   UNL     1      -1.896   1.110  23.261  0.00  0.00    -0.348 OA
ATOM     25  C   UNL     1      -1.366   0.907  23.860  0.00  0.00    +0.186 C 
ENDROOT
BRANCH  18  17
ATOM     17  O   UNL     1      -0.327  -0.078  23.524  0.00  0.00    -0.432 OA
BRANCH  17   2
ATOM      1  O   UNL     1       0.972  -0.418  24.013  0.00  0.00    -0.224 OA
ATOM      2  C   UNL     1       0.494  -0.051  23.449  0.00  0.00    +0.425 C 
ATOM      3  N   UNL     1       0.837   0.342  22.810  0.00  0.00    -0.142 NA
BRANCH   3   4
ATOM      4  C   UNL     1       1.658   0.368  22.734  0.00  0.00    +0.077 A 
ATOM      5  C   UNL     1       2.090   0.957  23.118  0.00  0.00    +0.020 A 
ATOM      6  C   UNL     1       2.911   0.983  23.043  0.00  0.00    +0.039 A 
ATOM      7  C   UNL     1       3.301   0.421  22.582  0.00  0.00    +0.145 A 
ATOM     15  C   UNL     1       2.869  -0.168  22.197  0.00  0.00    +0.039 A 
ATOM     16  C   UNL     1       2.048  -0.194  22.274  0.00  0.00    +0.020 A 
BRANCH   7   8
ATOM      8  O   UNL     1       4.122   0.447  22.506  0.00  0.00    -0.453 OA
BRANCH   8   9
ATOM      9  C   UNL     1       4.602   0.154  23.109  0.00  0.00    +0.145 A 
ATOM     10  C   UNL     1       5.085   0.668  23.538  0.00  0.00    +0.037 A 
ATOM     11  C   UNL     1       5.565   0.375  24.141  0.00  0.00    +0.003 A 
ATOM     12  C   UNL     1       5.562  -0.431  24.316  0.00  0.00    +0.000 A 
ATOM     13  C   UNL     1       5.080  -0.945  23.888  0.00  0.00    +0.003 A 
ATOM     14  C   UNL     1       4.599  -0.652  23.284  0.00  0.00    +0.037 A 
ENDBRANCH   8   9
ENDBRANCH   7   8
ENDBRANCH   3   4
ENDBRANCH  17   2
ENDBRANCH  18  17
BRANCH  22  26
ATOM     26  N   UNL     1      -2.606   2.321  24.869  0.00  0.00    -0.074 NA
BRANCH  26  27
ATOM     27  S   UNL     1      -3.429   2.306  24.933  0.00  0.00    +0.078 S 
ATOM     28  O   UNL     1      -3.366   1.826  25.601  0.00  0.00    -0.152 OA
ATOM     29  O   UNL     1      -3.490   2.785  24.264  0.00  0.00    -0.152 OA
BRANCH  27  30
ATOM     30  C   UNL     1      -4.251   2.289  24.998  0.00  0.00    +0.133 A 
ATOM     31  C   UNL     1      -4.676   1.655  24.684  0.00  0.00    +0.021 A 
ATOM     32  C   UNL     1      -5.499   1.639  24.749  0.00  0.00    +0.001 A 
ATOM     33  C   UNL     1      -5.895   2.255  25.127  0.00  0.00    +0.001 A 
ATOM     34  C   UNL     1      -5.470   2.889  25.440  0.00  0.00    +0.012 A 
ATOM     35  C   UNL     1      -4.648   2.906  25.375  0.00  0.00    +0.087 A 
BRANCH  35  36
ATOM     36  C   UNL     1      -4.222   3.540  25.688  0.00  0.00    +0.102 C 
ATOM     37  N   UNL     1      -3.797   4.174  26.001  0.00  0.00    -0.191 NA
ENDBRANCH  35  36
ENDBRANCH  27  30
ENDBRANCH  26  27
ENDBRANCH  22  26
TORSDOF 9
ENDMDL
MODEL 2
REMARK VINA RESULT:      -7.9      1.797      7.582
REMARK  Name = 
REMARK  9 active torsions:
REMARK  status: ('A' for Active; 'I' for Inactive)
REMARK    1  A    between atoms: C_2  and  O_17
REMARK    2  A    between atoms: N_3  and  C_4
REMARK    3  A    between atoms: C_7  and  O_8
REMARK    4  A    between atoms: O_8  and  C_9
REMARK    5  A    between atoms: O_17  and  C_18
REMARK    6  A    between atoms: C_22  and  N_26
REMARK    7  A    between atoms: N_26  and  S_27
REMARK    8  A    between atoms: S_27  and  C_30
REMARK    9  A    between atoms: C_35  and  C_36
REMARK                            x       y       z     vdW  Elec       q    Type
REMARK                         _______ _______ _______ _____ _____    ______ ____
ROOT
ATOM     18  C   UNL     1      -0.285   0.146  24.145  0.00  0.00    +0.229 C 
ATOM     19  C   UNL     1      -0.127   0.944  24.279  0.00  0.00    +0.188 C 
ATOM     20  O   UNL     1       0.579   1.132  23.896  0.00  0.00    -0.348 OA
ATOM     21  C   UNL     1       0.857   0.451  23.525  0.00  0.00    +0.166 C 
ATOM     22  C   UNL     1       1.465   0.144  23.058  0.00  0.00    +0.157 C 
ATOM     23  C   UNL     1       1.307  -0.654  22.924  0.00  0.00    +0.164 C 
ATOM     24  O   UNL     1       0.602  -0.842  23.307  0.00  0.00    -0.348 OA
ATOM     25  C   UNL     1       0.323  -0.159  23.679  0.00  0.00    +0.186 C 
ENDROOT
BRANCH  18  17
ATOM     17  O   UNL     1      -0.937  -0.274  24.427  0.00  0.00    -0.432 OA
BRANCH  17   2
ATOM      1  O   UNL     1      -1.702   0.837  24.899  0.00  0.00    -0.224 OA
ATOM      2  C   UNL     1      -1.664   0.105  24.519  0.00  0.00    +0.425 C 
ATOM      3  N   UNL     1      -2.352  -0.246  24.231  0.00  0.00    -0.142 NA
BRANCH   3   4
ATOM      4  C   UNL     1      -3.079   0.133  24.323  0.00  0.00    +0.077 A 
ATOM      5  C   UNL     1      -3.564  -0.053  24.963  0.00  0.00    +0.020 A 
ATOM      6  C   UNL     1      -4.291   0.326  25.055  0.00  0.00    +0.039 A 
ATOM      7  C   UNL     1      -4.533   0.892  24.505  0.00  0.00    +0.145 A 
ATOM     15  C   UNL     1      -4.048   1.078  23.864  0.00  0.00    +0.039 A 
ATOM     16  C   UNL     1      -3.321   0.698  23.773  0.00  0.00    +0.020 A 
BRANCH   7   8
ATOM      8  O   UNL     1      -5.259   1.271  24.596  0.00  0.00    -0.453 OA
BRANCH   8   9
ATOM      9  C   UNL     1      -5.306   1.979  25.017  0.00  0.00    +0.145 A 
ATOM     10  C   UNL     1      -5.678   1.997  25.753  0.00  0.00    +0.037 A 
ATOM     11  C   UNL     1      -5.725   2.705  26.174  0.00  0.00    +0.003 A 
ATOM     12  C   UNL     1      -5.399   3.395  25.859  0.00  0.00    +0.000 A 
ATOM     13  C   UNL     1      -5.026   3.377  25.123  0.00  0.00    +0.003 A 
ATOM     14  C   UNL     1      -4.980   2.668  24.702  0.00  0.00    +0.037 A 
ENDBRANCH   8   9
ENDBRANCH   7   8
ENDBRANCH   3   4
ENDBRANCH  17   2
ENDBRANCH  18  17
BRANCH  22  26
ATOM     26  N   UNL     1       2.117   0.564  22.776  0.00  0.00    -0.074 NA
BRANCH  26  27
ATOM     27  S   UNL     1       2.881   0.312  22.958  0.00  0.00    +0.078 S 
ATOM     28  O   UNL     1       2.907   0.846  23.585  0.00  0.00    -0.152 OA
ATOM     29  O   UNL     1       2.854  -0.223  22.330  0.00  0.00    -0.152 OA
BRANCH  27  30
ATOM     30  C   UNL     1       3.645   0.060  23.140  0.00  0.00    +0.133 A 
ATOM     31  C   UNL     1       3.762  -0.672  23.503  0.00  0.00    +0.021 A 
ATOM     32  C   UNL     1       4.526  -0.924  23.686  0.00  0.00    +0.001 A 
ATOM     33  C   UNL     1       5.173  -0.445  23.506  0.00  0.00    +0.001 A 
ATOM     34  C   UNL     1       5.056   0.287  23.144  0.00  0.00    +0.012 A 
ATOM     35  C   UNL     1       4.292   0.539  22.961  0.00  0.00    +0.087 A 
BRANCH  35  36
ATOM     36  C   UNL     1       4.175   1.272  22.599  0.00  0.00    +0.102 C 
ATOM     37  N   UNL     1       4.058   2.003  22.236  0.00  0.00    -0.191 NA
ENDBRANCH  35  36
ENDBRANCH  27  30
ENDBRANCH  26  27
ENDBRANCH  22  26
TORSDOF 9
ENDMDL
MODEL 3
REMARK VINA RESULT:      -7.4      2.048      2.521
REMARK  Name = 
REMARK  9 active torsions:
REMARK  status: ('A' for Active; 'I' for Inactive)
REMARK    1  A    between atoms: C_2  and  O_17
REMARK    2  A    between atoms: N_3  and  C_4
REMARK    3  A    between atoms: C_7  and  O_8
REMARK    4  A    between atoms: O_8  and  C_9
REMARK    5  A    between atoms: O_17  and  C_18
REMARK    6  A    between atoms: C_22  and  N_26
REMARK    7  A    between atoms: N_26  and  S_27
REMARK    8  A    between atoms: S_27  and  C_30
REMARK    9  A    between atoms: C_35  and  C_36
REMARK                            x       y       z     vdW  Elec       q    Type
REMARK                         _______ _______ _______ _____ _____    ______ ____
ROOT
ATOM     18  C   UNL     1      -0.394   1.496  24.517  0.00  0.00    +0.229 C 
ATOM     19  C   UNL     1      -0.259   1.225  25.284  0.00  0.00    +0.188 C 
ATOM     20  O   UNL     1      -0.938   0.834  25.539  0.00  0.00    -0.348 OA
ATOM     21  C   UNL     1      -1.493   0.862  24.931  0.00  0.00    +0.166 C 
ATOM     22  C   UNL     1      -2.256   0.637  24.711  0.00  0.00    +0.157 C 
ATOM     23  C   UNL     1      -2.392   0.908  23.944  0.00  0.00    +0.164 C 
ATOM     24  O   UNL     1      -1.712   1.299  23.688  0.00  0.00    -0.348 OA
ATOM     25  C   UNL     1      -1.157   1.271  24.298  0.00  0.00    +0.186 C 
ENDROOT
BRANCH  18  17
ATOM     17  O   UNL     1       0.140   1.917  24.049  0.00  0.00    -0.432 OA
BRANCH  17   2
ATOM      1  O   UNL     1       1.465   1.609  24.487  0.00  0.00    -0.224 OA
ATOM      2  C   UNL     1       0.889   1.606  23.896  0.00  0.00    +0.425 C 
ATOM      3  N   UNL     1       1.061   1.293  23.153  0.00  0.00    -0.142 NA
BRANCH   3   4
ATOM      4  C   UNL     1       1.810   0.982  22.999  0.00  0.00    +0.077 A 
ATOM      5  C   UNL     1       2.469   1.477  22.990  0.00  0.00    +0.020 A 
ATOM      6  C   UNL     1       3.218   1.166  22.836  0.00  0.00    +0.039 A 
ATOM      7  C   UNL     1       3.307   0.359  22.692  0.00  0.00    +0.145 A 
ATOM     15  C   UNL     1       2.648  -0.137  22.702  0.00  0.00    +0.039 A 
ATOM     16  C   UNL     1       1.900   0.174  22.856  0.00  0.00    +0.020 A 
BRANCH   7   8
ATOM      8  O   UNL     1       4.055   0.047  22.539  0.00  0.00    -0.453 OA
BRANCH   8   9
ATOM      9  C   UNL     1       4.578  -0.097  23.160  0.00  0.00    +0.145 A 
ATOM     10  C   UNL     1       5.099   0.493  23.406  0.00  0.00    +0.037 A 
ATOM     11  C   UNL     1       5.622   0.348  24.028  0.00  0.00    +0.003 A 
ATOM     12  C   UNL     1       5.623  -0.387  24.403  0.00  0.00    +0.000 A 
ATOM     13  C   UNL     1       5.101  -0.977  24.157  0.00  0.00    +0.003 A 
ATOM     14  C   UNL     1       4.579  -0.832  23.535  0.00  0.00    +0.037 A 
ENDBRANCH   8   9
ENDBRANCH   7   8
ENDBRANCH   3   4
ENDBRANCH  17   2
ENDBRANCH  18  17
BRANCH  22  26
ATOM     26  N   UNL     1      -2.790   0.216  25.178  0.00  0.00    -0.074 NA
BRANCH  26  27
ATOM     27  S   UNL     1      -3.158  -0.459  24.878  0.00  0.00    +0.078 S 
ATOM     28  O   UNL     1      -3.888  -0.076  24.917  0.00  0.00    -0.152 OA
ATOM     29  O   UNL     1      -2.428  -0.840  24.840  0.00  0.00    -0.152 OA
BRANCH  27  30
ATOM     30  C   UNL     1      -3.527  -1.133  24.578  0.00  0.00    +0.133 A 
ATOM     31  C   UNL     1      -3.772  -1.153  23.790  0.00  0.00    +0.021 A 
ATOM     32  C   UNL     1      -4.141  -1.827  23.490  0.00  0.00    +0.001 A 
ATOM     33  C   UNL     1      -4.265  -2.481  23.978  0.00  0.00    +0.001 A 
ATOM     34  C   UNL     1      -4.021  -2.461  24.765  0.00  0.00    +0.012 A 
ATOM     35  C   UNL     1      -3.652  -1.787  25.066  0.00  0.00    +0.087 A 
BRANCH  35  36
ATOM     36  C   UNL     1      -3.407  -1.767  25.854  0.00  0.00    +0.102 C 
ATOM     37  N   UNL     1      -3.163  -1.747  26.641  0.00  0.00    -0.191 NA
ENDBRANCH  35  36
ENDBRANCH  27  30
ENDBRANCH  26  27
ENDBRANCH  22  26
TORSDOF 9
ENDMDL
MODEL 4
REMARK VINA RESULT:      -6.1     14.578     16.383
REMARK  Name = 
REMARK  9 active torsions:
REMARK  status: ('A' for Active; 'I' for Inactive)
REMARK    1  A    between atoms: C_2  and  O_17
REMARK    2  A    between atoms: N_3  and  C_4
REMARK    3  A    between atoms: C_7  and  O_8
REMARK    4  A    between atoms: O_8  and  C_9
REMARK    5  A    between atoms: O_17  and  C_18
REMARK    6  A    between atoms: C_22  and  N_26
REMARK    7  A    between atoms: N_26  and  S_27
REMARK    8  A    between atoms: S_27  and  C_30
REMARK    9  A    between atoms: C_35  and  C_36
REMARK                            x       y       z     vdW  Elec       q    Type
REMARK                         _______ _______ _______ _____ _____    ______ ____
ROOT
ATOM     18  C   UNL     1      11.209  -7.630  32.712  0.00  0.00    +0.229 C 
ATOM     19  C   UNL     1      10.829  -6.916  32.873  0.00  0.00    +0.188 C 
ATOM     20  O   UNL     1      10.016  -7.052  32.855  0.00  0.00    -0.348 OA
ATOM     21  C   UNL     1       9.893  -7.848  32.683  0.00  0.00    +0.166 C 
ATOM     22  C   UNL     1       9.316  -8.426  32.565  0.00  0.00    +0.157 C 
ATOM     23  C   UNL     1       9.696  -9.139  32.403  0.00  0.00    +0.164 C 
ATOM     24  O   UNL     1      10.509  -9.003  32.421  0.00  0.00    -0.348 OA
ATOM     25  C   UNL     1      10.631  -8.206  32.594  0.00  0.00    +0.186 C 
ENDROOT
BRANCH  18  17
ATOM     17  O   UNL     1      12.026  -7.746  32.675  0.00  0.00    -0.432 OA
BRANCH  17   2
ATOM      1  O   UNL     1      12.396  -6.481  32.124  0.00  0.00    -0.224 OA
ATOM      2  C   UNL     1      12.483  -7.301  32.152  0.00  0.00    +0.425 C 
ATOM      3  N   UNL     1      13.027  -7.675  31.657  0.00  0.00    -0.142 NA
BRANCH   3   4
ATOM      4  C   UNL     1      13.484  -7.230  31.134  0.00  0.00    +0.077 A 
ATOM      5  C   UNL     1      14.193  -6.895  31.388  0.00  0.00    +0.020 A 
ATOM      6  C   UNL     1      14.651  -6.450  30.865  0.00  0.00    +0.039 A 
ATOM      7  C   UNL     1      14.398  -6.340  30.088  0.00  0.00    +0.145 A 
ATOM     15  C   UNL     1      13.688  -6.676  29.833  0.00  0.00    +0.039 A 
ATOM     16  C   UNL     1      13.231  -7.120  30.357  0.00  0.00    +0.020 A 
BRANCH   7   8
ATOM      8  O   UNL     1      14.855  -5.896  29.564  0.00  0.00    -0.453 OA
BRANCH   8   9
ATOM      9  C   UNL     1      15.404  -6.269  29.076  0.00  0.00    +0.145 A 
ATOM     10  C   UNL     1      15.154  -6.639  28.382  0.00  0.00    +0.037 A 
ATOM     11  C   UNL     1      15.704  -7.013  27.893  0.00  0.00    +0.003 A 
ATOM     12  C   UNL     1      16.503  -7.016  28.098  0.00  0.00    +0.000 A 
ATOM     13  C   UNL     1      16.753  -6.647  28.792  0.00  0.00    +0.003 A 
ATOM     14  C   UNL     1      16.203  -6.273  29.281  0.00  0.00    +0.037 A 
ENDBRANCH   8   9
ENDBRANCH   7   8
ENDBRANCH   3   4
ENDBRANCH  17   2
ENDBRANCH  18  17
BRANCH  22  26
ATOM     26  N   UNL     1       8.499  -8.309  32.602  0.00  0.00    -0.074 NA
BRANCH  26  27
ATOM     27  S   UNL     1       8.003  -8.692  32.065  0.00  0.00    +0.078 S 
ATOM     28  O   UNL     1       7.817  -9.254  32.640  0.00  0.00    -0.152 OA
ATOM     29  O   UNL     1       8.189  -8.129  31.491  0.00  0.00    -0.152 OA
BRANCH  27  30
ATOM     30  C   UNL     1       7.506  -9.075  31.530  0.00  0.00    +0.133 A 
ATOM     31  C   UNL     1       7.787  -9.716  31.093  0.00  0.00    +0.021 A 
ATOM     32  C   UNL     1       7.291 -10.100  30.557  0.00  0.00    +0.001 A 
ATOM     33  C   UNL     1       6.513  -9.843  30.459  0.00  0.00    +0.001 A 
ATOM     34  C   UNL     1       6.232  -9.202  30.896  0.00  0.00    +0.012 A 
ATOM     35  C   UNL     1       6.728  -8.818  31.431  0.00  0.00    +0.087 A 
BRANCH  35  36
ATOM     36  C   UNL     1       6.447  -8.177  31.869  0.00  0.00    +0.102 C 
ATOM     37  N   UNL     1       6.165  -7.537  32.305  0.00  0.00    -0.191 NA
ENDBRANCH  35  36
ENDBRANCH  27  30
ENDBRANCH  26  27
ENDBRANCH  22  26
TORSDOF 9
ENDMDL
MODEL 5
REMARK VINA RESULT:      -6.0     15.365     17.860
REMARK  Name = 
REMARK  9 active torsions:
REMARK  status: ('A' for Active; 'I' for Inactive)
REMARK    1  A    between atoms: C_2  and  O_17
REMARK    2  A    between atoms: N_3  and  C_4
REMARK    3  A    between atoms: C_7  and  O_8
REMARK    4  A    between atoms: O_8  and  C_9
REMARK    5  A    between atoms: O_17  and  C_18
REMARK    6  A    between atoms: C_22  and  N_26
REMARK    7  A    between atoms: N_26  and  S_27
REMARK    8  A    between atoms: S_27  and  C_30
REMARK    9  A    between atoms: C_35  and  C_36
REMARK                            x       y       z     vdW  Elec       q    Type
REMARK                         _______ _______ _______ _____ _____    ______ ____
ROOT
ATOM     18  C   UNL     1      11.846  -6.872  31.869  0.00  0.00    +0.229 C 
ATOM     19  C   UNL     1      11.833  -7.133  31.087  0.00  0.00    +0.188 C 
ATOM     20  O   UNL     1      12.559  -6.946  30.744  0.00  0.00    -0.348 OA
ATOM     21  C   UNL     1      13.021  -6.570  31.313  0.00  0.00    +0.166 C 
ATOM     22  C   UNL     1      13.756  -6.221  31.455  0.00  0.00    +0.157 C 
ATOM     23  C   UNL     1      13.769  -5.961  32.237  0.00  0.00    +0.164 C 
ATOM     24  O   UNL     1      13.043  -6.148  32.580  0.00  0.00    -0.348 OA
ATOM     25  C   UNL     1      12.580  -6.524  32.009  0.00  0.00    +0.186 C 
ENDROOT
BRANCH  18  17
ATOM     17  O   UNL     1      11.232  -6.946  32.416  0.00  0.00    -0.432 OA
BRANCH  17   2
ATOM      1  O   UNL     1      10.311  -7.528  31.491  0.00  0.00    -0.224 OA
ATOM      2  C   UNL     1      10.601  -7.454  32.261  0.00  0.00    +0.425 C 
ATOM      3  N   UNL     1      10.260  -7.888  32.873  0.00  0.00    -0.142 NA
BRANCH   3   4
ATOM      4  C   UNL     1       9.629  -8.396  32.719  0.00  0.00    +0.077 A 
ATOM      5  C   UNL     1       9.771  -9.187  32.533  0.00  0.00    +0.020 A 
ATOM      6  C   UNL     1       9.140  -9.695  32.378  0.00  0.00    +0.039 A 
ATOM      7  C   UNL     1       8.366  -9.412  32.409  0.00  0.00    +0.145 A 
ATOM     15  C   UNL     1       8.223  -8.620  32.595  0.00  0.00    +0.039 A 
ATOM     16  C   UNL     1       8.855  -8.113  32.749  0.00  0.00    +0.020 A 
BRANCH   7   8
ATOM      8  O   UNL     1       7.734  -9.919  32.254  0.00  0.00    -0.453 OA
BRANCH   8   9
ATOM      9  C   UNL     1       7.462 -10.016  31.482  0.00  0.00    +0.145 A 
ATOM     10  C   UNL     1       7.694 -10.675  31.042  0.00  0.00    +0.037 A 
ATOM     11  C   UNL     1       7.422 -10.772  30.270  0.00  0.00    +0.003 A 
ATOM     12  C   UNL     1       6.917 -10.210  29.937  0.00  0.00    +0.000 A 
ATOM     13  C   UNL     1       6.685  -9.551  30.376  0.00  0.00    +0.003 A 
ATOM     14  C   UNL     1       6.958  -9.455  31.149  0.00  0.00    +0.037 A 
ENDBRANCH   8   9
ENDBRANCH   7   8
ENDBRANCH   3   4
ENDBRANCH  17   2
ENDBRANCH  18  17
BRANCH  22  26
ATOM     26  N   UNL     1      14.370  -6.147  30.908  0.00  0.00    -0.074 NA
BRANCH  26  27
ATOM     27  S   UNL     1      14.820  -5.456  30.884  0.00  0.00    +0.078 S 
ATOM     28  O   UNL     1      14.329  -5.158  30.292  0.00  0.00    -0.152 OA
ATOM     29  O   UNL     1      15.310  -5.754  31.477  0.00  0.00    -0.152 OA
BRANCH  27  30
ATOM     30  C   UNL     1      15.269  -4.764  30.859  0.00  0.00    +0.133 A 
ATOM     31  C   UNL     1      15.077  -4.130  31.352  0.00  0.00    +0.021 A 
ATOM     32  C   UNL     1      15.526  -3.439  31.327  0.00  0.00    +0.001 A 
ATOM     33  C   UNL     1      16.166  -3.381  30.810  0.00  0.00    +0.001 A 
ATOM     34  C   UNL     1      16.357  -4.014  30.318  0.00  0.00    +0.012 A 
ATOM     35  C   UNL     1      15.909  -4.706  30.342  0.00  0.00    +0.087 A 
BRANCH  35  36
ATOM     36  C   UNL     1      16.100  -5.340  29.849  0.00  0.00    +0.102 C 
ATOM     37  N   UNL     1      16.291  -5.973  29.357  0.00  0.00    -0.191 NA
ENDBRANCH  35  36
ENDBRANCH  27  30
ENDBRANCH  26  27
ENDBRANCH  22  26
TORSDOF 9
ENDMDL
MODEL 6
REMARK VINA RESULT:      -5.9     14.727     16.524
REMARK  Name = 
REMARK  9 active torsions:
REMARK  status: ('A' for Active; 'I' for Inactive)
REMARK    1  A    between atoms: C_2  and  O_17
REMARK    2  A    between atoms: N_3  and  C_4
REMARK    3  A    between atoms: C_7  and  O_8
REMARK    4  A    between atoms: O_8  and  C_9
REMARK    5  A    between atoms: O_17  and  C_18
REMARK    6  A    between atoms: C_22  and  N_26
REMARK    7  A    between atoms: N_26  and  S_27
REMARK    8  A    between atoms: S_27  and  C_30
REMARK    9  A    between atoms: C_35  and  C_36
REMARK                            x       y       z     vdW  Elec       q    Type
REMARK                         _______ _______ _______ _____ _____    ______ ____
ROOT
ATOM     18  C   UNL     1      11.170  -7.399  32.643  0.00  0.00    +0.229 C 
ATOM     19  C   UNL     1      10.691  -6.769  32.873  0.00  0.00    +0.188 C 
ATOM     20  O   UNL     1       9.906  -7.016  32.825  0.00  0.00    -0.348 OA
ATOM     21  C   UNL     1       9.899  -7.798  32.565  0.00  0.00    +0.166 C 
ATOM     22  C   UNL     1       9.410  -8.434  32.374  0.00  0.00    +0.157 C 
ATOM     23  C   UNL     1       9.890  -9.065  32.143  0.00  0.00    +0.164 C 
ATOM     24  O   UNL     1      10.675  -8.818  32.191  0.00  0.00    -0.348 OA
ATOM     25  C   UNL     1      10.681  -8.035  32.452  0.00  0.00    +0.186 C 
ENDROOT
BRANCH  18  17
ATOM     17  O   UNL     1      11.995  -7.394  32.609  0.00  0.00    -0.432 OA
BRANCH  17   2
ATOM      1  O   UNL     1      12.051  -6.380  31.603  0.00  0.00    -0.224 OA
ATOM      2  C   UNL     1      12.390  -6.764  32.251  0.00  0.00    +0.425 C 
ATOM      3  N   UNL     1      13.121  -6.518  32.540  0.00  0.00    -0.142 NA
BRANCH   3   4
ATOM      4  C   UNL     1      13.516  -5.888  32.182  0.00  0.00    +0.077 A 
ATOM      5  C   UNL     1      13.449  -5.128  32.494  0.00  0.00    +0.020 A 
ATOM      6  C   UNL     1      13.843  -4.497  32.137  0.00  0.00    +0.039 A 
ATOM      7  C   UNL     1      14.306  -4.628  31.466  0.00  0.00    +0.145 A 
ATOM     15  C   UNL     1      14.374  -5.389  31.154  0.00  0.00    +0.039 A 
ATOM     16  C   UNL     1      13.979  -6.018  31.512  0.00  0.00    +0.020 A 
BRANCH   7   8
ATOM      8  O   UNL     1      14.701  -3.999  31.108  0.00  0.00    -0.453 OA
BRANCH   8   9
ATOM      9  C   UNL     1      15.432  -3.751  31.399  0.00  0.00    +0.145 A 
ATOM     10  C   UNL     1      16.125  -4.108  31.129  0.00  0.00    +0.037 A 
ATOM     11  C   UNL     1      16.856  -3.860  31.420  0.00  0.00    +0.003 A 
ATOM     12  C   UNL     1      16.894  -3.255  31.980  0.00  0.00    +0.000 A 
ATOM     13  C   UNL     1      16.201  -2.898  32.250  0.00  0.00    +0.003 A 
ATOM     14  C   UNL     1      15.469  -3.147  31.959  0.00  0.00    +0.037 A 
ENDBRANCH   8   9
ENDBRANCH   7   8
ENDBRANCH   3   4
ENDBRANCH  17   2
ENDBRANCH  18  17
BRANCH  22  26
ATOM     26  N   UNL     1       8.586  -8.439  32.408  0.00  0.00    -0.074 NA
BRANCH  26  27
ATOM     27  S   UNL     1       8.156  -8.949  31.922  0.00  0.00    +0.078 S 
ATOM     28  O   UNL     1       8.035  -9.456  32.561  0.00  0.00    -0.152 OA
ATOM     29  O   UNL     1       8.276  -8.441  31.282  0.00  0.00    -0.152 OA
BRANCH  27  30
ATOM     30  C   UNL     1       7.725  -9.459  31.437  0.00  0.00    +0.133 A 
ATOM     31  C   UNL     1       8.077 -10.147  31.146  0.00  0.00    +0.021 A 
ATOM     32  C   UNL     1       7.647 -10.656  30.661  0.00  0.00    +0.001 A 
ATOM     33  C   UNL     1       6.865 -10.479  30.466  0.00  0.00    +0.001 A 
ATOM     34  C   UNL     1       6.514  -9.792  30.756  0.00  0.00    +0.012 A 
ATOM     35  C   UNL     1       6.943  -9.282  31.242  0.00  0.00    +0.087 A 
BRANCH  35  36
ATOM     36  C   UNL     1       6.591  -8.594  31.532  0.00  0.00    +0.102 C 
ATOM     37  N   UNL     1       6.240  -7.907  31.822  0.00  0.00    -0.191 NA
ENDBRANCH  35  36
ENDBRANCH  27  30
ENDBRANCH  26  27
ENDBRANCH  22  26
TORSDOF 9
ENDMDL
MODEL 7
REMARK VINA RESULT:      -5.6     15.019     18.237
REMARK  Name = 
REMARK  9 active torsions:
REMARK  status: ('A' for Active; 'I' for Inactive)
REMARK    1  A    between atoms: C_2  and  O_17
REMARK    2  A    between atoms: N_3  and  C_4
REMARK    3  A    between atoms: C_7  and  O_8
REMARK    4  A    between atoms: O_8  and  C_9
REMARK    5  A    between atoms: O_17  and  C_18
REMARK    6  A    between atoms: C_22  and  N_26
REMARK    7  A    between atoms: N_26  and  S_27
REMARK    8  A    between atoms: S_27  and  C_30
REMARK    9  A    between atoms: C_35  and  C_36
REMARK                            x       y       z     vdW  Elec       q    Type
REMARK                         _______ _______ _______ _____ _____    ______ ____
ROOT
ATOM     18  C   UNL     1      12.454  -6.920  31.231  0.00  0.00    +0.229 C 
ATOM     19  C   UNL     1      12.100  -6.509  30.610  0.00  0.00    +0.188 C 
ATOM     20  O   UNL     1      12.660  -6.420  30.012  0.00  0.00    -0.348 OA
ATOM     21  C   UNL     1      13.360  -6.775  30.263  0.00  0.00    +0.166 C 
ATOM     22  C   UNL     1      14.140  -6.940  30.049  0.00  0.00    +0.157 C 
ATOM     23  C   UNL     1      14.494  -7.351  30.670  0.00  0.00    +0.164 C 
ATOM     24  O   UNL     1      13.934  -7.440  31.268  0.00  0.00    -0.348 OA
ATOM     25  C   UNL     1      13.233  -7.084  31.017  0.00  0.00    +0.186 C 
ENDROOT
BRANCH  18  17
ATOM     17  O   UNL     1      12.092  -7.130  31.943  0.00  0.00    -0.432 OA
BRANCH  17   2
ATOM      1  O   UNL     1      10.817  -7.270  31.314  0.00  0.00    -0.224 OA
ATOM      2  C   UNL     1      11.326  -7.436  31.942  0.00  0.00    +0.425 C 
ATOM      3  N   UNL     1      11.069  -7.907  32.568  0.00  0.00    -0.142 NA
BRANCH   3   4
ATOM      4  C   UNL     1      10.303  -8.213  32.567  0.00  0.00    +0.077 A 
ATOM      5  C   UNL     1       9.680  -7.767  32.870  0.00  0.00    +0.020 A 
ATOM      6  C   UNL     1       8.913  -8.073  32.869  0.00  0.00    +0.039 A 
ATOM      7  C   UNL     1       8.771  -8.827  32.565  0.00  0.00    +0.145 A 
ATOM     15  C   UNL     1       9.395  -9.274  32.262  0.00  0.00    +0.039 A 
ATOM     16  C   UNL     1      10.161  -8.967  32.263  0.00  0.00    +0.020 A 
BRANCH   7   8
ATOM      8  O   UNL     1       8.006  -9.134  32.564  0.00  0.00    -0.453 OA
BRANCH   8   9
ATOM      9  C   UNL     1       7.508  -9.001  31.919  0.00  0.00    +0.145 A 
ATOM     10  C   UNL     1       7.486  -9.543  31.297  0.00  0.00    +0.037 A 
ATOM     11  C   UNL     1       6.989  -9.410  30.652  0.00  0.00    +0.003 A 
ATOM     12  C   UNL     1       6.514  -8.735  30.630  0.00  0.00    +0.000 A 
ATOM     13  C   UNL     1       6.536  -8.193  31.252  0.00  0.00    +0.003 A 
ATOM     14  C   UNL     1       7.034  -8.327  31.897  0.00  0.00    +0.037 A 
ENDBRANCH   8   9
ENDBRANCH   7   8
ENDBRANCH   3   4
ENDBRANCH  17   2
ENDBRANCH  18  17
BRANCH  22  26
ATOM     26  N   UNL     1      14.502  -6.730  29.337  0.00  0.00    -0.074 NA
BRANCH  26  27
ATOM     27  S   UNL     1      15.221  -7.073  29.123  0.00  0.00    +0.078 S 
ATOM     28  O   UNL     1      14.822  -7.746  28.863  0.00  0.00    -0.152 OA
ATOM     29  O   UNL     1      15.620  -6.399  29.384  0.00  0.00    -0.152 OA
BRANCH  27  30
ATOM     30  C   UNL     1      15.940  -7.416  28.909  0.00  0.00    +0.133 A 
ATOM     31  C   UNL     1      16.409  -7.782  29.481  0.00  0.00    +0.021 A 
ATOM     32  C   UNL     1      17.128  -8.125  29.267  0.00  0.00    +0.001 A 
ATOM     33  C   UNL     1      17.378  -8.103  28.481  0.00  0.00    +0.001 A 
ATOM     34  C   UNL     1      16.910  -7.737  27.910  0.00  0.00    +0.012 A 
ATOM     35  C   UNL     1      16.191  -7.394  28.123  0.00  0.00    +0.087 A 
BRANCH  35  36
ATOM     36  C   UNL     1      15.722  -7.028  27.551  0.00  0.00    +0.102 C 
ATOM     37  N   UNL     1      15.254  -6.662  26.979  0.00  0.00    -0.191 NA
ENDBRANCH  35  36
ENDBRANCH  27  30
ENDBRANCH  26  27
ENDBRANCH  22  26
TORSDOF 9
ENDMDL
