MODEL 1
REMARK VINA RESULT:     -10.1      0.000      0.000
REMARK  Name = 
REMARK  7 active torsions:
REMARK  status: ('A' for Active; 'I' for Inactive)
REMARK    1  A    between atoms: C_5  and  C_6
REMARK    2  A    between atoms: C_6  and  N_7
REMARK    3  A    between atoms: N_7  and  C_8
REMARK    4  A    between atoms: C_11  and  C_12
REMARK    5  A    between atoms: C_12  and  N_13
REMARK    6  A    between atoms: N_13  and  S_14
REMARK    7  A    between atoms: S_14  and  C_17
REMARK                            x       y       z     vdW  Elec       q    Type
REMARK                         _______ _______ _______ _____ _____    ______ ____
ROOT
ATOM      8  C   UNL     1      -4.355   0.730  24.638  0.00  0.00    +0.135 C 
ATOM      9  C   UNL     1      -4.830   1.038  25.237  0.00  0.00    +0.162 C 
ATOM     10  O   UNL     1      -4.654   1.839  25.316  0.00  0.00    -0.350 OA
ATOM     11  C   UNL     1      -4.069   2.027  24.765  0.00  0.00    +0.166 C 
ATOM     24  C   UNL     1      -3.884   1.342  24.346  0.00  0.00    +0.199 C 
ATOM     25  O   UNL     1      -3.327   1.279  23.741  0.00  0.00    -0.219 OA
ENDROOT
BRANCH   8   7
ATOM      7  N   UNL     1      -4.350  -0.052  24.375  0.00  0.00    -0.209 NA
BRANCH   7   6
ATOM      6  C   UNL     1      -4.369  -0.671  24.921  0.00  0.00    +0.115 C 
BRANCH   6   5
ATOM      1  C   UNL     1      -3.239  -3.654  24.075  0.00  0.00    +0.031 C 
ATOM      2  C   UNL     1      -3.522  -2.907  24.287  0.00  0.00    -0.022 A 
ATOM      3  C   UNL     1      -4.058  -2.516  23.797  0.00  0.00    -0.005 A 
ATOM      4  C   UNL     1      -4.341  -1.770  24.008  0.00  0.00    -0.003 A 
ATOM      5  C   UNL     1      -4.087  -1.416  24.709  0.00  0.00    -0.005 A 
ATOM     26  C   UNL     1      -3.550  -1.808  25.198  0.00  0.00    -0.003 A 
ATOM     27  C   UNL     1      -3.268  -2.554  24.987  0.00  0.00    -0.005 A 
ENDBRANCH   6   5
ENDBRANCH   7   6
ENDBRANCH   8   7
BRANCH  11  12
ATOM     12  C   UNL     1      -3.729   2.771  24.654  0.00  0.00    +0.148 C 
BRANCH  12  13
ATOM     13  N   UNL     1      -3.444   3.196  25.302  0.00  0.00    -0.075 NA
BRANCH  13  14
ATOM     14  S   UNL     1      -2.810   3.715  25.208  0.00  0.00    +0.077 S 
ATOM     15  O   UNL     1      -2.419   3.349  25.836  0.00  0.00    -0.152 OA
ATOM     16  O   UNL     1      -3.202   4.080  24.580  0.00  0.00    -0.152 OA
BRANCH  14  17
ATOM     17  C   UNL     1      -2.176   4.233  25.114  0.00  0.00    +0.124 A 
ATOM     18  C   UNL     1      -2.293   5.047  25.192  0.00  0.00    +0.020 A 
ATOM     19  C   UNL     1      -1.659   5.566  25.098  0.00  0.00    -0.003 A 
ATOM     20  C   UNL     1      -0.907   5.271  24.927  0.00  0.00    -0.022 A 
ATOM     21  C   UNL     1      -0.272   5.791  24.833  0.00  0.00    +0.031 C 
ATOM     22  C   UNL     1      -0.790   4.459  24.850  0.00  0.00    -0.003 A 
ATOM     23  C   UNL     1      -1.424   3.940  24.944  0.00  0.00    +0.020 A 
ENDBRANCH  14  17
ENDBRANCH  13  14
ENDBRANCH  12  13
ENDBRANCH  11  12
TORSDOF 7
ENDMDL
MODEL 2
REMARK VINA RESULT:     -10.0      1.164      6.021
REMARK  Name = 
REMARK  7 active torsions:
REMARK  status: ('A' for Active; 'I' for Inactive)
REMARK    1  A    between atoms: C_5  and  C_6
REMARK    2  A    between atoms: C_6  and  N_7
REMARK    3  A    between atoms: N_7  and  C_8
REMARK    4  A    between atoms: C_11  and  C_12
REMARK    5  A    between atoms: C_12  and  N_13
REMARK    6  A    between atoms: N_13  and  S_14
REMARK    7  A    between atoms: S_14  and  C_17
REMARK                            x       y       z     vdW  Elec       q    Type
REMARK                         _______ _______ _______ _____ _____    ______ ____
ROOT
ATOM      8  C   UNL     1      -3.777   2.849  24.950  0.00  0.00    +0.135 C 
ATOM      9  C   UNL     1      -4.384   2.756  25.500  0.00  0.00    +0.162 C 
ATOM     10  O   UNL     1      -4.680   1.990  25.428  0.00  0.00    -0.350 OA
ATOM     11  C   UNL     1      -4.255   1.608  24.832  0.00  0.00    +0.166 C 
ATOM     24  C   UNL     1      -3.697   2.139  24.537  0.00  0.00    +0.199 C 
ATOM     25  O   UNL     1      -3.155   1.987  23.935  0.00  0.00    -0.219 OA
ENDROOT
BRANCH   8   7
ATOM      7  N   UNL     1      -3.328   3.531  24.833  0.00  0.00    -0.209 NA
BRANCH   7   6
ATOM      6  C   UNL     1      -2.861   3.828  25.445  0.00  0.00    +0.115 C 
BRANCH   6   5
ATOM      1  C   UNL     1      -0.253   5.729  24.759  0.00  0.00    +0.031 C 
ATOM      2  C   UNL     1      -0.906   5.253  24.930  0.00  0.00    -0.022 A 
ATOM      3  C   UNL     1      -0.807   4.441  25.034  0.00  0.00    -0.005 A 
ATOM      4  C   UNL     1      -1.460   3.965  25.205  0.00  0.00    -0.003 A 
ATOM      5  C   UNL     1      -2.210   4.303  25.273  0.00  0.00    -0.005 A 
ATOM     26  C   UNL     1      -2.307   5.115  25.170  0.00  0.00    -0.003 A 
ATOM     27  C   UNL     1      -1.655   5.591  24.998  0.00  0.00    -0.005 A 
ENDBRANCH   6   5
ENDBRANCH   7   6
ENDBRANCH   8   7
BRANCH  11  12
ATOM     12  C   UNL     1      -4.369   0.832  24.577  0.00  0.00    +0.148 C 
BRANCH  12  13
ATOM     13  N   UNL     1      -4.459   0.225  25.129  0.00  0.00    -0.075 NA
BRANCH  13  14
ATOM     14  S   UNL     1      -4.244  -0.547  24.932  0.00  0.00    +0.077 S 
ATOM     15  O   UNL     1      -4.683  -0.491  24.236  0.00  0.00    -0.152 OA
ATOM     16  O   UNL     1      -3.805  -0.602  25.629  0.00  0.00    -0.152 OA
BRANCH  14  17
ATOM     17  C   UNL     1      -4.029  -1.318  24.734  0.00  0.00    +0.124 A 
ATOM     18  C   UNL     1      -3.551  -1.756  25.245  0.00  0.00    +0.020 A 
ATOM     19  C   UNL     1      -3.336  -2.529  25.048  0.00  0.00    -0.003 A 
ATOM     20  C   UNL     1      -3.599  -2.862  24.340  0.00  0.00    -0.022 A 
ATOM     21  C   UNL     1      -3.384  -3.634  24.143  0.00  0.00    +0.031 C 
ATOM     22  C   UNL     1      -4.077  -2.424  23.830  0.00  0.00    -0.003 A 
ATOM     23  C   UNL     1      -4.292  -1.652  24.028  0.00  0.00    +0.020 A 
ENDBRANCH  14  17
ENDBRANCH  13  14
ENDBRANCH  12  13
ENDBRANCH  11  12
TORSDOF 7
ENDMDL
MODEL 3
REMARK VINA RESULT:     -10.0      2.081      6.365
REMARK  Name = 
REMARK  7 active torsions:
REMARK  status: ('A' for Active; 'I' for Inactive)
REMARK    1  A    between atoms: C_5  and  C_6
REMARK    2  A    between atoms: C_6  and  N_7
REMARK    3  A    between atoms: N_7  and  C_8
REMARK    4  A    between atoms: C_11  and  C_12
REMARK    5  A    between atoms: C_12  and  N_13
REMARK    6  A    between atoms: N_13  and  S_14
REMARK    7  A    between atoms: S_14  and  C_17
REMARK                            x       y       z     vdW  Elec       q    Type
REMARK                         _______ _______ _______ _____ _____    ______ ____
ROOT
ATOM      8  C   UNL     1      -0.770   1.742  25.178  0.00  0.00    +0.135 C 
ATOM      9  C   UNL     1      -0.555   1.365  25.880  0.00  0.00    +0.162 C 
ATOM     10  O   UNL     1      -0.776   0.573  25.822  0.00  0.00    -0.350 OA
ATOM     11  C   UNL     1      -1.128   0.459  25.085  0.00  0.00    +0.166 C 
ATOM     24  C   UNL     1      -1.125   1.181  24.687  0.00  0.00    +0.199 C 
ATOM     25  O   UNL     1      -1.424   1.319  23.931  0.00  0.00    -0.219 OA
ENDROOT
BRANCH   8   7
ATOM      7  N   UNL     1      -0.653   2.538  24.999  0.00  0.00    -0.209 NA
BRANCH   7   6
ATOM      6  C   UNL     1      -0.728   3.110  25.589  0.00  0.00    +0.115 C 
BRANCH   6   5
ATOM      1  C   UNL     1      -1.704   6.165  24.813  0.00  0.00    +0.031 C 
ATOM      2  C   UNL     1      -1.460   5.401  25.007  0.00  0.00    -0.022 A 
ATOM      3  C   UNL     1      -1.957   4.907  25.444  0.00  0.00    -0.005 A 
ATOM      4  C   UNL     1      -1.713   4.144  25.638  0.00  0.00    -0.003 A 
ATOM      5  C   UNL     1      -0.972   3.873  25.395  0.00  0.00    -0.005 A 
ATOM     26  C   UNL     1      -0.475   4.367  24.959  0.00  0.00    -0.003 A 
ATOM     27  C   UNL     1      -0.719   5.130  24.765  0.00  0.00    -0.005 A 
ENDBRANCH   6   5
ENDBRANCH   7   6
ENDBRANCH   8   7
BRANCH  11  12
ATOM     12  C   UNL     1      -1.431  -0.253  24.797  0.00  0.00    +0.148 C 
BRANCH  12  13
ATOM     13  N   UNL     1      -1.897  -0.730  25.283  0.00  0.00    -0.075 NA
BRANCH  13  14
ATOM     14  S   UNL     1      -2.461  -1.231  24.950  0.00  0.00    +0.077 S 
ATOM     15  O   UNL     1      -3.050  -0.864  25.395  0.00  0.00    -0.152 OA
ATOM     16  O   UNL     1      -1.870  -1.598  24.505  0.00  0.00    -0.152 OA
BRANCH  14  17
ATOM     17  C   UNL     1      -3.025  -1.732  24.617  0.00  0.00    +0.124 A 
ATOM     18  C   UNL     1      -3.664  -1.415  24.202  0.00  0.00    +0.020 A 
ATOM     19  C   UNL     1      -4.229  -1.916  23.868  0.00  0.00    -0.003 A 
ATOM     20  C   UNL     1      -4.153  -2.734  23.950  0.00  0.00    -0.022 A 
ATOM     21  C   UNL     1      -4.718  -3.236  23.616  0.00  0.00    +0.031 C 
ATOM     22  C   UNL     1      -3.515  -3.050  24.364  0.00  0.00    -0.003 A 
ATOM     23  C   UNL     1      -2.950  -2.549  24.698  0.00  0.00    +0.020 A 
ENDBRANCH  14  17
ENDBRANCH  13  14
ENDBRANCH  12  13
ENDBRANCH  11  12
TORSDOF 7
ENDMDL
MODEL 4
REMARK VINA RESULT:      -9.9      1.781      2.194
REMARK  Name = 
REMARK  7 active torsions:
REMARK  status: ('A' for Active; 'I' for Inactive)
REMARK    1  A    between atoms: C_5  and  C_6
REMARK    2  A    between atoms: C_6  and  N_7
REMARK    3  A    between atoms: N_7  and  C_8
REMARK    4  A    between atoms: C_11  and  C_12
REMARK    5  A    between atoms: C_12  and  N_13
REMARK    6  A    between atoms: N_13  and  S_14
REMARK    7  A    between atoms: S_14  and  C_17
REMARK                            x       y       z     vdW  Elec       q    Type
REMARK                         _______ _______ _______ _____ _____    ______ ____
ROOT
ATOM      8  C   UNL     1      -1.510  -0.315  25.108  0.00  0.00    +0.135 C 
ATOM      9  C   UNL     1      -1.209  -0.283  25.875  0.00  0.00    +0.162 C 
ATOM     10  O   UNL     1      -0.850   0.452  25.977  0.00  0.00    -0.350 OA
ATOM     11  C   UNL     1      -0.929   0.875  25.273  0.00  0.00    +0.166 C 
ATOM     24  C   UNL     1      -1.336   0.401  24.736  0.00  0.00    +0.199 C 
ATOM     25  O   UNL     1      -1.536   0.606  23.963  0.00  0.00    -0.219 OA
ENDROOT
BRANCH   8   7
ATOM      7  N   UNL     1      -1.913  -0.951  24.772  0.00  0.00    -0.209 NA
BRANCH   7   6
ATOM      6  C   UNL     1      -2.559  -1.284  25.163  0.00  0.00    +0.115 C 
BRANCH   6   5
ATOM      1  C   UNL     1      -4.728  -3.130  23.496  0.00  0.00    +0.031 C 
ATOM      2  C   UNL     1      -4.185  -2.668  23.913  0.00  0.00    -0.022 A 
ATOM      3  C   UNL     1      -3.526  -3.022  24.263  0.00  0.00    -0.005 A 
ATOM      4  C   UNL     1      -2.984  -2.560  24.679  0.00  0.00    -0.003 A 
ATOM      5  C   UNL     1      -3.100  -1.745  24.746  0.00  0.00    -0.005 A 
ATOM     26  C   UNL     1      -3.759  -1.394  24.396  0.00  0.00    -0.003 A 
ATOM     27  C   UNL     1      -4.301  -1.855  23.979  0.00  0.00    -0.005 A 
ENDBRANCH   6   5
ENDBRANCH   7   6
ENDBRANCH   8   7
BRANCH  11  12
ATOM     12  C   UNL     1      -0.648   1.638  25.132  0.00  0.00    +0.148 C 
BRANCH  12  13
ATOM     13  N   UNL     1      -0.672   2.204  25.732  0.00  0.00    -0.075 NA
BRANCH  13  14
ATOM     14  S   UNL     1      -0.848   2.989  25.551  0.00  0.00    +0.077 S 
ATOM     15  O   UNL     1      -0.259   2.988  24.974  0.00  0.00    -0.152 OA
ATOM     16  O   UNL     1      -1.438   2.989  26.128  0.00  0.00    -0.152 OA
BRANCH  14  17
ATOM     17  C   UNL     1      -1.025   3.774  25.369  0.00  0.00    +0.124 A 
ATOM     18  C   UNL     1      -1.760   4.089  25.573  0.00  0.00    +0.020 A 
ATOM     19  C   UNL     1      -1.937   4.875  25.392  0.00  0.00    -0.003 A 
ATOM     20  C   UNL     1      -1.378   5.345  25.007  0.00  0.00    -0.022 A 
ATOM     21  C   UNL     1      -1.555   6.131  24.826  0.00  0.00    +0.031 C 
ATOM     22  C   UNL     1      -0.644   5.030  24.803  0.00  0.00    -0.003 A 
ATOM     23  C   UNL     1      -0.467   4.244  24.985  0.00  0.00    +0.020 A 
ENDBRANCH  14  17
ENDBRANCH  13  14
ENDBRANCH  12  13
ENDBRANCH  11  12
TORSDOF 7
ENDMDL
MODEL 5
REMARK VINA RESULT:      -9.7      4.294      5.815
REMARK  Name = 
REMARK  7 active torsions:
REMARK  status: ('A' for Active; 'I' for Inactive)
REMARK    1  A    between atoms: C_5  and  C_6
REMARK    2  A    between atoms: C_6  and  N_7
REMARK    3  A    between atoms: N_7  and  C_8
REMARK    4  A    between atoms: C_11  and  C_12
REMARK    5  A    between atoms: C_12  and  N_13
REMARK    6  A    between atoms: N_13  and  S_14
REMARK    7  A    between atoms: S_14  and  C_17
REMARK                            x       y       z     vdW  Elec       q    Type
REMARK                         _______ _______ _______ _____ _____    ______ ____
ROOT
ATOM      8  C   UNL     1       0.832   0.531  23.466  0.00  0.00    +0.135 C 
ATOM      9  C   UNL     1       0.445  -0.141  23.183  0.00  0.00    +0.162 C 
ATOM     10  O   UNL     1      -0.354  -0.076  23.378  0.00  0.00    -0.350 OA
ATOM     11  C   UNL     1      -0.461   0.636  23.782  0.00  0.00    +0.166 C 
ATOM     24  C   UNL     1       0.271   1.011  23.836  0.00  0.00    +0.199 C 
ATOM     25  O   UNL     1       0.419   1.737  24.197  0.00  0.00    -0.219 OA
ENDROOT
BRANCH   8   7
ATOM      7  N   UNL     1       1.637   0.694  23.392  0.00  0.00    -0.209 NA
BRANCH   7   6
ATOM      6  C   UNL     1       2.103   0.247  22.879  0.00  0.00    +0.115 C 
BRANCH   6   5
ATOM      1  C   UNL     1       5.390   0.283  23.178  0.00  0.00    +0.031 C 
ATOM      2  C   UNL     1       4.567   0.274  23.103  0.00  0.00    -0.022 A 
ATOM      3  C   UNL     1       4.139  -0.392  23.336  0.00  0.00    -0.005 A 
ATOM      4  C   UNL     1       3.318  -0.401  23.261  0.00  0.00    -0.003 A 
ATOM      5  C   UNL     1       2.924   0.256  22.954  0.00  0.00    -0.005 A 
ATOM     26  C   UNL     1       3.353   0.922  22.721  0.00  0.00    -0.003 A 
ATOM     27  C   UNL     1       4.174   0.930  22.796  0.00  0.00    -0.005 A 
ENDBRANCH   6   5
ENDBRANCH   7   6
ENDBRANCH   8   7
BRANCH  11  12
ATOM     12  C   UNL     1      -1.176   0.922  24.079  0.00  0.00    +0.148 C 
BRANCH  12  13
ATOM     13  N   UNL     1      -1.874   0.501  23.950  0.00  0.00    -0.075 NA
BRANCH  13  14
ATOM     14  S   UNL     1      -2.595   0.811  24.205  0.00  0.00    +0.077 S 
ATOM     15  O   UNL     1      -2.442   0.539  24.968  0.00  0.00    -0.152 OA
ATOM     16  O   UNL     1      -2.747   1.083  23.440  0.00  0.00    -0.152 OA
BRANCH  14  17
ATOM     17  C   UNL     1      -3.315   1.121  24.459  0.00  0.00    +0.124 A 
ATOM     18  C   UNL     1      -3.418   1.939  24.507  0.00  0.00    +0.020 A 
ATOM     19  C   UNL     1      -4.139   2.250  24.762  0.00  0.00    -0.003 A 
ATOM     20  C   UNL     1      -4.757   1.742  24.969  0.00  0.00    -0.022 A 
ATOM     21  C   UNL     1      -5.478   2.053  25.223  0.00  0.00    +0.031 C 
ATOM     22  C   UNL     1      -4.653   0.926  24.921  0.00  0.00    -0.003 A 
ATOM     23  C   UNL     1      -3.932   0.615  24.666  0.00  0.00    +0.020 A 
ENDBRANCH  14  17
ENDBRANCH  13  14
ENDBRANCH  12  13
ENDBRANCH  11  12
TORSDOF 7
ENDMDL
MODEL 6
REMARK VINA RESULT:      -7.8     14.215     16.606
REMARK  Name = 
REMARK  7 active torsions:
REMARK  status: ('A' for Active; 'I' for Inactive)
REMARK    1  A    between atoms: C_5  and  C_6
REMARK    2  A    between atoms: C_6  and  N_7
REMARK    3  A    between atoms: N_7  and  C_8
REMARK    4  A    between atoms: C_11  and  C_12
REMARK    5  A    between atoms: C_12  and  N_13
REMARK    6  A    between atoms: N_13  and  S_14
REMARK    7  A    between atoms: S_14  and  C_17
REMARK                            x       y       z     vdW  Elec       q    Type
REMARK                         _______ _______ _______ _____ _____    ______ ____
ROOT
ATOM      8  C   UNL     1      -4.361 -10.413  13.026  0.00  0.00    +0.135 C 
ATOM      9  C   UNL     1      -3.640 -10.470  13.423  0.00  0.00    +0.162 C 
ATOM     10  O   UNL     1      -3.797 -10.520  14.231  0.00  0.00    -0.350 OA
ATOM     11  C   UNL     1      -4.615 -10.494  14.334  0.00  0.00    +0.166 C 
ATOM     24  C   UNL     1      -4.964 -10.428  13.590  0.00  0.00    +0.199 C 
ATOM     25  O   UNL     1      -5.773 -10.384  13.436  0.00  0.00    -0.219 OA
ENDROOT
BRANCH   8   7
ATOM      7  N   UNL     1      -4.462 -10.352  12.210  0.00  0.00    -0.209 NA
BRANCH   7   6
ATOM      6  C   UNL     1      -3.850 -10.064  11.738  0.00  0.00    +0.115 C 
BRANCH   6   5
ATOM      1  C   UNL     1      -4.406  -9.346   8.566  0.00  0.00    +0.031 C 
ATOM      2  C   UNL     1      -4.267  -9.526   9.360  0.00  0.00    -0.022 A 
ATOM      3  C   UNL     1      -4.184 -10.312   9.596  0.00  0.00    -0.005 A 
ATOM      4  C   UNL     1      -4.046 -10.492  10.389  0.00  0.00    -0.003 A 
ATOM      5  C   UNL     1      -3.989  -9.885  10.946  0.00  0.00    -0.005 A 
ATOM     26  C   UNL     1      -4.072  -9.099  10.709  0.00  0.00    -0.003 A 
ATOM     27  C   UNL     1      -4.211  -8.920   9.916  0.00  0.00    -0.005 A 
ENDBRANCH   6   5
ENDBRANCH   7   6
ENDBRANCH   8   7
BRANCH  11  12
ATOM     12  C   UNL     1      -5.014 -10.528  15.056  0.00  0.00    +0.148 C 
BRANCH  12  13
ATOM     13  N   UNL     1      -4.770 -10.053  15.685  0.00  0.00    -0.075 NA
BRANCH  13  14
ATOM     14  S   UNL     1      -5.103 -10.157  16.433  0.00  0.00    +0.077 S 
ATOM     15  O   UNL     1      -5.623  -9.534  16.288  0.00  0.00    -0.152 OA
ATOM     16  O   UNL     1      -4.582 -10.781  16.577  0.00  0.00    -0.152 OA
BRANCH  14  17
ATOM     17  C   UNL     1      -5.435 -10.261  17.180  0.00  0.00    +0.124 A 
ATOM     18  C   UNL     1      -6.248 -10.167  17.286  0.00  0.00    +0.020 A 
ATOM     19  C   UNL     1      -6.582 -10.271  18.034  0.00  0.00    -0.003 A 
ATOM     20  C   UNL     1      -6.101 -10.469  18.676  0.00  0.00    -0.022 A 
ATOM     21  C   UNL     1      -6.435 -10.572  19.424  0.00  0.00    +0.031 C 
ATOM     22  C   UNL     1      -5.290 -10.562  18.569  0.00  0.00    -0.003 A 
ATOM     23  C   UNL     1      -4.956 -10.459  17.821  0.00  0.00    +0.020 A 
ENDBRANCH  14  17
ENDBRANCH  13  14
ENDBRANCH  12  13
ENDBRANCH  11  12
TORSDOF 7
ENDMDL
MODEL 7
REMARK VINA RESULT:      -7.6     18.084     19.114
REMARK  Name = 
REMARK  7 active torsions:
REMARK  status: ('A' for Active; 'I' for Inactive)
REMARK    1  A    between atoms: C_5  and  C_6
REMARK    2  A    between atoms: C_6  and  N_7
REMARK    3  A    between atoms: N_7  and  C_8
REMARK    4  A    between atoms: C_11  and  C_12
REMARK    5  A    between atoms: C_12  and  N_13
REMARK    6  A    between atoms: N_13  and  S_14
REMARK    7  A    between atoms: S_14  and  C_17
REMARK                            x       y       z     vdW  Elec       q    Type
REMARK                         _______ _______ _______ _____ _____    ______ ____
ROOT
ATOM      8  C   UNL     1      -7.321  -8.200   8.888  0.00  0.00    +0.135 C 
ATOM      9  C   UNL     1      -6.937  -8.427   8.195  0.00  0.00    +0.162 C 
ATOM     10  O   UNL     1      -6.253  -8.837   8.405  0.00  0.00    -0.350 OA
ATOM     11  C   UNL     1      -6.214  -8.864   9.229  0.00  0.00    +0.166 C 
ATOM     24  C   UNL     1      -6.874  -8.470   9.528  0.00  0.00    +0.199 C 
ATOM     25  O   UNL     1      -7.056  -8.365  10.325  0.00  0.00    -0.219 OA
ENDROOT
BRANCH   8   7
ATOM      7  N   UNL     1      -8.027  -7.776   8.935  0.00  0.00    -0.209 NA
BRANCH   7   6
ATOM      6  C   UNL     1      -8.296  -7.348   8.284  0.00  0.00    +0.115 C 
BRANCH   6   5
ATOM      1  C   UNL     1     -10.674  -5.091   8.658  0.00  0.00    +0.031 C 
ATOM      2  C   UNL     1     -10.079  -5.656   8.564  0.00  0.00    -0.022 A 
ATOM      3  C   UNL     1      -9.304  -5.416   8.410  0.00  0.00    -0.005 A 
ATOM      4  C   UNL     1      -8.710  -5.980   8.316  0.00  0.00    -0.003 A 
ATOM      5  C   UNL     1      -8.890  -6.784   8.377  0.00  0.00    -0.005 A 
ATOM     26  C   UNL     1      -9.664  -7.022   8.531  0.00  0.00    -0.003 A 
ATOM     27  C   UNL     1     -10.259  -6.458   8.625  0.00  0.00    -0.005 A 
ENDBRANCH   6   5
ENDBRANCH   7   6
ENDBRANCH   8   7
BRANCH  11  12
ATOM     12  C   UNL     1      -5.620  -9.223   9.675  0.00  0.00    +0.148 C 
BRANCH  12  13
ATOM     13  N   UNL     1      -4.854  -9.278   9.373  0.00  0.00    -0.075 NA
BRANCH  13  14
ATOM     14  S   UNL     1      -4.231  -9.501   9.866  0.00  0.00    +0.077 S 
ATOM     15  O   UNL     1      -3.959  -8.723   9.874  0.00  0.00    -0.152 OA
ATOM     16  O   UNL     1      -4.504 -10.280   9.857  0.00  0.00    -0.152 OA
BRANCH  14  17
ATOM     17  C   UNL     1      -3.609  -9.724  10.359  0.00  0.00    +0.124 A 
ATOM     18  C   UNL     1      -2.906  -9.291  10.357  0.00  0.00    +0.020 A 
ATOM     19  C   UNL     1      -2.283  -9.513  10.851  0.00  0.00    -0.003 A 
ATOM     20  C   UNL     1      -2.364 -10.169  11.346  0.00  0.00    -0.022 A 
ATOM     21  C   UNL     1      -1.740 -10.392  11.839  0.00  0.00    +0.031 C 
ATOM     22  C   UNL     1      -3.065 -10.601  11.347  0.00  0.00    -0.003 A 
ATOM     23  C   UNL     1      -3.689 -10.379  10.854  0.00  0.00    +0.020 A 
ENDBRANCH  14  17
ENDBRANCH  13  14
ENDBRANCH  12  13
ENDBRANCH  11  12
TORSDOF 7
ENDMDL
MODEL 8
REMARK VINA RESULT:      -7.3     14.476     15.845
REMARK  Name = 
REMARK  7 active torsions:
REMARK  status: ('A' for Active; 'I' for Inactive)
REMARK    1  A    between atoms: C_5  and  C_6
REMARK    2  A    between atoms: C_6  and  N_7
REMARK    3  A    between atoms: N_7  and  C_8
REMARK    4  A    between atoms: C_11  and  C_12
REMARK    5  A    between atoms: C_12  and  N_13
REMARK    6  A    between atoms: N_13  and  S_14
REMARK    7  A    between atoms: S_14  and  C_17
REMARK                            x       y       z     vdW  Elec       q    Type
REMARK                         _______ _______ _______ _____ _____    ______ ____
ROOT
ATOM      8  C   UNL     1      -4.995 -10.418  14.858  0.00  0.00    +0.135 C 
ATOM      9  C   UNL     1      -4.842 -10.715  15.612  0.00  0.00    +0.162 C 
ATOM     10  O   UNL     1      -5.480 -10.521  16.096  0.00  0.00    -0.350 OA
ATOM     11  C   UNL     1      -6.028 -10.104  15.642  0.00  0.00    +0.166 C 
ATOM     24  C   UNL     1      -5.728 -10.039  14.876  0.00  0.00    +0.199 C 
ATOM     25  O   UNL     1      -6.096  -9.664  14.241  0.00  0.00    -0.219 OA
ENDROOT
BRANCH   8   7
ATOM      7  N   UNL     1      -4.501 -10.486  14.200  0.00  0.00    -0.209 NA
BRANCH   7   6
ATOM      6  C   UNL     1      -3.712 -10.708  14.297  0.00  0.00    +0.115 C 
BRANCH   6   5
ATOM      1  C   UNL     1      -1.569 -10.312  11.819  0.00  0.00    +0.031 C 
ATOM      2  C   UNL     1      -2.105 -10.411  12.439  0.00  0.00    -0.022 A 
ATOM      3  C   UNL     1      -2.897 -10.580  12.277  0.00  0.00    -0.005 A 
ATOM      4  C   UNL     1      -3.432 -10.679  12.896  0.00  0.00    -0.003 A 
ATOM      5  C   UNL     1      -3.177 -10.609  13.678  0.00  0.00    -0.005 A 
ATOM     26  C   UNL     1      -2.386 -10.440  13.839  0.00  0.00    -0.003 A 
ATOM     27  C   UNL     1      -1.850 -10.341  13.220  0.00  0.00    -0.005 A 
ENDBRANCH   6   5
ENDBRANCH   7   6
ENDBRANCH   8   7
BRANCH  11  12
ATOM     12  C   UNL     1      -6.749  -9.803  15.907  0.00  0.00    +0.148 C 
BRANCH  12  13
ATOM     13  N   UNL     1      -7.022  -9.991  16.663  0.00  0.00    -0.075 NA
BRANCH  13  14
ATOM     14  S   UNL     1      -7.761  -9.723  16.913  0.00  0.00    +0.077 S 
ATOM     15  O   UNL     1      -8.108 -10.414  16.625  0.00  0.00    -0.152 OA
ATOM     16  O   UNL     1      -7.413  -9.032  17.200  0.00  0.00    -0.152 OA
BRANCH  14  17
ATOM     17  C   UNL     1      -8.500  -9.456  17.162  0.00  0.00    +0.124 A 
ATOM     18  C   UNL     1      -8.952  -9.915  17.678  0.00  0.00    +0.020 A 
ATOM     19  C   UNL     1      -9.692  -9.648  17.928  0.00  0.00    -0.003 A 
ATOM     20  C   UNL     1      -9.979  -8.921  17.662  0.00  0.00    -0.022 A 
ATOM     21  C   UNL     1     -10.719  -8.653  17.912  0.00  0.00    +0.031 C 
ATOM     22  C   UNL     1      -9.527  -8.462  17.147  0.00  0.00    -0.003 A 
ATOM     23  C   UNL     1      -8.787  -8.730  16.897  0.00  0.00    +0.020 A 
ENDBRANCH  14  17
ENDBRANCH  13  14
ENDBRANCH  12  13
ENDBRANCH  11  12
TORSDOF 7
ENDMDL
MODEL 9
REMARK VINA RESULT:      -6.2     16.079     17.953
REMARK  Name = 
REMARK  7 active torsions:
REMARK  status: ('A' for Active; 'I' for Inactive)
REMARK    1  A    between atoms: C_5  and  C_6
REMARK    2  A    between atoms: C_6  and  N_7
REMARK    3  A    between atoms: N_7  and  C_8
REMARK    4  A    between atoms: C_11  and  C_12
REMARK    5  A    between atoms: C_12  and  N_13
REMARK    6  A    between atoms: N_13  and  S_14
REMARK    7  A    between atoms: S_14  and  C_17
REMARK                            x       y       z     vdW  Elec       q    Type
REMARK                         _______ _______ _______ _____ _____    ______ ____
ROOT
ATOM      8  C   UNL     1      -5.736  -8.925  10.324  0.00  0.00    +0.135 C 
ATOM      9  C   UNL     1      -5.483  -9.661  10.052  0.00  0.00    +0.162 C 
ATOM     10  O   UNL     1      -4.975  -9.981  10.617  0.00  0.00    -0.350 OA
ATOM     11  C   UNL     1      -4.913  -9.441  11.238  0.00  0.00    +0.166 C 
ATOM     24  C   UNL     1      -5.383  -8.789  11.058  0.00  0.00    +0.199 C 
ATOM     25  O   UNL     1      -5.484  -8.118  11.527  0.00  0.00    -0.219 OA
ENDROOT
BRANCH   8   7
ATOM      7  N   UNL     1      -6.250  -8.413   9.931  0.00  0.00    -0.209 NA
BRANCH   7   6
ATOM      6  C   UNL     1      -6.975  -8.691   9.651  0.00  0.00    +0.115 C 
BRANCH   6   5
ATOM      1  C   UNL     1      -9.055  -6.634   8.124  0.00  0.00    +0.031 C 
ATOM      2  C   UNL     1      -8.534  -7.149   8.506  0.00  0.00    -0.022 A 
ATOM      3  C   UNL     1      -8.830  -7.771   8.961  0.00  0.00    -0.005 A 
ATOM      4  C   UNL     1      -8.310  -8.285   9.343  0.00  0.00    -0.003 A 
ATOM      5  C   UNL     1      -7.494  -8.177   9.270  0.00  0.00    -0.005 A 
ATOM     26  C   UNL     1      -7.200  -7.555   8.815  0.00  0.00    -0.003 A 
ATOM     27  C   UNL     1      -7.720  -7.041   8.433  0.00  0.00    -0.005 A 
ENDBRANCH   6   5
ENDBRANCH   7   6
ENDBRANCH   8   7
BRANCH  11  12
ATOM     12  C   UNL     1      -4.460  -9.539  11.922  0.00  0.00    +0.148 C 
BRANCH  12  13
ATOM     13  N   UNL     1      -4.243 -10.296  12.169  0.00  0.00    -0.075 NA
BRANCH  13  14
ATOM     14  S   UNL     1      -3.798 -10.393  12.856  0.00  0.00    +0.077 S 
ATOM     15  O   UNL     1      -4.485 -10.572  13.276  0.00  0.00    -0.152 OA
ATOM     16  O   UNL     1      -3.111 -10.214  12.436  0.00  0.00    -0.152 OA
BRANCH  14  17
ATOM     17  C   UNL     1      -3.353 -10.490  13.544  0.00  0.00    +0.124 A 
ATOM     18  C   UNL     1      -3.722 -10.463  14.281  0.00  0.00    +0.020 A 
ATOM     19  C   UNL     1      -3.277 -10.560  14.970  0.00  0.00    -0.003 A 
ATOM     20  C   UNL     1      -2.462 -10.684  14.919  0.00  0.00    -0.022 A 
ATOM     21  C   UNL     1      -2.017 -10.781  15.608  0.00  0.00    +0.031 C 
ATOM     22  C   UNL     1      -2.094 -10.711  14.182  0.00  0.00    -0.003 A 
ATOM     23  C   UNL     1      -2.539 -10.614  13.494  0.00  0.00    +0.020 A 
ENDBRANCH  14  17
ENDBRANCH  13  14
ENDBRANCH  12  13
ENDBRANCH  11  12
TORSDOF 7
ENDMDL
