MODEL 1
REMARK VINA RESULT:     -11.4      0.000      0.000
REMARK  Name = 
REMARK  6 active torsions:
REMARK  status: ('A' for Active; 'I' for Inactive)
REMARK    1  A    between atoms: O_2  and  C_3
REMARK    2  A    between atoms: C_6  and  C_9
REMARK    3  A    between atoms: C_12  and  C_14
REMARK    4  A    between atoms: N_17  and  C_18
REMARK    5  A    between atoms: C_18  and  C_19
REMARK    6  A    between atoms: C_22  and  S_25
REMARK                            x       y       z     vdW  Elec       q    Type
REMARK                         _______ _______ _______ _____ _____    ______ ____
ROOT
ATOM     14  C   UNL     1      -4.914   1.457  25.153  0.00  0.00    +0.096 C 
ATOM     15  C   UNL     1      -5.530   1.656  25.665  0.00  0.00    +0.028 C 
ATOM     16  C   UNL     1      -5.518   2.474  25.772  0.00  0.00    +0.073 C 
ATOM     17  N   UNL     1      -4.895   2.781  25.327  0.00  0.00    -0.268 NA
ATOM     29  C   UNL     1      -4.522   2.153  24.944  0.00  0.00    +0.082 C 
ENDROOT
BRANCH  14  12
ATOM      9  C   UNL     1      -4.058  -0.439  24.675  0.00  0.00    +0.250 A 
ATOM     10  N   UNL     1      -4.801  -0.506  24.323  0.00  0.00    -0.107 NA
ATOM     11  N   UNL     1      -5.213   0.196  24.459  0.00  0.00    -0.111 NA
ATOM     12  C   UNL     1      -4.724   0.697  24.895  0.00  0.00    +0.227 A 
ATOM     13  O   UNL     1      -4.010   0.304  25.028  0.00  0.00    -0.419 OA
BRANCH   9   6
ATOM      3  C   UNL     1      -2.286  -2.166  24.670  0.00  0.00    +0.139 A 
ATOM      4  C   UNL     1      -2.083  -1.366  24.654  0.00  0.00    +0.037 A 
ATOM      5  C   UNL     1      -2.674  -0.791  24.656  0.00  0.00    +0.008 A 
ATOM      6  C   UNL     1      -3.468  -1.015  24.673  0.00  0.00    +0.055 A 
ATOM      7  C   UNL     1      -3.671  -1.814  24.690  0.00  0.00    +0.008 A 
ATOM      8  C   UNL     1      -3.080  -2.389  24.688  0.00  0.00    +0.037 A 
BRANCH   3   2
ATOM      1  C   UNL     1      -0.919  -2.537  24.855  0.00  0.00    +0.252 C 
ATOM      2  O   UNL     1      -1.695  -2.742  24.669  0.00  0.00    -0.471 OA
ENDBRANCH   3   2
ENDBRANCH   9   6
ENDBRANCH  14  12
BRANCH  17  18
ATOM     18  C   UNL     1      -4.683   3.577  25.274  0.00  0.00    +0.099 C 
BRANCH  18  19
ATOM     19  C   UNL     1      -3.887   3.790  25.242  0.00  0.00    -0.006 A 
ATOM     20  C   UNL     1      -3.462   3.904  25.940  0.00  0.00    -0.002 A 
ATOM     21  C   UNL     1      -2.666   4.118  25.909  0.00  0.00    +0.018 A 
ATOM     22  C   UNL     1      -2.295   4.217  25.178  0.00  0.00    +0.106 A 
ATOM     23  C   UNL     1      -2.719   4.103  24.481  0.00  0.00    +0.018 A 
ATOM     24  C   UNL     1      -3.516   3.890  24.512  0.00  0.00    -0.002 A 
BRANCH  22  25
ATOM     25  S   UNL     1      -1.498   4.430  25.147  0.00  0.00    +0.010 S 
ATOM     26  C   UNL     1      -0.701   4.643  25.115  0.00  0.00    +0.182 C 
ATOM     27  O   UNL     1      -1.296   3.650  24.973  0.00  0.00    -0.169 OA
ATOM     28  O   UNL     1      -1.701   5.211  25.320  0.00  0.00    -0.169 OA
ENDBRANCH  22  25
ENDBRANCH  18  19
ENDBRANCH  17  18
TORSDOF 6
ENDMDL
MODEL 2
REMARK VINA RESULT:     -10.9      2.147      3.132
REMARK  Name = 
REMARK  6 active torsions:
REMARK  status: ('A' for Active; 'I' for Inactive)
REMARK    1  A    between atoms: O_2  and  C_3
REMARK    2  A    between atoms: C_6  and  C_9
REMARK    3  A    between atoms: C_12  and  C_14
REMARK    4  A    between atoms: N_17  and  C_18
REMARK    5  A    between atoms: C_18  and  C_19
REMARK    6  A    between atoms: C_22  and  S_25
REMARK                            x       y       z     vdW  Elec       q    Type
REMARK                         _______ _______ _______ _____ _____    ______ ____
ROOT
ATOM     14  C   UNL     1      -0.861   1.675  25.327  0.00  0.00    +0.096 C 
ATOM     15  C   UNL     1      -0.283   2.079  25.756  0.00  0.00    +0.028 C 
ATOM     16  C   UNL     1      -0.501   2.874  25.791  0.00  0.00    +0.073 C 
ATOM     17  N   UNL     1      -1.213   2.961  25.384  0.00  0.00    -0.268 NA
ATOM     29  C   UNL     1      -1.435   2.220  25.097  0.00  0.00    +0.082 C 
ENDROOT
BRANCH  14  12
ATOM      9  C   UNL     1      -1.277  -0.384  24.946  0.00  0.00    +0.250 A 
ATOM     10  N   UNL     1      -0.458  -0.366  24.849  0.00  0.00    -0.107 NA
ATOM     11  N   UNL     1      -0.202   0.407  24.980  0.00  0.00    -0.111 NA
ATOM     12  C   UNL     1      -0.863   0.867  25.158  0.00  0.00    +0.227 A 
ATOM     13  O   UNL     1      -1.527   0.378  25.137  0.00  0.00    -0.419 OA
BRANCH   9   6
ATOM      3  C   UNL     1      -2.727  -2.375  24.707  0.00  0.00    +0.139 A 
ATOM      4  C   UNL     1      -3.035  -1.675  25.017  0.00  0.00    +0.037 A 
ATOM      5  C   UNL     1      -2.552  -1.011  25.097  0.00  0.00    +0.008 A 
ATOM      6  C   UNL     1      -1.760  -1.048  24.866  0.00  0.00    +0.055 A 
ATOM      7  C   UNL     1      -1.453  -1.747  24.556  0.00  0.00    +0.008 A 
ATOM      8  C   UNL     1      -1.936  -2.411  24.476  0.00  0.00    +0.037 A 
BRANCH   3   2
ATOM      1  C   UNL     1      -3.927  -2.981  24.223  0.00  0.00    +0.252 C 
ATOM      2  O   UNL     1      -3.211  -3.039  24.627  0.00  0.00    -0.471 OA
ENDBRANCH   3   2
ENDBRANCH   9   6
ENDBRANCH  14  12
BRANCH  17  18
ATOM     18  C   UNL     1      -1.629   3.666  25.281  0.00  0.00    +0.099 C 
BRANCH  18  19
ATOM     19  C   UNL     1      -2.452   3.672  25.343  0.00  0.00    -0.006 A 
ATOM     20  C   UNL     1      -2.917   3.536  24.675  0.00  0.00    -0.002 A 
ATOM     21  C   UNL     1      -3.740   3.542  24.738  0.00  0.00    +0.018 A 
ATOM     22  C   UNL     1      -4.097   3.683  25.468  0.00  0.00    +0.106 A 
ATOM     23  C   UNL     1      -3.632   3.818  26.136  0.00  0.00    +0.018 A 
ATOM     24  C   UNL     1      -2.809   3.813  26.074  0.00  0.00    -0.002 A 
BRANCH  22  25
ATOM     25  S   UNL     1      -4.920   3.689  25.531  0.00  0.00    +0.010 S 
ATOM     26  C   UNL     1      -5.743   3.695  25.593  0.00  0.00    +0.182 C 
ATOM     27  O   UNL     1      -4.930   4.487  25.324  0.00  0.00    -0.169 OA
ATOM     28  O   UNL     1      -4.909   2.890  25.737  0.00  0.00    -0.169 OA
ENDBRANCH  22  25
ENDBRANCH  18  19
ENDBRANCH  17  18
TORSDOF 6
ENDMDL
MODEL 3
REMARK VINA RESULT:     -10.5      1.587      5.222
REMARK  Name = 
REMARK  6 active torsions:
REMARK  status: ('A' for Active; 'I' for Inactive)
REMARK    1  A    between atoms: O_2  and  C_3
REMARK    2  A    between atoms: C_6  and  C_9
REMARK    3  A    between atoms: C_12  and  C_14
REMARK    4  A    between atoms: N_17  and  C_18
REMARK    5  A    between atoms: C_18  and  C_19
REMARK    6  A    between atoms: C_22  and  S_25
REMARK                            x       y       z     vdW  Elec       q    Type
REMARK                         _______ _______ _______ _____ _____    ______ ____
ROOT
ATOM     14  C   UNL     1      -4.518   2.011  25.127  0.00  0.00    +0.096 C 
ATOM     15  C   UNL     1      -5.172   1.977  24.625  0.00  0.00    +0.028 C 
ATOM     16  C   UNL     1      -5.415   1.190  24.575  0.00  0.00    +0.073 C 
ATOM     17  N   UNL     1      -4.911   0.738  25.047  0.00  0.00    -0.268 NA
ATOM     29  C   UNL     1      -4.357   1.245  25.388  0.00  0.00    +0.082 C 
ENDROOT
BRANCH  14  12
ATOM      9  C   UNL     1      -3.142   3.620  25.402  0.00  0.00    +0.250 A 
ATOM     10  N   UNL     1      -3.763   3.856  25.891  0.00  0.00    -0.107 NA
ATOM     11  N   UNL     1      -4.355   3.282  25.848  0.00  0.00    -0.111 NA
ATOM     12  C   UNL     1      -4.099   2.691  25.332  0.00  0.00    +0.227 A 
ATOM     13  O   UNL     1      -3.349   2.901  25.056  0.00  0.00    -0.419 OA
BRANCH   9   6
ATOM      3  C   UNL     1      -1.030   4.856  25.036  0.00  0.00    +0.139 A 
ATOM      4  C   UNL     1      -1.743   5.268  25.101  0.00  0.00    +0.037 A 
ATOM      5  C   UNL     1      -2.447   4.856  25.223  0.00  0.00    +0.008 A 
ATOM      6  C   UNL     1      -2.438   4.032  25.280  0.00  0.00    +0.055 A 
ATOM      7  C   UNL     1      -1.726   3.622  25.215  0.00  0.00    +0.008 A 
ATOM      8  C   UNL     1      -1.022   4.034  25.093  0.00  0.00    +0.037 A 
BRANCH   3   2
ATOM      1  C   UNL     1       0.098   5.163  24.215  0.00  0.00    +0.252 C 
ATOM      2  O   UNL     1      -0.325   5.268  24.914  0.00  0.00    -0.471 OA
ENDBRANCH   3   2
ENDBRANCH   9   6
ENDBRANCH  14  12
BRANCH  17  18
ATOM     18  C   UNL     1      -4.954  -0.079  25.158  0.00  0.00    +0.099 C 
BRANCH  18  19
ATOM     19  C   UNL     1      -4.295  -0.551  25.008  0.00  0.00    -0.006 A 
ATOM     20  C   UNL     1      -4.154  -0.835  24.246  0.00  0.00    -0.002 A 
ATOM     21  C   UNL     1      -3.495  -1.307  24.096  0.00  0.00    +0.018 A 
ATOM     22  C   UNL     1      -2.975  -1.495  24.709  0.00  0.00    +0.106 A 
ATOM     23  C   UNL     1      -3.115  -1.212  25.470  0.00  0.00    +0.018 A 
ATOM     24  C   UNL     1      -3.775  -0.740  25.621  0.00  0.00    -0.002 A 
BRANCH  22  25
ATOM     25  S   UNL     1      -2.316  -1.967  24.559  0.00  0.00    +0.010 S 
ATOM     26  C   UNL     1      -1.656  -2.441  24.409  0.00  0.00    +0.182 C 
ATOM     27  O   UNL     1      -2.793  -2.640  24.574  0.00  0.00    -0.169 OA
ATOM     28  O   UNL     1      -1.838  -1.295  24.544  0.00  0.00    -0.169 OA
ENDBRANCH  22  25
ENDBRANCH  18  19
ENDBRANCH  17  18
TORSDOF 6
ENDMDL
MODEL 4
REMARK VINA RESULT:     -10.4      2.780      6.272
REMARK  Name = 
REMARK  6 active torsions:
REMARK  status: ('A' for Active; 'I' for Inactive)
REMARK    1  A    between atoms: O_2  and  C_3
REMARK    2  A    between atoms: C_6  and  C_9
REMARK    3  A    between atoms: C_12  and  C_14
REMARK    4  A    between atoms: N_17  and  C_18
REMARK    5  A    between atoms: C_18  and  C_19
REMARK    6  A    between atoms: C_22  and  S_25
REMARK                            x       y       z     vdW  Elec       q    Type
REMARK                         _______ _______ _______ _____ _____    ______ ____
ROOT
ATOM     14  C   UNL     1      -0.304   0.544  24.778  0.00  0.00    +0.096 C 
ATOM     15  C   UNL     1       0.003   0.098  24.154  0.00  0.00    +0.028 C 
ATOM     16  C   UNL     1      -0.241  -0.684  24.255  0.00  0.00    +0.073 C 
ATOM     17  N   UNL     1      -0.698  -0.721  24.941  0.00  0.00    -0.268 NA
ATOM     29  C   UNL     1      -0.736   0.037  25.264  0.00  0.00    +0.082 C 
ENDROOT
BRANCH  14  12
ATOM      9  C   UNL     1      -0.440   2.654  25.067  0.00  0.00    +0.250 A 
ATOM     10  N   UNL     1       0.377   2.544  25.077  0.00  0.00    -0.107 NA
ATOM     11  N   UNL     1       0.529   1.740  24.970  0.00  0.00    -0.111 NA
ATOM     12  C   UNL     1      -0.196   1.353  24.894  0.00  0.00    +0.227 A 
ATOM     13  O   UNL     1      -0.795   1.918  24.954  0.00  0.00    -0.419 OA
BRANCH   9   6
ATOM      3  C   UNL     1      -1.621   4.813  25.331  0.00  0.00    +0.139 A 
ATOM      4  C   UNL     1      -0.929   4.773  24.882  0.00  0.00    +0.037 A 
ATOM      5  C   UNL     1      -0.536   4.054  24.794  0.00  0.00    +0.008 A 
ATOM      6  C   UNL     1      -0.834   3.374  25.155  0.00  0.00    +0.055 A 
ATOM      7  C   UNL     1      -1.525   3.414  25.603  0.00  0.00    +0.008 A 
ATOM      8  C   UNL     1      -1.918   4.133  25.691  0.00  0.00    +0.037 A 
BRANCH   3   2
ATOM      1  C   UNL     1      -1.832   6.166  24.923  0.00  0.00    +0.252 C 
ATOM      2  O   UNL     1      -2.015   5.533  25.419  0.00  0.00    -0.471 OA
ENDBRANCH   3   2
ENDBRANCH   9   6
ENDBRANCH  14  12
BRANCH  17  18
ATOM     18  C   UNL     1      -1.053  -1.399  25.250  0.00  0.00    +0.099 C 
BRANCH  18  19
ATOM     19  C   UNL     1      -1.783  -1.650  24.961  0.00  0.00    -0.006 A 
ATOM     20  C   UNL     1      -1.818  -2.247  24.391  0.00  0.00    -0.002 A 
ATOM     21  C   UNL     1      -2.549  -2.498  24.101  0.00  0.00    +0.018 A 
ATOM     22  C   UNL     1      -3.244  -2.153  24.381  0.00  0.00    +0.106 A 
ATOM     23  C   UNL     1      -3.209  -1.557  24.950  0.00  0.00    +0.018 A 
ATOM     24  C   UNL     1      -2.479  -1.305  25.240  0.00  0.00    -0.002 A 
BRANCH  22  25
ATOM     25  S   UNL     1      -3.974  -2.404  24.091  0.00  0.00    +0.010 S 
ATOM     26  C   UNL     1      -4.705  -2.657  23.801  0.00  0.00    +0.182 C 
ATOM     27  O   UNL     1      -3.847  -3.151  24.419  0.00  0.00    -0.169 OA
ATOM     28  O   UNL     1      -4.101  -1.658  23.764  0.00  0.00    -0.169 OA
ENDBRANCH  22  25
ENDBRANCH  18  19
ENDBRANCH  17  18
TORSDOF 6
ENDMDL
