MODEL 1
REMARK VINA RESULT:     -11.4      0.000      0.000
REMARK  Name = 
REMARK  8 active torsions:
REMARK  status: ('A' for Active; 'I' for Inactive)
REMARK    1  A    between atoms: C_3  and  C_4
REMARK    2  A    between atoms: C_4  and  N_5
REMARK    3  A    between atoms: N_5  and  C_6
REMARK    4  A    between atoms: C_6  and  C_7
REMARK    5  A    between atoms: C_7  and  C_8
REMARK    6  A    between atoms: C_11  and  C_12
REMARK    7  A    between atoms: C_12  and  O_13
REMARK    8  A    between atoms: O_13  and  C_14
REMARK                            x       y       z     vdW  Elec       q    Type
REMARK                         _______ _______ _______ _____ _____    ______ ____
ROOT
ATOM      7  C   UNL     1      -4.231   2.908  24.699  0.00  0.00    +0.070 C 
ENDROOT
BRANCH   7   8
ATOM      8  C   UNL     1      -4.435   2.110  24.754  0.00  0.00    +0.102 A 
ATOM      9  N   UNL     1      -5.089   1.804  25.155  0.00  0.00    -0.082 NA
ATOM     10  O   UNL     1      -5.080   0.983  25.067  0.00  0.00    -0.354 OA
ATOM     11  C   UNL     1      -4.422   0.783  24.612  0.00  0.00    +0.198 A 
ATOM     20  C   UNL     1      -4.023   1.480  24.418  0.00  0.00    +0.057 A 
BRANCH  11  12
ATOM     12  C   UNL     1      -4.200   0.021  24.388  0.00  0.00    +0.272 C 
BRANCH  12  13
ATOM     13  O   UNL     1      -4.263  -0.602  24.927  0.00  0.00    -0.467 OA
BRANCH  13  14
ATOM     14  C   UNL     1      -4.008  -1.357  24.716  0.00  0.00    +0.139 A 
ATOM     15  C   UNL     1      -4.292  -1.710  24.026  0.00  0.00    +0.037 A 
ATOM     16  C   UNL     1      -4.037  -2.466  23.815  0.00  0.00    +0.003 A 
ATOM     17  C   UNL     1      -3.498  -2.868  24.293  0.00  0.00    +0.000 A 
ATOM     18  C   UNL     1      -3.215  -2.515  24.982  0.00  0.00    +0.003 A 
ATOM     19  C   UNL     1      -3.470  -1.759  25.193  0.00  0.00    +0.037 A 
ENDBRANCH  13  14
ENDBRANCH  12  13
ENDBRANCH  11  12
ENDBRANCH   7   8
BRANCH   7   6
ATOM      6  C   UNL     1      -4.213   3.377  25.377  0.00  0.00    +0.120 C 
ATOM     21  C   UNL     1      -4.195   3.847  26.056  0.00  0.00    +0.161 C 
ATOM     22  O   UNL     1      -5.017   3.915  26.030  0.00  0.00    -0.351 OA
ATOM     23  C   UNL     1      -5.035   3.446  25.352  0.00  0.00    +0.161 C 
BRANCH   6   5
ATOM      5  N   UNL     1      -3.391   3.308  25.404  0.00  0.00    -0.211 NA
BRANCH   5   4
ATOM      4  C   UNL     1      -2.924   3.985  25.475  0.00  0.00    +0.118 C 
BRANCH   4   3
ATOM      1  O   UNL     1      -2.029   5.236  24.878  0.00  0.00    -0.287 OA
ATOM      2  C   UNL     1      -1.655   4.549  25.141  0.00  0.00    +0.193 A 
ATOM      3  C   UNL     1      -2.103   3.924  25.439  0.00  0.00    +0.034 A 
ATOM     24  C   UNL     1      -1.728   3.238  25.702  0.00  0.00    +0.000 A 
ATOM     25  C   UNL     1      -0.906   3.177  25.666  0.00  0.00    -0.000 A 
ATOM     26  C   UNL     1      -0.458   3.802  25.368  0.00  0.00    +0.003 A 
ATOM     27  C   UNL     1      -0.833   4.489  25.105  0.00  0.00    +0.042 A 
ENDBRANCH   4   3
ENDBRANCH   5   4
ENDBRANCH   6   5
ENDBRANCH   7   6
TORSDOF 8
ENDMDL
MODEL 2
REMARK VINA RESULT:     -10.3      1.744      2.963
REMARK  Name = 
REMARK  8 active torsions:
REMARK  status: ('A' for Active; 'I' for Inactive)
REMARK    1  A    between atoms: C_3  and  C_4
REMARK    2  A    between atoms: C_4  and  N_5
REMARK    3  A    between atoms: N_5  and  C_6
REMARK    4  A    between atoms: C_6  and  C_7
REMARK    5  A    between atoms: C_7  and  C_8
REMARK    6  A    between atoms: C_11  and  C_12
REMARK    7  A    between atoms: C_12  and  O_13
REMARK    8  A    between atoms: O_13  and  C_14
REMARK                            x       y       z     vdW  Elec       q    Type
REMARK                         _______ _______ _______ _____ _____    ______ ____
ROOT
ATOM      7  C   UNL     1      -0.969   1.844  25.435  0.00  0.00    +0.070 C 
ENDROOT
BRANCH   7   8
ATOM      8  C   UNL     1      -0.990   1.072  25.145  0.00  0.00    +0.102 A 
ATOM      9  N   UNL     1      -0.407   0.709  24.687  0.00  0.00    -0.082 NA
ATOM     10  O   UNL     1      -0.654  -0.060  24.520  0.00  0.00    -0.354 OA
ATOM     11  C   UNL     1      -1.389  -0.173  24.876  0.00  0.00    +0.198 A 
ATOM     20  C   UNL     1      -1.597   0.526  25.262  0.00  0.00    +0.057 A 
BRANCH  11  12
ATOM     12  C   UNL     1      -1.839  -0.864  24.850  0.00  0.00    +0.272 C 
BRANCH  12  13
ATOM     13  O   UNL     1      -2.662  -0.824  24.902  0.00  0.00    -0.467 OA
BRANCH  13  14
ATOM     14  C   UNL     1      -3.123  -1.458  24.646  0.00  0.00    +0.139 A 
ATOM     15  C   UNL     1      -3.749  -1.329  24.124  0.00  0.00    +0.037 A 
ATOM     16  C   UNL     1      -4.210  -1.963  23.868  0.00  0.00    +0.003 A 
ATOM     17  C   UNL     1      -4.046  -2.727  24.135  0.00  0.00    +0.000 A 
ATOM     18  C   UNL     1      -3.420  -2.856  24.657  0.00  0.00    +0.003 A 
ATOM     19  C   UNL     1      -2.959  -2.221  24.912  0.00  0.00    +0.037 A 
ENDBRANCH  13  14
ENDBRANCH  12  13
ENDBRANCH  11  12
ENDBRANCH   7   8
BRANCH   7   6
ATOM      6  C   UNL     1      -0.896   2.478  24.914  0.00  0.00    +0.120 C 
ATOM     21  C   UNL     1      -0.824   3.114  24.392  0.00  0.00    +0.161 C 
ATOM     22  O   UNL     1      -0.004   3.018  24.390  0.00  0.00    -0.351 OA
ATOM     23  C   UNL     1      -0.077   2.383  24.911  0.00  0.00    +0.161 C 
BRANCH   6   5
ATOM      5  N   UNL     1      -1.716   2.574  24.916  0.00  0.00    -0.211 NA
BRANCH   5   4
ATOM      4  C   UNL     1      -2.045   3.301  25.128  0.00  0.00    +0.118 C 
BRANCH   4   3
ATOM      1  O   UNL     1      -2.785   4.132  26.347  0.00  0.00    -0.287 OA
ATOM      2  C   UNL     1      -3.233   3.816  25.731  0.00  0.00    +0.193 A 
ATOM      3  C   UNL     1      -2.863   3.400  25.122  0.00  0.00    +0.034 A 
ATOM     24  C   UNL     1      -3.313   3.085  24.507  0.00  0.00    +0.000 A 
ATOM     25  C   UNL     1      -4.131   3.184  24.500  0.00  0.00    -0.000 A 
ATOM     26  C   UNL     1      -4.501   3.599  25.109  0.00  0.00    +0.003 A 
ATOM     27  C   UNL     1      -4.053   3.915  25.726  0.00  0.00    +0.042 A 
ENDBRANCH   4   3
ENDBRANCH   5   4
ENDBRANCH   6   5
ENDBRANCH   7   6
TORSDOF 8
ENDMDL
MODEL 3
REMARK VINA RESULT:     -10.0      2.407      6.021
REMARK  Name = 
REMARK  8 active torsions:
REMARK  status: ('A' for Active; 'I' for Inactive)
REMARK    1  A    between atoms: C_3  and  C_4
REMARK    2  A    between atoms: C_4  and  N_5
REMARK    3  A    between atoms: N_5  and  C_6
REMARK    4  A    between atoms: C_6  and  C_7
REMARK    5  A    between atoms: C_7  and  C_8
REMARK    6  A    between atoms: C_11  and  C_12
REMARK    7  A    between atoms: C_12  and  O_13
REMARK    8  A    between atoms: O_13  and  C_14
REMARK                            x       y       z     vdW  Elec       q    Type
REMARK                         _______ _______ _______ _____ _____    ______ ____
ROOT
ATOM      7  C   UNL     1      -0.925  -0.438  24.016  0.00  0.00    +0.070 C 
ENDROOT
BRANCH   7   8
ATOM      8  C   UNL     1      -0.638   0.330  24.110  0.00  0.00    +0.102 A 
ATOM      9  N   UNL     1       0.157   0.549  24.155  0.00  0.00    -0.082 NA
ATOM     10  O   UNL     1       0.192   1.368  24.248  0.00  0.00    -0.354 OA
ATOM     11  C   UNL     1      -0.582   1.655  24.260  0.00  0.00    +0.198 A 
ATOM     20  C   UNL     1      -1.095   1.014  24.175  0.00  0.00    +0.057 A 
BRANCH  11  12
ATOM     12  C   UNL     1      -0.804   2.445  24.343  0.00  0.00    +0.272 C 
BRANCH  12  13
ATOM     13  O   UNL     1      -0.822   2.793  25.092  0.00  0.00    -0.467 OA
BRANCH  13  14
ATOM     14  C   UNL     1      -1.122   3.556  25.186  0.00  0.00    +0.139 A 
ATOM     15  C   UNL     1      -0.694   4.203  24.904  0.00  0.00    +0.037 A 
ATOM     16  C   UNL     1      -0.994   4.966  24.998  0.00  0.00    +0.003 A 
ATOM     17  C   UNL     1      -1.720   5.081  25.373  0.00  0.00    +0.000 A 
ATOM     18  C   UNL     1      -2.146   4.434  25.655  0.00  0.00    +0.003 A 
ATOM     19  C   UNL     1      -1.847   3.671  25.561  0.00  0.00    +0.037 A 
ENDBRANCH  13  14
ENDBRANCH  12  13
ENDBRANCH  11  12
ENDBRANCH   7   8
BRANCH   7   6
ATOM      6  C   UNL     1      -0.998  -0.934  24.671  0.00  0.00    +0.120 C 
ATOM     21  C   UNL     1      -1.071  -1.431  25.326  0.00  0.00    +0.161 C 
ATOM     22  O   UNL     1      -0.249  -1.487  25.374  0.00  0.00    -0.351 OA
ATOM     23  C   UNL     1      -0.176  -0.991  24.719  0.00  0.00    +0.161 C 
BRANCH   6   5
ATOM      5  N   UNL     1      -1.820  -0.877  24.623  0.00  0.00    -0.211 NA
BRANCH   5   4
ATOM      4  C   UNL     1      -2.282  -1.560  24.641  0.00  0.00    +0.118 C 
BRANCH   4   3
ATOM      1  O   UNL     1      -3.110  -2.888  24.117  0.00  0.00    -0.287 OA
ATOM      2  C   UNL     1      -3.508  -2.176  24.243  0.00  0.00    +0.193 A 
ATOM      3  C   UNL     1      -3.094  -1.513  24.505  0.00  0.00    +0.034 A 
ATOM     24  C   UNL     1      -3.492  -0.802  24.631  0.00  0.00    +0.000 A 
ATOM     25  C   UNL     1      -4.304  -0.754  24.496  0.00  0.00    -0.000 A 
ATOM     26  C   UNL     1      -4.719  -1.417  24.234  0.00  0.00    +0.003 A 
ATOM     27  C   UNL     1      -4.321  -2.129  24.107  0.00  0.00    +0.042 A 
ENDBRANCH   4   3
ENDBRANCH   5   4
ENDBRANCH   6   5
ENDBRANCH   7   6
TORSDOF 8
ENDMDL
MODEL 4
REMARK VINA RESULT:      -9.9      0.949      5.088
REMARK  Name = 
REMARK  8 active torsions:
REMARK  status: ('A' for Active; 'I' for Inactive)
REMARK    1  A    between atoms: C_3  and  C_4
REMARK    2  A    between atoms: C_4  and  N_5
REMARK    3  A    between atoms: N_5  and  C_6
REMARK    4  A    between atoms: C_6  and  C_7
REMARK    5  A    between atoms: C_7  and  C_8
REMARK    6  A    between atoms: C_11  and  C_12
REMARK    7  A    between atoms: C_12  and  O_13
REMARK    8  A    between atoms: O_13  and  C_14
REMARK                            x       y       z     vdW  Elec       q    Type
REMARK                         _______ _______ _______ _____ _____    ______ ____
ROOT
ATOM      7  C   UNL     1      -4.762   1.804  24.570  0.00  0.00    +0.070 C 
ENDROOT
BRANCH   7   8
ATOM      8  C   UNL     1      -4.441   2.482  24.914  0.00  0.00    +0.102 A 
ATOM      9  N   UNL     1      -4.722   2.861  25.592  0.00  0.00    -0.082 NA
ATOM     10  O   UNL     1      -4.238   3.513  25.738  0.00  0.00    -0.354 OA
ATOM     11  C   UNL     1      -3.659   3.537  25.151  0.00  0.00    +0.198 A 
ATOM     20  C   UNL     1      -3.784   2.900  24.642  0.00  0.00    +0.057 A 
BRANCH  11  12
ATOM     12  C   UNL     1      -3.059   4.099  25.085  0.00  0.00    +0.272 C 
BRANCH  12  13
ATOM     13  O   UNL     1      -2.342   3.987  25.479  0.00  0.00    -0.467 OA
BRANCH  13  14
ATOM     14  C   UNL     1      -1.664   4.381  25.223  0.00  0.00    +0.139 A 
ATOM     15  C   UNL     1      -0.984   3.951  25.039  0.00  0.00    +0.037 A 
ATOM     16  C   UNL     1      -0.305   4.345  24.783  0.00  0.00    +0.003 A 
ATOM     17  C   UNL     1      -0.308   5.167  24.710  0.00  0.00    +0.000 A 
ATOM     18  C   UNL     1      -0.988   5.595  24.894  0.00  0.00    +0.003 A 
ATOM     19  C   UNL     1      -1.666   5.202  25.150  0.00  0.00    +0.037 A 
ENDBRANCH  13  14
ENDBRANCH  12  13
ENDBRANCH  11  12
ENDBRANCH   7   8
BRANCH   7   6
ATOM      6  C   UNL     1      -5.299   1.342  24.991  0.00  0.00    +0.120 C 
ATOM     21  C   UNL     1      -5.838   0.879  25.413  0.00  0.00    +0.161 C 
ATOM     22  O   UNL     1      -6.424   1.446  25.284  0.00  0.00    -0.351 OA
ATOM     23  C   UNL     1      -5.886   1.908  24.863  0.00  0.00    +0.161 C 
BRANCH   6   5
ATOM      5  N   UNL     1      -4.713   0.776  25.120  0.00  0.00    -0.211 NA
BRANCH   5   4
ATOM      4  C   UNL     1      -4.751   0.048  24.732  0.00  0.00    +0.118 C 
BRANCH   4   3
ATOM      1  O   UNL     1      -4.381  -1.091  23.597  0.00  0.00    -0.287 OA
ATOM      2  C   UNL     1      -4.012  -1.108  24.335  0.00  0.00    +0.193 A 
ATOM      3  C   UNL     1      -4.198  -0.539  24.902  0.00  0.00    +0.034 A 
ATOM     24  C   UNL     1      -3.829  -0.557  25.640  0.00  0.00    +0.000 A 
ATOM     25  C   UNL     1      -3.276  -1.145  25.810  0.00  0.00    -0.000 A 
ATOM     26  C   UNL     1      -3.090  -1.714  25.243  0.00  0.00    +0.003 A 
ATOM     27  C   UNL     1      -3.459  -1.696  24.505  0.00  0.00    +0.042 A 
ENDBRANCH   4   3
ENDBRANCH   5   4
ENDBRANCH   6   5
ENDBRANCH   7   6
TORSDOF 8
ENDMDL
