MODEL 1
REMARK VINA RESULT:     -10.3      0.000      0.000
REMARK  Name = 
REMARK  3 active torsions:
REMARK  status: ('A' for Active; 'I' for Inactive)
REMARK    1  A    between atoms: C_4  and  O_5
REMARK    2  A    between atoms: O_5  and  C_6
REMARK    3  A    between atoms: C_13  and  C_15
REMARK                            x       y       z     vdW  Elec       q    Type
REMARK                         _______ _______ _______ _____ _____    ______ ____
ROOT
ATOM      6  C   UNL     1      -3.500   0.561  24.757  0.00  0.00    +0.217 C 
ATOM      7  C   UNL     1      -2.762   0.487  24.394  0.00  0.00    +0.187 C 
ATOM      8  O   UNL     1      -2.354   1.043  23.942  0.00  0.00    -0.348 OA
ATOM      9  C   UNL     1      -2.582   1.809  23.740  0.00  0.00    +0.164 C 
ATOM     10  C   UNL     1      -3.274   2.209  23.940  0.00  0.00    +0.126 C 
ATOM     11  N   UNL     1      -3.910   1.942  24.393  0.00  0.00    -0.273 N 
ATOM     12  C   UNL     1      -4.010   1.209  24.756  0.00  0.00    +0.140 C 
ATOM     13  C   UNL     1      -4.528   2.480  24.495  0.00  0.00    +0.225 C 
ATOM     14  O   UNL     1      -4.483   3.229  24.154  0.00  0.00    -0.275 OA
ENDROOT
BRANCH  13  15
ATOM     15  C   UNL     1      -5.190   2.267  24.938  0.00  0.00    +0.077 C 
ATOM     16  C   UNL     1      -5.948   1.943  24.981  0.00  0.00    +0.010 C 
ATOM     17  C   UNL     1      -5.580   2.223  25.664  0.00  0.00    +0.010 C 
ENDBRANCH  13  15
BRANCH   6   5
ATOM      5  O   UNL     1      -3.760  -0.101  25.176  0.00  0.00    -0.460 OA
BRANCH   5   4
ATOM      1  C   UNL     1      -2.645  -2.716  24.884  0.00  0.00    +0.052 C 
ATOM      2  C   UNL     1      -3.205  -2.151  24.669  0.00  0.00    +0.062 A 
ATOM      3  N   UNL     1      -3.202  -1.408  25.030  0.00  0.00    -0.216 NA
ATOM      4  C   UNL     1      -3.763  -0.843  24.815  0.00  0.00    +0.225 A 
ATOM     18  C   UNL     1      -4.326  -1.018  24.238  0.00  0.00    +0.058 A 
ATOM     19  C   UNL     1      -4.329  -1.760  23.877  0.00  0.00    +0.006 A 
ATOM     20  C   UNL     1      -3.769  -2.326  24.092  0.00  0.00    +0.015 A 
ENDBRANCH   5   4
ENDBRANCH   6   5
TORSDOF 3
ENDMDL
MODEL 2
REMARK VINA RESULT:     -10.2      1.596      2.521
REMARK  Name = 
REMARK  3 active torsions:
REMARK  status: ('A' for Active; 'I' for Inactive)
REMARK    1  A    between atoms: C_4  and  O_5
REMARK    2  A    between atoms: O_5  and  C_6
REMARK    3  A    between atoms: C_13  and  C_15
REMARK                            x       y       z     vdW  Elec       q    Type
REMARK                         _______ _______ _______ _____ _____    ______ ____
ROOT
ATOM      6  C   UNL     1      -3.764   2.015  24.651  0.00  0.00    +0.217 C 
ATOM      7  C   UNL     1      -4.587   1.954  24.651  0.00  0.00    +0.187 C 
ATOM      8  O   UNL     1      -5.138   2.454  25.007  0.00  0.00    -0.348 OA
ATOM      9  C   UNL     1      -5.004   3.136  25.449  0.00  0.00    +0.164 C 
ATOM     10  C   UNL     1      -4.284   3.489  25.646  0.00  0.00    +0.126 C 
ATOM     11  N   UNL     1      -3.521   3.245  25.448  0.00  0.00    -0.273 N 
ATOM     12  C   UNL     1      -3.290   2.589  25.005  0.00  0.00    +0.140 C 
ATOM     13  C   UNL     1      -2.909   3.720  25.731  0.00  0.00    +0.225 C 
ATOM     14  O   UNL     1      -3.081   4.390  26.180  0.00  0.00    -0.275 OA
ENDROOT
BRANCH  13  15
ATOM     15  C   UNL     1      -2.125   3.526  25.565  0.00  0.00    +0.077 C 
ATOM     16  C   UNL     1      -1.473   3.553  25.059  0.00  0.00    +0.010 C 
ATOM     17  C   UNL     1      -1.418   3.160  25.782  0.00  0.00    +0.010 C 
ENDBRANCH  13  15
BRANCH   6   5
ATOM      5  O   UNL     1      -3.362   1.421  24.241  0.00  0.00    -0.460 OA
BRANCH   5   4
ATOM      1  C   UNL     1      -2.648  -0.849  25.823  0.00  0.00    +0.052 C 
ATOM      2  C   UNL     1      -3.116  -0.506  25.238  0.00  0.00    +0.062 A 
ATOM      3  N   UNL     1      -3.004   0.286  25.032  0.00  0.00    -0.216 NA
ATOM      4  C   UNL     1      -3.473   0.630  24.446  0.00  0.00    +0.225 A 
ATOM     18  C   UNL     1      -4.052   0.183  24.066  0.00  0.00    +0.058 A 
ATOM     19  C   UNL     1      -4.164  -0.608  24.271  0.00  0.00    +0.006 A 
ATOM     20  C   UNL     1      -3.695  -0.953  24.857  0.00  0.00    +0.015 A 
ENDBRANCH   5   4
ENDBRANCH   6   5
TORSDOF 3
ENDMDL
MODEL 3
REMARK VINA RESULT:     -10.0      1.050      3.751
REMARK  Name = 
REMARK  3 active torsions:
REMARK  status: ('A' for Active; 'I' for Inactive)
REMARK    1  A    between atoms: C_4  and  O_5
REMARK    2  A    between atoms: O_5  and  C_6
REMARK    3  A    between atoms: C_13  and  C_15
REMARK                            x       y       z     vdW  Elec       q    Type
REMARK                         _______ _______ _______ _____ _____    ______ ____
ROOT
ATOM      6  C   UNL     1      -2.989   0.927  24.370  0.00  0.00    +0.217 C 
ATOM      7  C   UNL     1      -2.390   1.424  24.644  0.00  0.00    +0.187 C 
ATOM      8  O   UNL     1      -1.701   1.222  25.050  0.00  0.00    -0.348 OA
ATOM      9  C   UNL     1      -1.440   0.475  25.281  0.00  0.00    +0.164 C 
ATOM     10  C   UNL     1      -1.805  -0.256  25.164  0.00  0.00    +0.126 C 
ATOM     11  N   UNL     1      -2.520  -0.419  24.787  0.00  0.00    -0.273 N 
ATOM     12  C   UNL     1      -3.047   0.107  24.434  0.00  0.00    +0.140 C 
ATOM     13  C   UNL     1      -2.736  -1.215  24.760  0.00  0.00    +0.225 C 
ATOM     14  O   UNL     1      -2.247  -1.787  25.097  0.00  0.00    -0.275 OA
ENDROOT
BRANCH  13  15
ATOM     15  C   UNL     1      -3.441  -1.439  24.395  0.00  0.00    +0.077 C 
ATOM     16  C   UNL     1      -3.864  -1.630  23.712  0.00  0.00    +0.010 C 
ATOM     17  C   UNL     1      -4.242  -1.635  24.446  0.00  0.00    +0.010 C 
ENDBRANCH  13  15
BRANCH   6   5
ATOM      5  O   UNL     1      -3.614   1.302  23.981  0.00  0.00    -0.460 OA
BRANCH   5   4
ATOM      1  C   UNL     1      -5.815   2.054  25.642  0.00  0.00    +0.052 C 
ATOM      2  C   UNL     1      -5.151   2.261  25.198  0.00  0.00    +0.062 A 
ATOM      3  N   UNL     1      -4.714   1.677  24.811  0.00  0.00    -0.216 NA
ATOM      4  C   UNL     1      -4.051   1.885  24.367  0.00  0.00    +0.225 A 
ATOM     18  C   UNL     1      -3.824   2.676  24.309  0.00  0.00    +0.058 A 
ATOM     19  C   UNL     1      -4.260   3.259  24.696  0.00  0.00    +0.006 A 
ATOM     20  C   UNL     1      -4.924   3.052  25.140  0.00  0.00    +0.015 A 
ENDBRANCH   5   4
ENDBRANCH   6   5
TORSDOF 3
ENDMDL
MODEL 4
REMARK VINA RESULT:      -9.8      0.953      2.017
REMARK  Name = 
REMARK  3 active torsions:
REMARK  status: ('A' for Active; 'I' for Inactive)
REMARK    1  A    between atoms: C_4  and  O_5
REMARK    2  A    between atoms: O_5  and  C_6
REMARK    3  A    between atoms: C_13  and  C_15
REMARK                            x       y       z     vdW  Elec       q    Type
REMARK                         _______ _______ _______ _____ _____    ______ ____
ROOT
ATOM      6  C   UNL     1      -3.998   0.246  24.148  0.00  0.00    +0.217 C 
ATOM      7  C   UNL     1      -4.555   0.118  24.744  0.00  0.00    +0.187 C 
ATOM      8  O   UNL     1      -4.883   0.666  25.266  0.00  0.00    -0.348 OA
ATOM      9  C   UNL     1      -4.737   1.476  25.322  0.00  0.00    +0.164 C 
ATOM     10  C   UNL     1      -4.226   1.938  24.869  0.00  0.00    +0.126 C 
ATOM     11  N   UNL     1      -3.734   1.705  24.248  0.00  0.00    -0.273 N 
ATOM     12  C   UNL     1      -3.633   0.952  23.928  0.00  0.00    +0.140 C 
ATOM     13  C   UNL     1      -3.285   2.305  23.903  0.00  0.00    +0.225 C 
ATOM     14  O   UNL     1      -3.345   3.078  24.183  0.00  0.00    -0.275 OA
ENDROOT
BRANCH  13  15
ATOM     15  C   UNL     1      -2.776   2.131  23.278  0.00  0.00    +0.077 C 
ATOM     16  C   UNL     1      -2.647   2.016  22.471  0.00  0.00    +0.010 C 
ATOM     17  C   UNL     1      -2.020   1.943  23.002  0.00  0.00    +0.010 C 
ENDBRANCH  13  15
BRANCH   6   5
ATOM      5  O   UNL     1      -3.778  -0.422  23.715  0.00  0.00    -0.460 OA
BRANCH   5   4
ATOM      1  C   UNL     1      -1.598  -1.808  24.938  0.00  0.00    +0.052 C 
ATOM      2  C   UNL     1      -2.392  -1.779  24.716  0.00  0.00    +0.062 A 
ATOM      3  N   UNL     1      -2.688  -1.114  24.326  0.00  0.00    -0.216 NA
ATOM      4  C   UNL     1      -3.482  -1.086  24.105  0.00  0.00    +0.225 A 
ATOM     18  C   UNL     1      -3.980  -1.721  24.272  0.00  0.00    +0.058 A 
ATOM     19  C   UNL     1      -3.685  -2.386  24.661  0.00  0.00    +0.006 A 
ATOM     20  C   UNL     1      -2.890  -2.415  24.883  0.00  0.00    +0.015 A 
ENDBRANCH   5   4
ENDBRANCH   6   5
TORSDOF 3
ENDMDL
MODEL 5
REMARK VINA RESULT:      -9.8      2.160      3.721
REMARK  Name = 
REMARK  3 active torsions:
REMARK  status: ('A' for Active; 'I' for Inactive)
REMARK    1  A    between atoms: C_4  and  O_5
REMARK    2  A    between atoms: O_5  and  C_6
REMARK    3  A    between atoms: C_13  and  C_15
REMARK                            x       y       z     vdW  Elec       q    Type
REMARK                         _______ _______ _______ _____ _____    ______ ____
ROOT
ATOM      6  C   UNL     1      -2.457   1.918  24.690  0.00  0.00    +0.217 C 
ATOM      7  C   UNL     1      -2.403   1.097  24.757  0.00  0.00    +0.187 C 
ATOM      8  O   UNL     1      -1.810   0.649  25.115  0.00  0.00    -0.348 OA
ATOM      9  C   UNL     1      -1.126   0.910  25.494  0.00  0.00    +0.164 C 
ATOM     10  C   UNL     1      -0.865   1.684  25.609  0.00  0.00    +0.126 C 
ATOM     11  N   UNL     1      -1.224   2.388  25.373  0.00  0.00    -0.273 N 
ATOM     12  C   UNL     1      -1.932   2.492  24.964  0.00  0.00    +0.140 C 
ATOM     13  C   UNL     1      -0.821   3.079  25.572  0.00  0.00    +0.225 C 
ATOM     14  O   UNL     1      -0.106   3.037  25.982  0.00  0.00    -0.275 OA
ENDROOT
BRANCH  13  15
ATOM     15  C   UNL     1      -1.132   3.814  25.362  0.00  0.00    +0.077 C 
ATOM     16  C   UNL     1      -1.631   4.451  25.522  0.00  0.00    +0.010 C 
ATOM     17  C   UNL     1      -1.173   4.449  24.836  0.00  0.00    +0.010 C 
ENDBRANCH  13  15
BRANCH   6   5
ATOM      5  O   UNL     1      -3.125   2.201  24.296  0.00  0.00    -0.460 OA
BRANCH   5   4
ATOM      1  C   UNL     1      -5.385   3.051  25.825  0.00  0.00    +0.052 C 
ATOM      2  C   UNL     1      -5.008   2.479  25.366  0.00  0.00    +0.062 A 
ATOM      3  N   UNL     1      -4.255   2.626  25.060  0.00  0.00    -0.216 NA
ATOM      4  C   UNL     1      -3.877   2.054  24.601  0.00  0.00    +0.225 A 
ATOM     18  C   UNL     1      -4.251   1.335  24.448  0.00  0.00    +0.058 A 
ATOM     19  C   UNL     1      -5.003   1.188  24.753  0.00  0.00    +0.006 A 
ATOM     20  C   UNL     1      -5.382   1.760  25.212  0.00  0.00    +0.015 A 
ENDBRANCH   5   4
ENDBRANCH   6   5
TORSDOF 3
ENDMDL
MODEL 6
REMARK VINA RESULT:      -9.8      1.887      3.946
REMARK  Name = 
REMARK  3 active torsions:
REMARK  status: ('A' for Active; 'I' for Inactive)
REMARK    1  A    between atoms: C_4  and  O_5
REMARK    2  A    between atoms: O_5  and  C_6
REMARK    3  A    between atoms: C_13  and  C_15
REMARK                            x       y       z     vdW  Elec       q    Type
REMARK                         _______ _______ _______ _____ _____    ______ ____
ROOT
ATOM      6  C   UNL     1      -3.455   2.875  24.717  0.00  0.00    +0.217 C 
ATOM      7  C   UNL     1      -3.700   3.636  24.923  0.00  0.00    +0.187 C 
ATOM      8  O   UNL     1      -4.407   3.869  25.279  0.00  0.00    -0.348 OA
ATOM      9  C   UNL     1      -5.043   3.401  25.515  0.00  0.00    +0.164 C 
ATOM     10  C   UNL     1      -5.130   2.583  25.455  0.00  0.00    +0.126 C 
ATOM     11  N   UNL     1      -4.601   2.031  25.143  0.00  0.00    -0.273 N 
ATOM     12  C   UNL     1      -3.857   2.161  24.815  0.00  0.00    +0.140 C 
ATOM     13  C   UNL     1      -4.852   1.245  25.163  0.00  0.00    +0.225 C 
ATOM     14  O   UNL     1      -5.589   1.055  25.480  0.00  0.00    -0.275 OA
ENDROOT
BRANCH  13  15
ATOM     15  C   UNL     1      -4.365   0.650  24.864  0.00  0.00    +0.077 C 
ATOM     16  C   UNL     1      -4.071   0.221  24.224  0.00  0.00    +0.010 C 
ATOM     17  C   UNL     1      -3.816   0.046  24.989  0.00  0.00    +0.010 C 
ENDBRANCH  13  15
BRANCH   6   5
ATOM      5  O   UNL     1      -2.710   2.822  24.366  0.00  0.00    -0.460 OA
BRANCH   5   4
ATOM      1  C   UNL     1      -0.494   2.293  26.091  0.00  0.00    +0.052 C 
ATOM      2  C   UNL     1      -0.934   2.821  25.636  0.00  0.00    +0.062 A 
ATOM      3  N   UNL     1      -1.602   2.557  25.228  0.00  0.00    -0.216 NA
ATOM      4  C   UNL     1      -2.043   3.085  24.773  0.00  0.00    +0.225 A 
ATOM     18  C   UNL     1      -1.816   3.877  24.724  0.00  0.00    +0.058 A 
ATOM     19  C   UNL     1      -1.149   4.141  25.131  0.00  0.00    +0.006 A 
ATOM     20  C   UNL     1      -0.708   3.613  25.587  0.00  0.00    +0.015 A 
ENDBRANCH   5   4
ENDBRANCH   6   5
TORSDOF 3
ENDMDL
MODEL 7
REMARK VINA RESULT:      -9.7      2.323      3.385
REMARK  Name = 
REMARK  3 active torsions:
REMARK  status: ('A' for Active; 'I' for Inactive)
REMARK    1  A    between atoms: C_4  and  O_5
REMARK    2  A    between atoms: O_5  and  C_6
REMARK    3  A    between atoms: C_13  and  C_15
REMARK                            x       y       z     vdW  Elec       q    Type
REMARK                         _______ _______ _______ _____ _____    ______ ____
ROOT
ATOM      6  C   UNL     1      -1.127  -0.039  25.119  0.00  0.00    +0.217 C 
ATOM      7  C   UNL     1      -0.958  -0.672  24.617  0.00  0.00    +0.187 C 
ATOM      8  O   UNL     1      -0.420  -0.702  23.992  0.00  0.00    -0.348 OA
ATOM      9  C   UNL     1       0.080  -0.109  23.715  0.00  0.00    +0.164 C 
ATOM     10  C   UNL     1       0.167   0.663  23.994  0.00  0.00    +0.126 C 
ATOM     11  N   UNL     1      -0.225   1.031  24.620  0.00  0.00    -0.273 N 
ATOM     12  C   UNL     1      -0.801   0.718  25.120  0.00  0.00    +0.140 C 
ATOM     13  C   UNL     1      -0.013   1.815  24.763  0.00  0.00    +0.225 C 
ATOM     14  O   UNL     1       0.558   2.180  24.294  0.00  0.00    -0.275 OA
ENDROOT
BRANCH  13  15
ATOM     15  C   UNL     1      -0.372   2.234  25.377  0.00  0.00    +0.077 C 
ATOM     16  C   UNL     1      -0.409   2.443  26.174  0.00  0.00    +0.010 C 
ATOM     17  C   UNL     1      -0.959   2.751  25.641  0.00  0.00    +0.010 C 
ENDBRANCH  13  15
BRANCH   6   5
ATOM      5  O   UNL     1      -1.699  -0.184  25.697  0.00  0.00    -0.460 OA
BRANCH   5   4
ATOM      1  C   UNL     1      -4.325   0.410  24.738  0.00  0.00    +0.052 C 
ATOM      2  C   UNL     1      -3.767  -0.139  24.998  0.00  0.00    +0.062 A 
ATOM      3  N   UNL     1      -3.012   0.113  25.218  0.00  0.00    -0.216 NA
ATOM      4  C   UNL     1      -2.453  -0.436  25.477  0.00  0.00    +0.225 A 
ATOM     18  C   UNL     1      -2.648  -1.236  25.516  0.00  0.00    +0.058 A 
ATOM     19  C   UNL     1      -3.402  -1.488  25.296  0.00  0.00    +0.006 A 
ATOM     20  C   UNL     1      -3.962  -0.939  25.037  0.00  0.00    +0.015 A 
ENDBRANCH   5   4
ENDBRANCH   6   5
TORSDOF 3
ENDMDL
