MODEL 1
REMARK VINA RESULT:     -13.5      0.000      0.000
REMARK  Name = 
REMARK  6 active torsions:
REMARK  status: ('A' for Active; 'I' for Inactive)
REMARK    1  A    between atoms: C_2  and  C_4
REMARK    2  A    between atoms: C_6  and  C_7
REMARK    3  A    between atoms: C_7  and  C_8
REMARK    4  A    between atoms: C_13  and  C_14
REMARK    5  A    between atoms: C_14  and  C_15
REMARK    6  A    between atoms: C_20  and  N_23
REMARK                            x       y       z     vdW  Elec       q    Type
REMARK                         _______ _______ _______ _____ _____    ______ ____
ROOT
ATOM     15  C   UNL     1      -0.969   2.133  24.820  0.00  0.00    +0.226 C 
ATOM     16  O   UNL     1      -0.471   2.450  24.244  0.00  0.00    -0.275 OA
ATOM     17  N   UNL     1      -1.141   1.326  24.818  0.00  0.00    -0.279 N 
ATOM     18  C   UNL     1      -0.815   0.837  24.239  0.00  0.00    +0.095 C 
ATOM     19  C   UNL     1      -0.987   0.029  24.236  0.00  0.00    +0.044 C 
ATOM     20  C   UNL     1      -1.485  -0.288  24.812  0.00  0.00    +0.093 C 
ATOM     21  C   UNL     1      -1.811   0.201  25.391  0.00  0.00    +0.044 C 
ATOM     22  C   UNL     1      -1.639   1.009  25.394  0.00  0.00    +0.095 C 
ENDROOT
BRANCH  20  23
ATOM     23  N   UNL     1      -1.657  -1.095  24.809  0.00  0.00    -0.280 N 
ATOM     24  C   UNL     1      -1.135  -1.702  25.007  0.00  0.00    +0.350 A 
ATOM     25  O   UNL     1      -0.350  -1.610  25.242  0.00  0.00    -0.244 OA
ATOM     26  N   UNL     1      -1.537  -2.419  24.928  0.00  0.00    -0.191 NA
ATOM     27  C   UNL     1      -2.306  -2.254  24.682  0.00  0.00    +0.102 A 
ATOM     28  C   UNL     1      -2.950  -2.743  24.514  0.00  0.00    +0.021 A 
ATOM     29  C   UNL     1      -3.666  -2.414  24.274  0.00  0.00    +0.002 A 
ATOM     30  C   UNL     1      -3.741  -1.596  24.201  0.00  0.00    +0.002 A 
ATOM     31  C   UNL     1      -3.098  -1.106  24.368  0.00  0.00    +0.019 A 
ATOM     32  C   UNL     1      -2.380  -1.436  24.608  0.00  0.00    +0.082 A 
ENDBRANCH  20  23
BRANCH  15  14
ATOM     14  C   UNL     1      -1.295   2.622  25.399  0.00  0.00    +0.085 C 
BRANCH  14  13
ATOM      8  C   UNL     1      -1.971   3.877  25.499  0.00  0.00    +0.024 C 
ATOM      9  C   UNL     1      -1.978   4.695  25.392  0.00  0.00    +0.089 C 
ATOM     10  N   UNL     1      -1.318   5.076  25.076  0.00  0.00    -0.218 NA
ATOM     11  C   UNL     1      -0.650   4.639  24.868  0.00  0.00    +0.089 C 
ATOM     12  C   UNL     1      -0.642   3.821  24.976  0.00  0.00    +0.019 C 
ATOM     13  C   UNL     1      -1.303   3.440  25.291  0.00  0.00    +0.012 C 
BRANCH   8   7
ATOM      7  C   UNL     1      -2.631   3.496  25.815  0.00  0.00    +0.051 C 
BRANCH   7   6
ATOM      4  C   UNL     1      -4.706   3.749  25.381  0.00  0.00    +0.256 A 
ATOM      5  C   UNL     1      -4.099   3.529  25.893  0.00  0.00    +0.065 A 
ATOM      6  C   UNL     1      -3.381   3.646  25.505  0.00  0.00    +0.101 A 
ATOM     33  N   UNL     1      -3.544   3.939  24.751  0.00  0.00    -0.081 NA
ATOM     34  O   UNL     1      -4.363   4.002  24.675  0.00  0.00    -0.347 OA
BRANCH   4   2
ATOM      1  O   UNL     1      -5.920   4.413  25.737  0.00  0.00    -0.237 OA
ATOM      2  C   UNL     1      -5.514   3.721  25.545  0.00  0.00    +0.424 C 
ATOM      3  O   UNL     1      -5.916   3.001  25.518  0.00  0.00    -0.237 OA
ENDBRANCH   4   2
ENDBRANCH   7   6
ENDBRANCH   8   7
ENDBRANCH  14  13
ENDBRANCH  15  14
TORSDOF 6
ENDMDL
MODEL 2
REMARK VINA RESULT:     -13.3      1.675      3.239
REMARK  Name = 
REMARK  6 active torsions:
REMARK  status: ('A' for Active; 'I' for Inactive)
REMARK    1  A    between atoms: C_2  and  C_4
REMARK    2  A    between atoms: C_6  and  C_7
REMARK    3  A    between atoms: C_7  and  C_8
REMARK    4  A    between atoms: C_13  and  C_14
REMARK    5  A    between atoms: C_14  and  C_15
REMARK    6  A    between atoms: C_20  and  N_23
REMARK                            x       y       z     vdW  Elec       q    Type
REMARK                         _______ _______ _______ _____ _____    ______ ____
ROOT
ATOM     15  C   UNL     1      -4.717   1.144  25.171  0.00  0.00    +0.226 C 
ATOM     16  O   UNL     1      -5.346   1.095  25.703  0.00  0.00    -0.275 OA
ATOM     17  N   UNL     1      -4.245   0.482  25.029  0.00  0.00    -0.279 N 
ATOM     18  C   UNL     1      -4.402  -0.228  25.419  0.00  0.00    +0.095 C 
ATOM     19  C   UNL     1      -3.930  -0.890  25.277  0.00  0.00    +0.044 C 
ATOM     20  C   UNL     1      -3.301  -0.842  24.746  0.00  0.00    +0.093 C 
ATOM     21  C   UNL     1      -3.144  -0.132  24.356  0.00  0.00    +0.044 C 
ATOM     22  C   UNL     1      -3.615   0.531  24.498  0.00  0.00    +0.095 C 
ENDROOT
BRANCH  20  23
ATOM     23  N   UNL     1      -2.829  -1.504  24.604  0.00  0.00    -0.280 N 
ATOM     24  C   UNL     1      -3.065  -2.193  24.217  0.00  0.00    +0.350 A 
ATOM     25  O   UNL     1      -3.813  -2.341  23.903  0.00  0.00    -0.244 OA
ATOM     26  N   UNL     1      -2.420  -2.708  24.198  0.00  0.00    -0.191 NA
ATOM     27  C   UNL     1      -1.787  -2.337  24.574  0.00  0.00    +0.102 A 
ATOM     28  C   UNL     1      -1.012  -2.580  24.720  0.00  0.00    +0.021 A 
ATOM     29  C   UNL     1      -0.491  -2.079  25.117  0.00  0.00    +0.002 A 
ATOM     30  C   UNL     1      -0.744  -1.335  25.368  0.00  0.00    +0.002 A 
ATOM     31  C   UNL     1      -1.518  -1.091  25.222  0.00  0.00    +0.019 A 
ATOM     32  C   UNL     1      -2.040  -1.593  24.825  0.00  0.00    +0.082 A 
ENDBRANCH  20  23
BRANCH  15  14
ATOM     14  C   UNL     1      -4.559   1.854  24.782  0.00  0.00    +0.085 C 
BRANCH  14  13
ATOM      8  C   UNL     1      -4.432   3.253  25.047  0.00  0.00    +0.024 C 
ATOM      9  C   UNL     1      -4.753   3.958  25.329  0.00  0.00    +0.089 C 
ATOM     10  N   UNL     1      -5.521   3.971  25.630  0.00  0.00    -0.218 NA
ATOM     11  C   UNL     1      -5.968   3.278  25.649  0.00  0.00    +0.089 C 
ATOM     12  C   UNL     1      -5.648   2.572  25.366  0.00  0.00    +0.019 C 
ATOM     13  C   UNL     1      -4.880   2.560  25.065  0.00  0.00    +0.012 C 
BRANCH   8   7
ATOM      7  C   UNL     1      -3.664   3.239  24.746  0.00  0.00    +0.051 C 
BRANCH   7   6
ATOM      4  C   UNL     1      -2.012   4.491  25.260  0.00  0.00    +0.256 A 
ATOM      5  C   UNL     1      -2.473   4.100  24.698  0.00  0.00    +0.065 A 
ATOM      6  C   UNL     1      -3.076   3.701  25.095  0.00  0.00    +0.101 A 
ATOM     33  N   UNL     1      -2.989   3.846  25.903  0.00  0.00    -0.081 NA
ATOM     34  O   UNL     1      -2.331   4.334  26.004  0.00  0.00    -0.347 OA
BRANCH   4   2
ATOM      1  O   UNL     1      -0.622   4.599  24.949  0.00  0.00    -0.237 OA
ATOM      2  C   UNL     1      -1.350   4.956  25.105  0.00  0.00    +0.424 C 
ATOM      3  O   UNL     1      -1.413   5.778  25.106  0.00  0.00    -0.237 OA
ENDBRANCH   4   2
ENDBRANCH   7   6
ENDBRANCH   8   7
ENDBRANCH  14  13
ENDBRANCH  15  14
TORSDOF 6
ENDMDL
MODEL 3
REMARK VINA RESULT:     -12.1      1.970      5.964
REMARK  Name = 
REMARK  6 active torsions:
REMARK  status: ('A' for Active; 'I' for Inactive)
REMARK    1  A    between atoms: C_2  and  C_4
REMARK    2  A    between atoms: C_6  and  C_7
REMARK    3  A    between atoms: C_7  and  C_8
REMARK    4  A    between atoms: C_13  and  C_14
REMARK    5  A    between atoms: C_14  and  C_15
REMARK    6  A    between atoms: C_20  and  N_23
REMARK                            x       y       z     vdW  Elec       q    Type
REMARK                         _______ _______ _______ _____ _____    ______ ____
ROOT
ATOM     15  C   UNL     1      -4.098  -0.798  24.679  0.00  0.00    +0.226 C 
ATOM     16  O   UNL     1      -4.522  -1.242  24.128  0.00  0.00    -0.275 OA
ATOM     17  N   UNL     1      -4.324  -0.022  24.845  0.00  0.00    -0.279 N 
ATOM     18  C   UNL     1      -4.974   0.309  24.460  0.00  0.00    +0.095 C 
ATOM     19  C   UNL     1      -5.200   1.086  24.627  0.00  0.00    +0.044 C 
ATOM     20  C   UNL     1      -4.776   1.529  25.177  0.00  0.00    +0.093 C 
ATOM     21  C   UNL     1      -4.126   1.198  25.562  0.00  0.00    +0.044 C 
ATOM     22  C   UNL     1      -3.899   0.422  25.396  0.00  0.00    +0.095 C 
ENDROOT
BRANCH  20  23
ATOM     23  N   UNL     1      -5.002   2.306  25.344  0.00  0.00    -0.280 N 
ATOM     24  C   UNL     1      -5.631   2.534  25.826  0.00  0.00    +0.350 A 
ATOM     25  O   UNL     1      -6.143   2.028  26.228  0.00  0.00    -0.244 OA
ATOM     26  N   UNL     1      -5.657   3.359  25.837  0.00  0.00    -0.191 NA
ATOM     27  C   UNL     1      -5.044   3.639  25.362  0.00  0.00    +0.102 A 
ATOM     28  C   UNL     1      -4.802   4.404  25.166  0.00  0.00    +0.021 A 
ATOM     29  C   UNL     1      -4.156   4.517  24.666  0.00  0.00    +0.002 A 
ATOM     30  C   UNL     1      -3.752   3.866  24.361  0.00  0.00    +0.002 A 
ATOM     31  C   UNL     1      -3.993   3.101  24.556  0.00  0.00    +0.019 A 
ATOM     32  C   UNL     1      -4.640   2.988  25.056  0.00  0.00    +0.082 A 
ENDBRANCH  20  23
BRANCH  15  14
ATOM     14  C   UNL     1      -3.447  -1.130  25.063  0.00  0.00    +0.085 C 
BRANCH  14  13
ATOM      8  C   UNL     1      -2.274  -1.899  24.793  0.00  0.00    +0.024 C 
ATOM      9  C   UNL     1      -1.920  -2.580  24.492  0.00  0.00    +0.089 C 
ATOM     10  N   UNL     1      -2.386  -3.175  24.159  0.00  0.00    -0.218 NA
ATOM     11  C   UNL     1      -3.205  -3.087  24.128  0.00  0.00    +0.089 C 
ATOM     12  C   UNL     1      -3.559  -2.405  24.429  0.00  0.00    +0.019 C 
ATOM     13  C   UNL     1      -3.093  -1.812  24.762  0.00  0.00    +0.012 C 
BRANCH   8   7
ATOM      7  C   UNL     1      -1.808  -1.305  25.126  0.00  0.00    +0.051 C 
BRANCH   7   6
ATOM      4  C   UNL     1      -0.075  -0.572  24.117  0.00  0.00    +0.256 A 
ATOM      5  C   UNL     1      -0.882  -0.534  24.285  0.00  0.00    +0.065 A 
ATOM      6  C   UNL     1      -1.063  -1.141  24.813  0.00  0.00    +0.101 A 
ATOM     33  N   UNL     1      -0.367  -1.555  24.973  0.00  0.00    -0.081 NA
ATOM     34  O   UNL     1       0.243  -1.203  24.543  0.00  0.00    -0.347 OA
BRANCH   4   2
ATOM      1  O   UNL     1       0.272   0.750  23.700  0.00  0.00    -0.237 OA
ATOM      2  C   UNL     1       0.341  -0.068  23.614  0.00  0.00    +0.424 C 
ATOM      3  O   UNL     1       0.825  -0.382  23.024  0.00  0.00    -0.237 OA
ENDBRANCH   4   2
ENDBRANCH   7   6
ENDBRANCH   8   7
ENDBRANCH  14  13
ENDBRANCH  15  14
TORSDOF 6
ENDMDL
MODEL 4
REMARK VINA RESULT:     -11.9      1.552      3.200
REMARK  Name = 
REMARK  6 active torsions:
REMARK  status: ('A' for Active; 'I' for Inactive)
REMARK    1  A    between atoms: C_2  and  C_4
REMARK    2  A    between atoms: C_6  and  C_7
REMARK    3  A    between atoms: C_7  and  C_8
REMARK    4  A    between atoms: C_13  and  C_14
REMARK    5  A    between atoms: C_14  and  C_15
REMARK    6  A    between atoms: C_20  and  N_23
REMARK                            x       y       z     vdW  Elec       q    Type
REMARK                         _______ _______ _______ _____ _____    ______ ____
ROOT
ATOM     15  C   UNL     1      -4.227   2.102  24.897  0.00  0.00    +0.226 C 
ATOM     16  O   UNL     1      -4.993   2.403  24.955  0.00  0.00    -0.275 OA
ATOM     17  N   UNL     1      -4.098   1.289  24.961  0.00  0.00    -0.279 N 
ATOM     18  C   UNL     1      -4.735   0.779  25.083  0.00  0.00    +0.095 C 
ATOM     19  C   UNL     1      -4.605  -0.034  25.147  0.00  0.00    +0.044 C 
ATOM     20  C   UNL     1      -3.840  -0.335  25.090  0.00  0.00    +0.093 C 
ATOM     21  C   UNL     1      -3.203   0.175  24.968  0.00  0.00    +0.044 C 
ATOM     22  C   UNL     1      -3.332   0.988  24.904  0.00  0.00    +0.095 C 
ENDROOT
BRANCH  20  23
ATOM     23  N   UNL     1      -3.710  -1.148  25.154  0.00  0.00    -0.280 N 
ATOM     24  C   UNL     1      -3.406  -1.540  25.813  0.00  0.00    +0.350 A 
ATOM     25  O   UNL     1      -3.178  -1.188  26.523  0.00  0.00    -0.244 OA
ATOM     26  N   UNL     1      -3.371  -2.345  25.636  0.00  0.00    -0.191 NA
ATOM     27  C   UNL     1      -3.653  -2.451  24.869  0.00  0.00    +0.102 A 
ATOM     28  C   UNL     1      -3.746  -3.125  24.402  0.00  0.00    +0.021 A 
ATOM     29  C   UNL     1      -4.049  -3.059  23.638  0.00  0.00    +0.002 A 
ATOM     30  C   UNL     1      -4.259  -2.319  23.340  0.00  0.00    +0.002 A 
ATOM     31  C   UNL     1      -4.166  -1.645  23.805  0.00  0.00    +0.019 A 
ATOM     32  C   UNL     1      -3.863  -1.711  24.571  0.00  0.00    +0.082 A 
ENDBRANCH  20  23
BRANCH  15  14
ATOM     14  C   UNL     1      -3.591   2.612  24.776  0.00  0.00    +0.085 C 
BRANCH  14  13
ATOM      8  C   UNL     1      -2.816   3.733  25.207  0.00  0.00    +0.024 C 
ATOM      9  C   UNL     1      -2.736   4.410  25.670  0.00  0.00    +0.089 C 
ATOM     10  N   UNL     1      -3.353   4.646  26.166  0.00  0.00    -0.218 NA
ATOM     11  C   UNL     1      -4.048   4.204  26.197  0.00  0.00    +0.089 C 
ATOM     12  C   UNL     1      -4.128   3.526  25.734  0.00  0.00    +0.019 C 
ATOM     13  C   UNL     1      -3.511   3.290  25.239  0.00  0.00    +0.012 C 
BRANCH   8   7
ATOM      7  C   UNL     1      -2.199   3.496  24.712  0.00  0.00    +0.051 C 
BRANCH   7   6
ATOM      4  C   UNL     1      -0.252   3.092  25.489  0.00  0.00    +0.256 A 
ATOM      5  C   UNL     1      -1.005   2.841  25.265  0.00  0.00    +0.065 A 
ATOM      6  C   UNL     1      -1.423   3.497  24.991  0.00  0.00    +0.101 A 
ATOM     33  N   UNL     1      -0.927   4.155  25.045  0.00  0.00    -0.081 NA
ATOM     34  O   UNL     1      -0.204   3.904  25.352  0.00  0.00    -0.347 OA
BRANCH   4   2
ATOM      1  O   UNL     1       0.698   2.038  25.320  0.00  0.00    -0.237 OA
ATOM      2  C   UNL     1       0.348   2.616  25.794  0.00  0.00    +0.424 C 
ATOM      3  O   UNL     1       0.597   2.716  26.574  0.00  0.00    -0.237 OA
ENDBRANCH   4   2
ENDBRANCH   7   6
ENDBRANCH   8   7
ENDBRANCH  14  13
ENDBRANCH  15  14
TORSDOF 6
ENDMDL
MODEL 5
REMARK VINA RESULT:     -11.7      1.516      5.124
REMARK  Name = 
REMARK  6 active torsions:
REMARK  status: ('A' for Active; 'I' for Inactive)
REMARK    1  A    between atoms: C_2  and  C_4
REMARK    2  A    between atoms: C_6  and  C_7
REMARK    3  A    between atoms: C_7  and  C_8
REMARK    4  A    between atoms: C_13  and  C_14
REMARK    5  A    between atoms: C_14  and  C_15
REMARK    6  A    between atoms: C_20  and  N_23
REMARK                            x       y       z     vdW  Elec       q    Type
REMARK                         _______ _______ _______ _____ _____    ______ ____
ROOT
ATOM     15  C   UNL     1      -1.277   1.487  24.061  0.00  0.00    +0.226 C 
ATOM     16  O   UNL     1      -0.975   1.695  23.322  0.00  0.00    -0.275 OA
ATOM     17  N   UNL     1      -1.945   1.870  24.357  0.00  0.00    -0.279 N 
ATOM     18  C   UNL     1      -2.311   2.462  23.913  0.00  0.00    +0.095 C 
ATOM     19  C   UNL     1      -2.979   2.846  24.209  0.00  0.00    +0.044 C 
ATOM     20  C   UNL     1      -3.280   2.638  24.948  0.00  0.00    +0.093 C 
ATOM     21  C   UNL     1      -2.914   2.046  25.392  0.00  0.00    +0.044 C 
ATOM     22  C   UNL     1      -2.246   1.662  25.096  0.00  0.00    +0.095 C 
ENDROOT
BRANCH  20  23
ATOM     23  N   UNL     1      -3.948   3.022  25.244  0.00  0.00    -0.280 N 
ATOM     24  C   UNL     1      -3.962   3.765  25.601  0.00  0.00    +0.350 A 
ATOM     25  O   UNL     1      -3.310   4.255  25.726  0.00  0.00    -0.244 OA
ATOM     26  N   UNL     1      -4.742   3.932  25.813  0.00  0.00    -0.191 NA
ATOM     27  C   UNL     1      -5.210   3.292  25.585  0.00  0.00    +0.102 A 
ATOM     28  C   UNL     1      -6.019   3.149  25.653  0.00  0.00    +0.021 A 
ATOM     29  C   UNL     1      -6.339   2.443  25.370  0.00  0.00    +0.002 A 
ATOM     30  C   UNL     1      -5.848   1.881  25.018  0.00  0.00    +0.002 A 
ATOM     31  C   UNL     1      -5.039   2.023  24.950  0.00  0.00    +0.019 A 
ATOM     32  C   UNL     1      -4.719   2.730  25.234  0.00  0.00    +0.082 A 
ENDBRANCH  20  23
BRANCH  15  14
ATOM     14  C   UNL     1      -0.911   0.895  24.504  0.00  0.00    +0.085 C 
BRANCH  14  13
ATOM      8  C   UNL     1      -0.401  -0.433  24.363  0.00  0.00    +0.024 C 
ATOM      9  C   UNL     1       0.109  -0.966  23.996  0.00  0.00    +0.089 C 
ATOM     10  N   UNL     1       0.622  -0.707  23.404  0.00  0.00    -0.218 NA
ATOM     11  C   UNL     1       0.624   0.087  23.179  0.00  0.00    +0.089 C 
ATOM     12  C   UNL     1       0.113   0.621  23.546  0.00  0.00    +0.019 C 
ATOM     13  C   UNL     1      -0.399   0.361  24.138  0.00  0.00    +0.012 C 
BRANCH   8   7
ATOM      7  C   UNL     1      -0.915  -0.692  24.954  0.00  0.00    +0.051 C 
BRANCH   7   6
ATOM      4  C   UNL     1      -2.279  -2.319  24.728  0.00  0.00    +0.256 A 
ATOM      5  C   UNL     1      -2.125  -1.512  24.798  0.00  0.00    +0.065 A 
ATOM      6  C   UNL     1      -1.310  -1.412  24.871  0.00  0.00    +0.101 A 
ATOM     33  N   UNL     1      -0.959  -2.158  24.846  0.00  0.00    -0.081 NA
ATOM     34  O   UNL     1      -1.558  -2.718  24.757  0.00  0.00    -0.347 OA
BRANCH   4   2
ATOM      1  O   UNL     1      -3.233  -3.021  23.929  0.00  0.00    -0.237 OA
ATOM      2  C   UNL     1      -3.022  -2.666  24.643  0.00  0.00    +0.424 C 
ATOM      3  O   UNL     1      -3.555  -2.658  25.272  0.00  0.00    -0.237 OA
ENDBRANCH   4   2
ENDBRANCH   7   6
ENDBRANCH   8   7
ENDBRANCH  14  13
ENDBRANCH  15  14
TORSDOF 6
ENDMDL
MODEL 6
REMARK VINA RESULT:     -11.7      1.370      5.897
REMARK  Name = 
REMARK  6 active torsions:
REMARK  status: ('A' for Active; 'I' for Inactive)
REMARK    1  A    between atoms: C_2  and  C_4
REMARK    2  A    between atoms: C_6  and  C_7
REMARK    3  A    between atoms: C_7  and  C_8
REMARK    4  A    between atoms: C_13  and  C_14
REMARK    5  A    between atoms: C_14  and  C_15
REMARK    6  A    between atoms: C_20  and  N_23
REMARK                            x       y       z     vdW  Elec       q    Type
REMARK                         _______ _______ _______ _____ _____    ______ ____
ROOT
ATOM     15  C   UNL     1      -3.941   0.438  24.583  0.00  0.00    +0.226 C 
ATOM     16  O   UNL     1      -4.485   0.316  23.975  0.00  0.00    -0.275 OA
ATOM     17  N   UNL     1      -3.697   1.203  24.771  0.00  0.00    -0.279 N 
ATOM     18  C   UNL     1      -3.997   1.847  24.351  0.00  0.00    +0.095 C 
ATOM     19  C   UNL     1      -3.753   2.612  24.539  0.00  0.00    +0.044 C 
ATOM     20  C   UNL     1      -3.209   2.734  25.147  0.00  0.00    +0.093 C 
ATOM     21  C   UNL     1      -2.909   2.090  25.567  0.00  0.00    +0.044 C 
ATOM     22  C   UNL     1      -3.153   1.325  25.379  0.00  0.00    +0.095 C 
ENDROOT
BRANCH  20  23
ATOM     23  N   UNL     1      -2.965   3.500  25.335  0.00  0.00    -0.280 N 
ATOM     24  C   UNL     1      -3.400   4.056  25.759  0.00  0.00    +0.350 A 
ATOM     25  O   UNL     1      -4.156   3.946  26.071  0.00  0.00    -0.244 OA
ATOM     26  N   UNL     1      -2.947   4.744  25.818  0.00  0.00    -0.191 NA
ATOM     27  C   UNL     1      -2.232   4.611  25.430  0.00  0.00    +0.102 A 
ATOM     28  C   UNL     1      -1.571   5.090  25.309  0.00  0.00    +0.021 A 
ATOM     29  C   UNL     1      -0.923   4.802  24.890  0.00  0.00    +0.002 A 
ATOM     30  C   UNL     1      -0.934   4.033  24.592  0.00  0.00    +0.002 A 
ATOM     31  C   UNL     1      -1.593   3.552  24.712  0.00  0.00    +0.019 A 
ATOM     32  C   UNL     1      -2.243   3.842  25.131  0.00  0.00    +0.082 A 
ENDBRANCH  20  23
BRANCH  15  14
ATOM     14  C   UNL     1      -3.641  -0.206  25.003  0.00  0.00    +0.085 C 
BRANCH  14  13
ATOM      8  C   UNL     1      -3.060  -1.497  24.811  0.00  0.00    +0.024 C 
ATOM      9  C   UNL     1      -3.094  -2.254  24.485  0.00  0.00    +0.089 C 
ATOM     10  N   UNL     1      -3.742  -2.478  24.026  0.00  0.00    -0.218 NA
ATOM     11  C   UNL     1      -4.356  -1.944  23.893  0.00  0.00    +0.089 C 
ATOM     12  C   UNL     1      -4.323  -1.186  24.218  0.00  0.00    +0.019 C 
ATOM     13  C   UNL     1      -3.675  -0.963  24.677  0.00  0.00    +0.012 C 
BRANCH   8   7
ATOM      7  C   UNL     1      -2.412  -1.273  25.270  0.00  0.00    +0.051 C 
BRANCH   7   6
ATOM      4  C   UNL     1      -0.477  -1.064  24.392  0.00  0.00    +0.256 A 
ATOM      5  C   UNL     1      -1.207  -0.749  24.610  0.00  0.00    +0.065 A 
ATOM      6  C   UNL     1      -1.648  -1.347  24.968  0.00  0.00    +0.101 A 
ATOM     33  N   UNL     1      -1.189  -2.034  24.971  0.00  0.00    -0.081 NA
ATOM     34  O   UNL     1      -0.466  -1.858  24.615  0.00  0.00    -0.347 OA
BRANCH   4   2
ATOM      1  O   UNL     1       0.825  -1.055  23.803  0.00  0.00    -0.237 OA
ATOM      2  C   UNL     1       0.134  -0.657  24.017  0.00  0.00    +0.424 C 
ATOM      3  O   UNL     1       0.056   0.148  23.856  0.00  0.00    -0.237 OA
ENDBRANCH   4   2
ENDBRANCH   7   6
ENDBRANCH   8   7
ENDBRANCH  14  13
ENDBRANCH  15  14
TORSDOF 6
ENDMDL
MODEL 7
REMARK VINA RESULT:     -10.9      2.213      5.839
REMARK  Name = 
REMARK  6 active torsions:
REMARK  status: ('A' for Active; 'I' for Inactive)
REMARK    1  A    between atoms: C_2  and  C_4
REMARK    2  A    between atoms: C_6  and  C_7
REMARK    3  A    between atoms: C_7  and  C_8
REMARK    4  A    between atoms: C_13  and  C_14
REMARK    5  A    between atoms: C_14  and  C_15
REMARK    6  A    between atoms: C_20  and  N_23
REMARK                            x       y       z     vdW  Elec       q    Type
REMARK                         _______ _______ _______ _____ _____    ______ ____
ROOT
ATOM     15  C   UNL     1      -0.985   1.268  24.912  0.00  0.00    +0.226 C 
ATOM     16  O   UNL     1      -0.475   1.264  25.560  0.00  0.00    -0.275 OA
ATOM     17  N   UNL     1      -1.688   1.700  24.943  0.00  0.00    -0.279 N 
ATOM     18  C   UNL     1      -1.879   2.128  25.622  0.00  0.00    +0.095 C 
ATOM     19  C   UNL     1      -2.581   2.561  25.653  0.00  0.00    +0.044 C 
ATOM     20  C   UNL     1      -3.092   2.564  25.005  0.00  0.00    +0.093 C 
ATOM     21  C   UNL     1      -2.901   2.135  24.326  0.00  0.00    +0.044 C 
ATOM     22  C   UNL     1      -2.199   1.703  24.295  0.00  0.00    +0.095 C 
ENDROOT
BRANCH  20  23
ATOM     23  N   UNL     1      -3.795   2.996  25.036  0.00  0.00    -0.280 N 
ATOM     24  C   UNL     1      -3.875   3.802  24.879  0.00  0.00    +0.350 A 
ATOM     25  O   UNL     1      -3.268   4.317  24.662  0.00  0.00    -0.244 OA
ATOM     26  N   UNL     1      -4.670   4.002  24.975  0.00  0.00    -0.191 NA
ATOM     27  C   UNL     1      -5.080   3.320  25.192  0.00  0.00    +0.102 A 
ATOM     28  C   UNL     1      -5.876   3.184  25.360  0.00  0.00    +0.021 A 
ATOM     29  C   UNL     1      -6.131   2.428  25.566  0.00  0.00    +0.002 A 
ATOM     30  C   UNL     1      -5.590   1.806  25.604  0.00  0.00    +0.002 A 
ATOM     31  C   UNL     1      -4.794   1.941  25.436  0.00  0.00    +0.019 A 
ATOM     32  C   UNL     1      -4.539   2.699  25.230  0.00  0.00    +0.082 A 
ENDBRANCH  20  23
BRANCH  15  14
ATOM     14  C   UNL     1      -0.794   0.839  24.234  0.00  0.00    +0.085 C 
BRANCH  14  13
ATOM      8  C   UNL     1       0.119  -0.170  23.799  0.00  0.00    +0.024 C 
ATOM      9  C   UNL     1       0.425  -0.933  23.866  0.00  0.00    +0.089 C 
ATOM     10  N   UNL     1       0.125  -1.450  24.434  0.00  0.00    -0.218 NA
ATOM     11  C   UNL     1      -0.482  -1.204  24.935  0.00  0.00    +0.089 C 
ATOM     12  C   UNL     1      -0.789  -0.441  24.869  0.00  0.00    +0.019 C 
ATOM     13  C   UNL     1      -0.488   0.076  24.300  0.00  0.00    +0.012 C 
BRANCH   8   7
ATOM      7  C   UNL     1       0.420   0.347  23.231  0.00  0.00    +0.051 C 
BRANCH   7   6
ATOM      4  C   UNL     1       2.477   0.243  22.669  0.00  0.00    +0.256 A 
ATOM      5  C   UNL     1       1.877   0.527  23.158  0.00  0.00    +0.065 A 
ATOM      6  C   UNL     1       1.162   0.209  22.899  0.00  0.00    +0.101 A 
ATOM     33  N   UNL     1       1.320  -0.274  22.247  0.00  0.00    -0.081 NA
ATOM     34  O   UNL     1       2.132  -0.252  22.106  0.00  0.00    -0.347 OA
BRANCH   4   2
ATOM      1  O   UNL     1       3.528   1.209  22.732  0.00  0.00    -0.237 OA
ATOM      2  C   UNL     1       3.279   0.422  22.731  0.00  0.00    +0.424 C 
ATOM      3  O   UNL     1       3.834  -0.186  22.793  0.00  0.00    -0.237 OA
ENDBRANCH   4   2
ENDBRANCH   7   6
ENDBRANCH   8   7
ENDBRANCH  14  13
ENDBRANCH  15  14
TORSDOF 6
ENDMDL
