MODEL 1
REMARK VINA RESULT:      -9.3      0.000      0.000
REMARK  Name = 
REMARK  8 active torsions:
REMARK  status: ('A' for Active; 'I' for Inactive)
REMARK    1  A    between atoms: O_2  and  C_3
REMARK    2  A    between atoms: C_8  and  C_9
REMARK    3  A    between atoms: C_9  and  C_10
REMARK    4  A    between atoms: C_12  and  C_13
REMARK    5  A    between atoms: C_16  and  C_17
REMARK    6  A    between atoms: C_17  and  N_18
REMARK    7  A    between atoms: C_19  and  C_21
REMARK    8  A    between atoms: C_22  and  C_23
REMARK                            x       y       z     vdW  Elec       q    Type
REMARK                         _______ _______ _______ _____ _____    ______ ____
ROOT
ATOM     10  C   UNL     1      -2.414   2.244  23.653  0.00  0.00    +0.026 C 
ATOM     11  C   UNL     1      -2.075   2.130  24.396  0.00  0.00    +0.005 C 
ATOM     12  C   UNL     1      -1.426   1.626  24.481  0.00  0.00    +0.006 C 
ATOM     16  C   UNL     1      -1.118   1.237  23.823  0.00  0.00    +0.043 C 
ATOM     26  C   UNL     1      -1.457   1.351  23.079  0.00  0.00    -0.033 C 
ATOM     27  C   UNL     1      -2.104   1.854  22.994  0.00  0.00    -0.048 C 
ATOM     28  C   UNL     1      -2.443   1.968  22.250  0.00  0.00    +0.026 C 
ENDROOT
BRANCH  12  13
ATOM     13  C   UNL     1      -1.087   1.513  25.224  0.00  0.00    +0.000 C 
ATOM     14  C   UNL     1      -0.550   2.063  25.522  0.00  0.00    +0.000 C 
ATOM     15  C   UNL     1      -1.286   0.847  25.671  0.00  0.00    +0.000 C 
ENDBRANCH  12  13
BRANCH  10   9
ATOM      9  C   UNL     1      -3.061   2.747  23.567  0.00  0.00    +0.070 C 
BRANCH   9   8
ATOM      3  C   UNL     1      -5.868   2.192  25.664  0.00  0.00    +0.140 A 
ATOM      4  C   UNL     1      -5.434   1.870  25.042  0.00  0.00    +0.058 A 
ATOM      5  C   UNL     1      -4.775   2.271  24.746  0.00  0.00    +0.103 A 
ATOM      6  C   UNL     1      -4.552   2.994  25.074  0.00  0.00    +0.100 A 
ATOM      7  N   UNL     1      -3.883   3.260  24.672  0.00  0.00    -0.229 NA
ATOM      8  C   UNL     1      -3.693   2.702  24.096  0.00  0.00    +0.139 A 
ATOM     29  N   UNL     1      -4.244   2.091  24.142  0.00  0.00    -0.229 NA
ATOM     30  C   UNL     1      -4.987   3.317  25.697  0.00  0.00    +0.024 A 
ATOM     31  C   UNL     1      -5.645   2.916  25.991  0.00  0.00    +0.039 A 
BRANCH   3   2
ATOM      1  C   UNL     1      -6.542   1.547  26.746  0.00  0.00    +0.252 C 
ATOM      2  O   UNL     1      -6.526   1.792  25.958  0.00  0.00    -0.471 OA
ENDBRANCH   3   2
ENDBRANCH   9   8
ENDBRANCH  10   9
BRANCH  16  17
ATOM     17  C   UNL     1      -0.469   0.733  23.907  0.00  0.00    +0.120 C 
BRANCH  17  18
ATOM     18  N   UNL     1       0.139   0.748  23.350  0.00  0.00    -0.201 NA
ATOM     19  C   UNL     1       0.624   0.088  23.251  0.00  0.00    +0.265 C 
ATOM     20  O   UNL     1       0.500  -0.587  23.710  0.00  0.00    -0.268 OA
BRANCH  19  21
ATOM     21  C   UNL     1       1.232   0.102  22.694  0.00  0.00    +0.066 C 
ATOM     22  C   UNL     1       2.018   0.134  22.943  0.00  0.00    +0.091 C 
BRANCH  22  23
ATOM     23  C   UNL     1       2.626   0.148  22.385  0.00  0.00    +0.388 C 
ATOM     24  O   UNL     1       3.372   0.432  22.595  0.00  0.00    -0.241 OA
ATOM     25  O   UNL     1       2.489  -0.121  21.617  0.00  0.00    -0.241 OA
ENDBRANCH  22  23
ENDBRANCH  19  21
ENDBRANCH  17  18
ENDBRANCH  16  17
TORSDOF 8
ENDMDL
MODEL 2
REMARK VINA RESULT:      -8.9      1.231      1.596
REMARK  Name = 
REMARK  8 active torsions:
REMARK  status: ('A' for Active; 'I' for Inactive)
REMARK    1  A    between atoms: O_2  and  C_3
REMARK    2  A    between atoms: C_8  and  C_9
REMARK    3  A    between atoms: C_9  and  C_10
REMARK    4  A    between atoms: C_12  and  C_13
REMARK    5  A    between atoms: C_16  and  C_17
REMARK    6  A    between atoms: C_17  and  N_18
REMARK    7  A    between atoms: C_19  and  C_21
REMARK    8  A    between atoms: C_22  and  C_23
REMARK                            x       y       z     vdW  Elec       q    Type
REMARK                         _______ _______ _______ _____ _____    ______ ____
ROOT
ATOM     10  C   UNL     1      -1.176   2.620  25.053  0.00  0.00    +0.026 C 
ATOM     11  C   UNL     1      -1.456   1.861  25.215  0.00  0.00    +0.005 C 
ATOM     12  C   UNL     1      -1.082   1.204  24.886  0.00  0.00    +0.006 C 
ATOM     16  C   UNL     1      -0.428   1.305  24.394  0.00  0.00    +0.043 C 
ATOM     26  C   UNL     1      -0.147   2.063  24.232  0.00  0.00    -0.033 C 
ATOM     27  C   UNL     1      -0.521   2.721  24.560  0.00  0.00    -0.048 C 
ATOM     28  C   UNL     1      -0.240   3.480  24.398  0.00  0.00    +0.026 C 
ENDROOT
BRANCH  12  13
ATOM     13  C   UNL     1      -1.362   0.445  25.048  0.00  0.00    +0.000 C 
ATOM     14  C   UNL     1      -1.919   0.095  24.550  0.00  0.00    +0.000 C 
ATOM     15  C   UNL     1      -1.086   0.036  25.710  0.00  0.00    +0.000 C 
ENDBRANCH  12  13
BRANCH  10   9
ATOM      9  C   UNL     1      -1.550   3.278  25.381  0.00  0.00    +0.070 C 
BRANCH   9   8
ATOM      3  C   UNL     1      -5.086   3.482  25.556  0.00  0.00    +0.140 A 
ATOM      4  C   UNL     1      -4.413   3.287  25.990  0.00  0.00    +0.058 A 
ATOM      5  C   UNL     1      -3.667   3.347  25.644  0.00  0.00    +0.103 A 
ATOM      6  C   UNL     1      -3.594   3.602  24.863  0.00  0.00    +0.100 A 
ATOM      7  N   UNL     1      -2.793   3.607  24.669  0.00  0.00    -0.229 NA
ATOM      8  C   UNL     1      -2.369   3.355  25.331  0.00  0.00    +0.139 A 
ATOM     29  N   UNL     1      -2.910   3.195  25.933  0.00  0.00    -0.229 NA
ATOM     30  C   UNL     1      -4.268   3.797  24.428  0.00  0.00    +0.024 A 
ATOM     31  C   UNL     1      -5.014   3.737  24.775  0.00  0.00    +0.039 A 
BRANCH   3   2
ATOM      1  C   UNL     1      -6.218   2.693  25.928  0.00  0.00    +0.252 C 
ATOM      2  O   UNL     1      -5.832   3.422  25.902  0.00  0.00    -0.471 OA
ENDBRANCH   3   2
ENDBRANCH   9   8
ENDBRANCH  10   9
BRANCH  16  17
ATOM     17  C   UNL     1      -0.053   0.647  24.065  0.00  0.00    +0.120 C 
BRANCH  17  18
ATOM     18  N   UNL     1       0.550   0.751  23.512  0.00  0.00    -0.201 NA
ATOM     19  C   UNL     1       0.957   0.097  23.216  0.00  0.00    +0.265 C 
ATOM     20  O   UNL     1       0.759  -0.662  23.474  0.00  0.00    -0.268 OA
BRANCH  19  21
ATOM     21  C   UNL     1       1.561   0.201  22.664  0.00  0.00    +0.066 C 
ATOM     22  C   UNL     1       2.348   0.095  22.888  0.00  0.00    +0.091 C 
BRANCH  22  23
ATOM     23  C   UNL     1       2.951   0.199  22.335  0.00  0.00    +0.388 C 
ATOM     24  O   UNL     1       2.819   0.020  21.541  0.00  0.00    -0.241 OA
ATOM     25  O   UNL     1       3.688   0.483  22.577  0.00  0.00    -0.241 OA
ENDBRANCH  22  23
ENDBRANCH  19  21
ENDBRANCH  17  18
ENDBRANCH  16  17
TORSDOF 8
ENDMDL
MODEL 3
REMARK VINA RESULT:      -8.1      2.985      4.955
REMARK  Name = 
REMARK  8 active torsions:
REMARK  status: ('A' for Active; 'I' for Inactive)
REMARK    1  A    between atoms: O_2  and  C_3
REMARK    2  A    between atoms: C_8  and  C_9
REMARK    3  A    between atoms: C_9  and  C_10
REMARK    4  A    between atoms: C_12  and  C_13
REMARK    5  A    between atoms: C_16  and  C_17
REMARK    6  A    between atoms: C_17  and  N_18
REMARK    7  A    between atoms: C_19  and  C_21
REMARK    8  A    between atoms: C_22  and  C_23
REMARK                            x       y       z     vdW  Elec       q    Type
REMARK                         _______ _______ _______ _____ _____    ______ ____
ROOT
ATOM     10  C   UNL     1      -3.931   1.109  23.803  0.00  0.00    +0.026 C 
ATOM     11  C   UNL     1      -4.506   1.238  24.380  0.00  0.00    +0.005 C 
ATOM     12  C   UNL     1      -4.494   1.932  24.826  0.00  0.00    +0.006 C 
ATOM     16  C   UNL     1      -3.908   2.497  24.695  0.00  0.00    +0.043 C 
ATOM     26  C   UNL     1      -3.332   2.368  24.118  0.00  0.00    -0.033 C 
ATOM     27  C   UNL     1      -3.343   1.674  23.672  0.00  0.00    -0.048 C 
ATOM     28  C   UNL     1      -2.768   1.545  23.095  0.00  0.00    +0.026 C 
ENDROOT
BRANCH  12  13
ATOM     13  C   UNL     1      -5.069   2.061  25.403  0.00  0.00    +0.000 C 
ATOM     14  C   UNL     1      -5.726   2.530  25.234  0.00  0.00    +0.000 C 
ATOM     15  C   UNL     1      -4.988   1.720  26.151  0.00  0.00    +0.000 C 
ENDBRANCH  12  13
BRANCH  10   9
ATOM      9  C   UNL     1      -3.941   0.415  23.357  0.00  0.00    +0.070 C 
BRANCH   9   8
ATOM      3  C   UNL     1      -2.561  -2.496  24.841  0.00  0.00    +0.140 A 
ATOM      4  C   UNL     1      -2.376  -1.738  24.575  0.00  0.00    +0.058 A 
ATOM      5  C   UNL     1      -2.964  -1.258  24.251  0.00  0.00    +0.103 A 
ATOM      6  C   UNL     1      -3.738  -1.537  24.193  0.00  0.00    +0.100 A 
ATOM      7  N   UNL     1      -4.198  -0.945  23.852  0.00  0.00    -0.229 NA
ATOM      8  C   UNL     1      -3.709  -0.299  23.698  0.00  0.00    +0.139 A 
ATOM     29  N   UNL     1      -2.946  -0.493  23.944  0.00  0.00    -0.229 NA
ATOM     30  C   UNL     1      -3.924  -2.296  24.460  0.00  0.00    +0.024 A 
ATOM     31  C   UNL     1      -3.335  -2.775  24.784  0.00  0.00    +0.039 A 
BRANCH   3   2
ATOM      1  C   UNL     1      -1.180  -2.758  25.097  0.00  0.00    +0.252 C 
ATOM      2  O   UNL     1      -1.973  -2.974  25.165  0.00  0.00    -0.471 OA
ENDBRANCH   3   2
ENDBRANCH   9   8
ENDBRANCH  10   9
BRANCH  16  17
ATOM     17  C   UNL     1      -3.896   3.191  25.141  0.00  0.00    +0.120 C 
BRANCH  17  18
ATOM     18  N   UNL     1      -3.367   3.794  24.949  0.00  0.00    -0.201 NA
ATOM     19  C   UNL     1      -3.033   4.256  25.546  0.00  0.00    +0.265 C 
ATOM     20  O   UNL     1      -3.230   4.114  26.335  0.00  0.00    -0.268 OA
BRANCH  19  21
ATOM     21  C   UNL     1      -2.505   4.860  25.354  0.00  0.00    +0.066 C 
ATOM     22  C   UNL     1      -1.706   4.687  25.242  0.00  0.00    +0.091 C 
BRANCH  22  23
ATOM     23  C   UNL     1      -1.177   5.290  25.050  0.00  0.00    +0.388 C 
ATOM     24  O   UNL     1      -0.402   5.107  24.832  0.00  0.00    -0.241 OA
ATOM     25  O   UNL     1      -1.422   6.078  25.077  0.00  0.00    -0.241 OA
ENDBRANCH  22  23
ENDBRANCH  19  21
ENDBRANCH  17  18
ENDBRANCH  16  17
TORSDOF 8
ENDMDL
MODEL 4
REMARK VINA RESULT:      -8.0      1.271      6.385
REMARK  Name = 
REMARK  8 active torsions:
REMARK  status: ('A' for Active; 'I' for Inactive)
REMARK    1  A    between atoms: O_2  and  C_3
REMARK    2  A    between atoms: C_8  and  C_9
REMARK    3  A    between atoms: C_9  and  C_10
REMARK    4  A    between atoms: C_12  and  C_13
REMARK    5  A    between atoms: C_16  and  C_17
REMARK    6  A    between atoms: C_17  and  N_18
REMARK    7  A    between atoms: C_19  and  C_21
REMARK    8  A    between atoms: C_22  and  C_23
REMARK                            x       y       z     vdW  Elec       q    Type
REMARK                         _______ _______ _______ _____ _____    ______ ____
ROOT
ATOM     10  C   UNL     1      -0.875   0.604  24.475  0.00  0.00    +0.026 C 
ATOM     11  C   UNL     1      -0.523   1.334  24.631  0.00  0.00    +0.005 C 
ATOM     12  C   UNL     1      -0.992   2.005  24.734  0.00  0.00    +0.006 C 
ATOM     16  C   UNL     1      -1.813   1.947  24.682  0.00  0.00    +0.043 C 
ATOM     26  C   UNL     1      -2.165   1.217  24.527  0.00  0.00    -0.033 C 
ATOM     27  C   UNL     1      -1.697   0.546  24.423  0.00  0.00    -0.048 C 
ATOM     28  C   UNL     1      -2.050  -0.184  24.268  0.00  0.00    +0.026 C 
ENDROOT
BRANCH  12  13
ATOM     13  C   UNL     1      -0.640   2.734  24.889  0.00  0.00    +0.000 C 
ATOM     14  C   UNL     1      -0.455   3.245  24.268  0.00  0.00    +0.000 C 
ATOM     15  C   UNL     1      -0.471   2.954  25.667  0.00  0.00    +0.000 C 
ENDBRANCH  12  13
BRANCH  10   9
ATOM      9  C   UNL     1      -0.407  -0.067  24.372  0.00  0.00    +0.070 C 
BRANCH   9   8
ATOM      3  C   UNL     1       2.545   0.131  22.416  0.00  0.00    +0.140 A 
ATOM      4  C   UNL     1       2.245   0.251  23.175  0.00  0.00    +0.058 A 
ATOM      5  C   UNL     1       1.448   0.105  23.332  0.00  0.00    +0.103 A 
ATOM      6  C   UNL     1       0.951  -0.161  22.729  0.00  0.00    +0.100 A 
ATOM      7  N   UNL     1       0.196  -0.257  23.045  0.00  0.00    -0.229 NA
ATOM      8  C   UNL     1       0.226  -0.052  23.843  0.00  0.00    +0.139 A 
ATOM     29  N   UNL     1       1.000   0.172  24.020  0.00  0.00    -0.229 NA
ATOM     30  C   UNL     1       1.251  -0.281  21.969  0.00  0.00    +0.024 A 
ATOM     31  C   UNL     1       2.048  -0.135  21.813  0.00  0.00    +0.039 A 
BRANCH   3   2
ATOM      1  C   UNL     1       3.748   0.851  22.689  0.00  0.00    +0.252 C 
ATOM      2  O   UNL     1       3.341   0.277  22.259  0.00  0.00    -0.471 OA
ENDBRANCH   3   2
ENDBRANCH   9   8
ENDBRANCH  10   9
BRANCH  16  17
ATOM     17  C   UNL     1      -2.282   2.617  24.785  0.00  0.00    +0.120 C 
BRANCH  17  18
ATOM     18  N   UNL     1      -3.096   2.538  24.896  0.00  0.00    -0.201 NA
ATOM     19  C   UNL     1      -3.587   3.198  24.840  0.00  0.00    +0.265 C 
ATOM     20  O   UNL     1      -3.264   3.939  24.672  0.00  0.00    -0.268 OA
BRANCH  19  21
ATOM     21  C   UNL     1      -4.401   3.118  24.951  0.00  0.00    +0.066 C 
ATOM     22  C   UNL     1      -4.769   3.498  25.584  0.00  0.00    +0.091 C 
BRANCH  22  23
ATOM     23  C   UNL     1      -5.583   3.418  25.695  0.00  0.00    +0.388 C 
ATOM     24  O   UNL     1      -6.066   4.087  25.703  0.00  0.00    -0.241 OA
ATOM     25  O   UNL     1      -5.914   2.669  25.799  0.00  0.00    -0.241 OA
ENDBRANCH  22  23
ENDBRANCH  19  21
ENDBRANCH  17  18
ENDBRANCH  16  17
TORSDOF 8
ENDMDL
MODEL 5
REMARK VINA RESULT:      -7.6      1.674      2.710
REMARK  Name = 
REMARK  8 active torsions:
REMARK  status: ('A' for Active; 'I' for Inactive)
REMARK    1  A    between atoms: O_2  and  C_3
REMARK    2  A    between atoms: C_8  and  C_9
REMARK    3  A    between atoms: C_9  and  C_10
REMARK    4  A    between atoms: C_12  and  C_13
REMARK    5  A    between atoms: C_16  and  C_17
REMARK    6  A    between atoms: C_17  and  N_18
REMARK    7  A    between atoms: C_19  and  C_21
REMARK    8  A    between atoms: C_22  and  C_23
REMARK                            x       y       z     vdW  Elec       q    Type
REMARK                         _______ _______ _______ _____ _____    ______ ____
ROOT
ATOM     10  C   UNL     1      -0.900  -0.380  24.735  0.00  0.00    +0.026 C 
ATOM     11  C   UNL     1      -0.857   0.412  24.507  0.00  0.00    +0.005 C 
ATOM     12  C   UNL     1      -0.268   0.659  23.984  0.00  0.00    +0.006 C 
ATOM     16  C   UNL     1       0.276   0.115  23.689  0.00  0.00    +0.043 C 
ATOM     26  C   UNL     1       0.233  -0.677  23.916  0.00  0.00    -0.033 C 
ATOM     27  C   UNL     1      -0.355  -0.925  24.439  0.00  0.00    -0.048 C 
ATOM     28  C   UNL     1      -0.398  -1.717  24.667  0.00  0.00    +0.026 C 
ENDROOT
BRANCH  12  13
ATOM     13  C   UNL     1      -0.225   1.450  23.756  0.00  0.00    +0.000 C 
ATOM     14  C   UNL     1       0.207   1.987  24.210  0.00  0.00    +0.000 C 
ATOM     15  C   UNL     1      -0.614   1.706  23.074  0.00  0.00    +0.000 C 
ENDBRANCH  12  13
BRANCH  10   9
ATOM      9  C   UNL     1      -1.488  -0.628  25.258  0.00  0.00    +0.070 C 
BRANCH   9   8
ATOM      3  C   UNL     1      -4.795   0.620  24.956  0.00  0.00    +0.140 A 
ATOM      4  C   UNL     1      -4.067   0.757  25.318  0.00  0.00    +0.058 A 
ATOM      5  C   UNL     1      -3.434   0.246  25.180  0.00  0.00    +0.103 A 
ATOM      6  C   UNL     1      -3.530  -0.403  24.680  0.00  0.00    +0.100 A 
ATOM      7  N   UNL     1      -2.814  -0.809  24.648  0.00  0.00    -0.229 NA
ATOM      8  C   UNL     1      -2.274  -0.412  25.128  0.00  0.00    +0.139 A 
ATOM     29  N   UNL     1      -2.658   0.240  25.457  0.00  0.00    -0.229 NA
ATOM     30  C   UNL     1      -4.259  -0.541  24.317  0.00  0.00    +0.024 A 
ATOM     31  C   UNL     1      -4.891  -0.029  24.456  0.00  0.00    +0.039 A 
BRANCH   3   2
ATOM      1  C   UNL     1      -5.392   1.912  24.829  0.00  0.00    +0.252 C 
ATOM      2  O   UNL     1      -5.427   1.131  25.094  0.00  0.00    -0.471 OA
ENDBRANCH   3   2
ENDBRANCH   9   8
ENDBRANCH  10   9
BRANCH  16  17
ATOM     17  C   UNL     1       0.865   0.361  23.166  0.00  0.00    +0.120 C 
BRANCH  17  18
ATOM     18  N   UNL     1       1.659   0.246  23.356  0.00  0.00    -0.201 NA
ATOM     19  C   UNL     1       2.219   0.162  22.756  0.00  0.00    +0.265 C 
ATOM     20  O   UNL     1       1.984   0.194  21.965  0.00  0.00    -0.268 OA
BRANCH  19  21
ATOM     21  C   UNL     1       3.014   0.047  22.946  0.00  0.00    +0.066 C 
ATOM     22  C   UNL     1       3.568   0.635  22.776  0.00  0.00    +0.091 C 
BRANCH  22  23
ATOM     23  C   UNL     1       4.362   0.520  22.966  0.00  0.00    +0.388 C 
ATOM     24  O   UNL     1       4.643   0.729  23.713  0.00  0.00    -0.241 OA
ATOM     25  O   UNL     1       4.877   0.194  22.408  0.00  0.00    -0.241 OA
ENDBRANCH  22  23
ENDBRANCH  19  21
ENDBRANCH  17  18
ENDBRANCH  16  17
TORSDOF 8
ENDMDL
