MODEL 1
REMARK VINA RESULT:     -12.8      0.000      0.000
REMARK  Name = 
REMARK  6 active torsions:
REMARK  status: ('A' for Active; 'I' for Inactive)
REMARK    1  A    between atoms: O_2  and  C_3
REMARK    2  A    between atoms: C_6  and  C_9
REMARK    3  A    between atoms: C_15  and  N_16
REMARK    4  A    between atoms: N_16  and  C_17
REMARK    5  A    between atoms: C_17  and  C_18
REMARK    6  A    between atoms: C_22  and  C_24
REMARK                            x       y       z     vdW  Elec       q    Type
REMARK                         _______ _______ _______ _____ _____    ______ ____
ROOT
ATOM      9  C   UNL     1      -3.775   2.548  24.882  0.00  0.00    +0.044 C 
ATOM     10  C   UNL     1      -4.266   3.191  25.039  0.00  0.00    +0.041 C 
ATOM     11  C   UNL     1      -5.021   2.901  25.199  0.00  0.00    +0.184 C 
ATOM     12  O   UNL     1      -5.686   3.355  25.385  0.00  0.00    -0.220 OA
ATOM     13  C   UNL     1      -4.997   2.080  25.142  0.00  0.00    +0.198 C 
ATOM     14  O   UNL     1      -5.632   1.566  25.260  0.00  0.00    -0.219 OA
ATOM     15  C   UNL     1      -4.227   1.861  24.946  0.00  0.00    +0.110 C 
ENDROOT
BRANCH   9   6
ATOM      3  C   UNL     1      -1.367   2.659  24.319  0.00  0.00    +0.139 A 
ATOM      4  C   UNL     1      -1.611   2.743  25.102  0.00  0.00    +0.037 A 
ATOM      5  C   UNL     1      -2.415   2.705  25.290  0.00  0.00    -0.001 A 
ATOM      6  C   UNL     1      -2.972   2.585  24.694  0.00  0.00    -0.021 A 
ATOM      7  C   UNL     1      -2.728   2.501  23.910  0.00  0.00    -0.001 A 
ATOM      8  C   UNL     1      -1.925   2.539  23.722  0.00  0.00    +0.037 A 
BRANCH   3   2
ATOM      1  C   UNL     1      -0.052   2.104  24.391  0.00  0.00    +0.252 C 
ATOM      2  O   UNL     1      -0.565   2.696  24.131  0.00  0.00    -0.471 OA
ENDBRANCH   3   2
ENDBRANCH   9   6
BRANCH  15  16
ATOM     16  N   UNL     1      -3.955   1.090  24.833  0.00  0.00    -0.212 NA
BRANCH  16  17
ATOM     17  C   UNL     1      -4.374   0.454  25.151  0.00  0.00    +0.115 C 
BRANCH  17  18
ATOM     18  C   UNL     1      -4.068  -0.310  25.098  0.00  0.00    -0.005 A 
ATOM     19  C   UNL     1      -3.544  -0.585  25.673  0.00  0.00    -0.003 A 
ATOM     20  C   UNL     1      -3.238  -1.350  25.620  0.00  0.00    -0.000 A 
ATOM     21  C   UNL     1      -3.455  -1.839  24.993  0.00  0.00    +0.004 A 
ATOM     22  C   UNL     1      -3.980  -1.563  24.418  0.00  0.00    +0.071 A 
ATOM     23  C   UNL     1      -4.286  -0.800  24.471  0.00  0.00    +0.001 A 
BRANCH  22  24
ATOM     24  C   UNL     1      -4.197  -2.053  23.790  0.00  0.00    +0.419 C 
ATOM     25  F   UNL     1      -4.415  -2.543  23.163  0.00  0.00    -0.166 F 
ATOM     26  F   UNL     1      -4.345  -2.667  24.321  0.00  0.00    -0.166 F 
ATOM     27  F   UNL     1      -4.049  -1.438  23.260  0.00  0.00    -0.166 F 
ENDBRANCH  22  24
ENDBRANCH  17  18
ENDBRANCH  16  17
ENDBRANCH  15  16
TORSDOF 6
ENDMDL
MODEL 2
REMARK VINA RESULT:     -12.4      1.066      2.833
REMARK  Name = 
REMARK  6 active torsions:
REMARK  status: ('A' for Active; 'I' for Inactive)
REMARK    1  A    between atoms: O_2  and  C_3
REMARK    2  A    between atoms: C_6  and  C_9
REMARK    3  A    between atoms: C_15  and  N_16
REMARK    4  A    between atoms: N_16  and  C_17
REMARK    5  A    between atoms: C_17  and  C_18
REMARK    6  A    between atoms: C_22  and  C_24
REMARK                            x       y       z     vdW  Elec       q    Type
REMARK                         _______ _______ _______ _____ _____    ______ ____
ROOT
ATOM      9  C   UNL     1      -1.655   2.077  24.550  0.00  0.00    +0.044 C 
ATOM     10  C   UNL     1      -0.937   2.417  24.327  0.00  0.00    +0.041 C 
ATOM     11  C   UNL     1      -0.361   1.828  24.345  0.00  0.00    +0.184 C 
ATOM     12  O   UNL     1       0.438   1.925  24.162  0.00  0.00    -0.220 OA
ATOM     13  C   UNL     1      -0.721   1.125  24.578  0.00  0.00    +0.198 C 
ATOM     14  O   UNL     1      -0.347   0.395  24.669  0.00  0.00    -0.219 OA
ATOM     15  C   UNL     1      -1.521   1.279  24.705  0.00  0.00    +0.110 C 
ENDROOT
BRANCH   9   6
ATOM      3  C   UNL     1      -3.828   3.250  24.721  0.00  0.00    +0.139 A 
ATOM      4  C   UNL     1      -3.333   3.202  25.379  0.00  0.00    +0.037 A 
ATOM      5  C   UNL     1      -2.607   2.811  25.322  0.00  0.00    -0.001 A 
ATOM      6  C   UNL     1      -2.380   2.468  24.607  0.00  0.00    -0.021 A 
ATOM      7  C   UNL     1      -2.875   2.515  23.949  0.00  0.00    -0.001 A 
ATOM      8  C   UNL     1      -3.600   2.907  24.006  0.00  0.00    +0.037 A 
BRANCH   3   2
ATOM      1  C   UNL     1      -5.027   3.536  25.446  0.00  0.00    +0.252 C 
ATOM      2  O   UNL     1      -4.553   3.640  24.778  0.00  0.00    -0.471 OA
ENDBRANCH   3   2
ENDBRANCH   9   6
BRANCH  15  16
ATOM     16  N   UNL     1      -2.089   0.730  24.945  0.00  0.00    -0.212 NA
BRANCH  16  17
ATOM     17  C   UNL     1      -1.999  -0.068  24.754  0.00  0.00    +0.115 C 
BRANCH  17  18
ATOM     18  C   UNL     1      -2.585  -0.610  24.957  0.00  0.00    -0.005 A 
ATOM     19  C   UNL     1      -2.719  -0.796  25.750  0.00  0.00    -0.003 A 
ATOM     20  C   UNL     1      -3.306  -1.339  25.954  0.00  0.00    -0.000 A 
ATOM     21  C   UNL     1      -3.760  -1.696  25.364  0.00  0.00    +0.004 A 
ATOM     22  C   UNL     1      -3.626  -1.510  24.571  0.00  0.00    +0.071 A 
ATOM     23  C   UNL     1      -3.039  -0.968  24.368  0.00  0.00    +0.001 A 
BRANCH  22  24
ATOM     24  C   UNL     1      -4.080  -1.867  23.982  0.00  0.00    +0.419 C 
ATOM     25  F   UNL     1      -4.535  -2.224  23.393  0.00  0.00    -0.166 F 
ATOM     26  F   UNL     1      -4.485  -1.158  23.866  0.00  0.00    -0.166 F 
ATOM     27  F   UNL     1      -3.675  -2.576  24.100  0.00  0.00    -0.166 F 
ENDBRANCH  22  24
ENDBRANCH  17  18
ENDBRANCH  16  17
ENDBRANCH  15  16
TORSDOF 6
ENDMDL
MODEL 3
REMARK VINA RESULT:     -12.2      2.429      4.255
REMARK  Name = 
REMARK  6 active torsions:
REMARK  status: ('A' for Active; 'I' for Inactive)
REMARK    1  A    between atoms: O_2  and  C_3
REMARK    2  A    between atoms: C_6  and  C_9
REMARK    3  A    between atoms: C_15  and  N_16
REMARK    4  A    between atoms: N_16  and  C_17
REMARK    5  A    between atoms: C_17  and  C_18
REMARK    6  A    between atoms: C_22  and  C_24
REMARK                            x       y       z     vdW  Elec       q    Type
REMARK                         _______ _______ _______ _____ _____    ______ ____
ROOT
ATOM      9  C   UNL     1      -4.437   0.763  24.866  0.00  0.00    +0.044 C 
ATOM     10  C   UNL     1      -5.227   0.975  24.972  0.00  0.00    +0.041 C 
ATOM     11  C   UNL     1      -5.274   1.798  24.953  0.00  0.00    +0.184 C 
ATOM     12  O   UNL     1      -5.962   2.246  25.037  0.00  0.00    -0.220 OA
ATOM     13  C   UNL     1      -4.515   2.094  24.835  0.00  0.00    +0.198 C 
ATOM     14  O   UNL     1      -4.309   2.892  24.780  0.00  0.00    -0.219 OA
ATOM     15  C   UNL     1      -3.997   1.455  24.781  0.00  0.00    +0.110 C 
ENDROOT
BRANCH   9   6
ATOM      3  C   UNL     1      -3.544  -1.545  24.812  0.00  0.00    +0.139 A 
ATOM      4  C   UNL     1      -3.785  -1.179  24.112  0.00  0.00    +0.037 A 
ATOM      5  C   UNL     1      -4.082  -0.409  24.130  0.00  0.00    -0.001 A 
ATOM      6  C   UNL     1      -4.139  -0.006  24.848  0.00  0.00    -0.021 A 
ATOM      7  C   UNL     1      -3.899  -0.372  25.548  0.00  0.00    -0.001 A 
ATOM      8  C   UNL     1      -3.601  -1.142  25.530  0.00  0.00    +0.037 A 
BRANCH   3   2
ATOM      1  C   UNL     1      -2.490  -2.458  24.495  0.00  0.00    +0.252 C 
ATOM      2  O   UNL     1      -3.247  -2.314  24.794  0.00  0.00    -0.471 OA
ENDBRANCH   3   2
ENDBRANCH   9   6
BRANCH  15  16
ATOM     16  N   UNL     1      -3.181   1.500  24.663  0.00  0.00    -0.212 NA
BRANCH  16  17
ATOM     17  C   UNL     1      -2.782   2.208  24.804  0.00  0.00    +0.115 C 
BRANCH  17  18
ATOM     18  C   UNL     1      -1.959   2.231  24.773  0.00  0.00    -0.005 A 
ATOM     19  C   UNL     1      -1.571   2.146  24.050  0.00  0.00    -0.003 A 
ATOM     20  C   UNL     1      -0.746   2.169  24.019  0.00  0.00    -0.000 A 
ATOM     21  C   UNL     1      -0.310   2.277  24.710  0.00  0.00    +0.004 A 
ATOM     22  C   UNL     1      -0.698   2.363  25.434  0.00  0.00    +0.071 A 
ATOM     23  C   UNL     1      -1.522   2.340  25.465  0.00  0.00    +0.001 A 
BRANCH  22  24
ATOM     24  C   UNL     1      -0.262   2.471  26.126  0.00  0.00    +0.419 C 
ATOM     25  F   UNL     1       0.174   2.581  26.817  0.00  0.00    -0.166 F 
ATOM     26  F   UNL     1      -0.227   3.282  25.975  0.00  0.00    -0.166 F 
ATOM     27  F   UNL     1      -0.297   1.661  26.275  0.00  0.00    -0.166 F 
ENDBRANCH  22  24
ENDBRANCH  17  18
ENDBRANCH  16  17
ENDBRANCH  15  16
TORSDOF 6
ENDMDL
