MODEL 1
REMARK VINA RESULT:     -10.8      0.000      0.000
REMARK  Name = 
REMARK  5 active torsions:
REMARK  status: ('A' for Active; 'I' for Inactive)
REMARK    1  A    between atoms: C_1  and  C_2
REMARK    2  A    between atoms: C_1  and  N_8
REMARK    3  A    between atoms: C_12  and  C_13
REMARK    4  A    between atoms: C_15  and  C_18
REMARK    5  A    between atoms: C_21  and  C_24
REMARK                            x       y       z     vdW  Elec       q    Type
REMARK                         _______ _______ _______ _____ _____    ______ ____
ROOT
ATOM     13  C   UNL     1      -4.047   2.845  25.187  0.00  0.00    +0.251 A 
ATOM     14  N   UNL     1      -3.806   2.063  25.299  0.00  0.00    -0.190 NA
ATOM     15  C   UNL     1      -4.188   1.596  24.738  0.00  0.00    +0.205 A 
ATOM     16  N   UNL     1      -4.665   2.087  24.279  0.00  0.00    -0.056 NA
ATOM     17  O   UNL     1      -4.578   2.858  24.557  0.00  0.00    -0.336 OA
ENDROOT
BRANCH  15  18
ATOM     18  C   UNL     1      -4.107   0.779  24.650  0.00  0.00    +0.058 A 
ATOM     19  C   UNL     1      -3.670   0.473  24.021  0.00  0.00    +0.006 A 
ATOM     20  C   UNL     1      -3.589  -0.343  23.933  0.00  0.00    +0.019 A 
ATOM     21  C   UNL     1      -3.945  -0.853  24.475  0.00  0.00    +0.084 A 
ATOM     22  N   UNL     1      -4.382  -0.548  25.104  0.00  0.00    -0.244 NA
ATOM     23  C   UNL     1      -4.463   0.269  25.192  0.00  0.00    +0.102 A 
BRANCH  21  24
ATOM     24  C   UNL     1      -3.864  -1.670  24.387  0.00  0.00    +0.056 A 
ATOM     25  C   UNL     1      -3.364  -2.091  24.891  0.00  0.00    +0.104 A 
ATOM     26  N   UNL     1      -3.283  -2.908  24.804  0.00  0.00    -0.222 NA
ATOM     27  C   UNL     1      -3.701  -3.303  24.213  0.00  0.00    +0.199 A 
ATOM     28  N   UNL     1      -4.201  -2.882  23.709  0.00  0.00    -0.222 NA
ATOM     29  C   UNL     1      -4.282  -2.065  23.797  0.00  0.00    +0.104 A 
ENDBRANCH  21  24
ENDBRANCH  15  18
BRANCH  13  12
ATOM      8  N   UNL     1      -3.133   3.956  25.481  0.00  0.00    -0.266 NA
ATOM      9  C   UNL     1      -3.097   4.547  26.056  0.00  0.00    +0.073 C 
ATOM     10  C   UNL     1      -3.743   4.451  26.560  0.00  0.00    +0.019 C 
ATOM     11  C   UNL     1      -4.178   3.801  26.296  0.00  0.00    +0.027 C 
ATOM     12  C   UNL     1      -3.800   3.496  25.629  0.00  0.00    +0.138 C 
BRANCH   8   1
ATOM      1  C   UNL     1      -2.595   3.847  24.865  0.00  0.00    +0.072 C 
BRANCH   1   2
ATOM      2  C   UNL     1      -1.843   4.185  24.909  0.00  0.00    +0.016 C 
ATOM      3  C   UNL     1      -1.741   4.987  24.740  0.00  0.00    +0.001 C 
ATOM      4  C   UNL     1      -0.990   5.324  24.783  0.00  0.00    +0.000 C 
ATOM      5  C   UNL     1      -0.341   4.862  24.995  0.00  0.00    +0.000 C 
ATOM      6  C   UNL     1      -0.443   4.061  25.164  0.00  0.00    +0.000 C 
ATOM      7  C   UNL     1      -1.193   3.722  25.121  0.00  0.00    +0.001 C 
ENDBRANCH   1   2
ENDBRANCH   8   1
ENDBRANCH  13  12
TORSDOF 5
ENDMDL
MODEL 2
REMARK VINA RESULT:     -10.6      2.079      6.303
REMARK  Name = 
REMARK  5 active torsions:
REMARK  status: ('A' for Active; 'I' for Inactive)
REMARK    1  A    between atoms: C_1  and  C_2
REMARK    2  A    between atoms: C_1  and  N_8
REMARK    3  A    between atoms: C_12  and  C_13
REMARK    4  A    between atoms: C_15  and  C_18
REMARK    5  A    between atoms: C_21  and  C_24
REMARK                            x       y       z     vdW  Elec       q    Type
REMARK                         _______ _______ _______ _____ _____    ______ ____
ROOT
ATOM     13  C   UNL     1      -1.100  -0.501  25.338  0.00  0.00    +0.251 A 
ATOM     14  N   UNL     1      -1.150   0.245  24.988  0.00  0.00    -0.190 NA
ATOM     15  C   UNL     1      -1.112   0.811  25.587  0.00  0.00    +0.205 A 
ATOM     16  N   UNL     1      -1.040   0.415  26.306  0.00  0.00    -0.056 NA
ATOM     17  O   UNL     1      -1.033  -0.394  26.153  0.00  0.00    -0.336 OA
ENDROOT
BRANCH  15  18
ATOM     18  C   UNL     1      -1.142   1.629  25.483  0.00  0.00    +0.058 A 
ATOM     19  C   UNL     1      -0.595   2.113  25.866  0.00  0.00    +0.006 A 
ATOM     20  C   UNL     1      -0.624   2.931  25.763  0.00  0.00    +0.019 A 
ATOM     21  C   UNL     1      -1.201   3.265  25.277  0.00  0.00    +0.084 A 
ATOM     22  N   UNL     1      -1.748   2.781  24.893  0.00  0.00    -0.244 NA
ATOM     23  C   UNL     1      -1.719   1.963  24.997  0.00  0.00    +0.102 A 
BRANCH  21  24
ATOM     24  C   UNL     1      -1.230   4.083  25.173  0.00  0.00    +0.056 A 
ATOM     25  C   UNL     1      -0.603   4.475  24.808  0.00  0.00    +0.104 A 
ATOM     26  N   UNL     1      -0.633   5.294  24.704  0.00  0.00    -0.222 NA
ATOM     27  C   UNL     1      -1.289   5.719  24.966  0.00  0.00    +0.199 A 
ATOM     28  N   UNL     1      -1.917   5.327  25.332  0.00  0.00    -0.222 NA
ATOM     29  C   UNL     1      -1.887   4.509  25.435  0.00  0.00    +0.104 A 
ENDBRANCH  21  24
ENDBRANCH  15  18
BRANCH  13  12
ATOM      8  N   UNL     1      -1.782  -1.694  24.818  0.00  0.00    -0.266 NA
ATOM      9  C   UNL     1      -1.547  -2.366  24.400  0.00  0.00    +0.073 C 
ATOM     10  C   UNL     1      -0.735  -2.310  24.266  0.00  0.00    +0.019 C 
ATOM     11  C   UNL     1      -0.468  -1.605  24.601  0.00  0.00    +0.027 C 
ATOM     12  C   UNL     1      -1.116  -1.224  24.942  0.00  0.00    +0.138 C 
BRANCH   8   1
ATOM      1  C   UNL     1      -2.549  -1.523  25.069  0.00  0.00    +0.072 C 
BRANCH   1   2
ATOM      2  C   UNL     1      -3.196  -1.834  24.659  0.00  0.00    +0.016 C 
ATOM      3  C   UNL     1      -3.396  -2.629  24.747  0.00  0.00    +0.001 C 
ATOM      4  C   UNL     1      -4.043  -2.938  24.338  0.00  0.00    +0.000 C 
ATOM      5  C   UNL     1      -4.488  -2.453  23.841  0.00  0.00    +0.000 C 
ATOM      6  C   UNL     1      -4.287  -1.658  23.754  0.00  0.00    +0.000 C 
ATOM      7  C   UNL     1      -3.641  -1.348  24.162  0.00  0.00    +0.001 C 
ENDBRANCH   1   2
ENDBRANCH   8   1
ENDBRANCH  13  12
TORSDOF 5
ENDMDL
MODEL 3
REMARK VINA RESULT:     -10.0      1.911      2.654
REMARK  Name = 
REMARK  5 active torsions:
REMARK  status: ('A' for Active; 'I' for Inactive)
REMARK    1  A    between atoms: C_1  and  C_2
REMARK    2  A    between atoms: C_1  and  N_8
REMARK    3  A    between atoms: C_12  and  C_13
REMARK    4  A    between atoms: C_15  and  C_18
REMARK    5  A    between atoms: C_21  and  C_24
REMARK                            x       y       z     vdW  Elec       q    Type
REMARK                         _______ _______ _______ _____ _____    ______ ____
ROOT
ATOM     13  C   UNL     1      -0.431   1.500  25.262  0.00  0.00    +0.251 A 
ATOM     14  N   UNL     1      -1.078   0.998  25.364  0.00  0.00    -0.190 NA
ATOM     15  C   UNL     1      -1.082   0.457  24.741  0.00  0.00    +0.205 A 
ATOM     16  N   UNL     1      -0.439   0.625  24.254  0.00  0.00    -0.056 NA
ATOM     17  O   UNL     1      -0.037   1.269  24.575  0.00  0.00    -0.336 OA
ENDROOT
BRANCH  15  18
ATOM     18  C   UNL     1      -1.634  -0.145  24.626  0.00  0.00    +0.058 A 
ATOM     19  C   UNL     1      -2.435   0.039  24.548  0.00  0.00    +0.006 A 
ATOM     20  C   UNL     1      -2.987  -0.564  24.432  0.00  0.00    +0.019 A 
ATOM     21  C   UNL     1      -2.738  -1.350  24.395  0.00  0.00    +0.084 A 
ATOM     22  N   UNL     1      -1.938  -1.534  24.473  0.00  0.00    -0.244 NA
ATOM     23  C   UNL     1      -1.386  -0.931  24.589  0.00  0.00    +0.102 A 
BRANCH  21  24
ATOM     24  C   UNL     1      -3.290  -1.953  24.280  0.00  0.00    +0.056 A 
ATOM     25  C   UNL     1      -3.966  -1.811  23.829  0.00  0.00    +0.104 A 
ATOM     26  N   UNL     1      -4.518  -2.414  23.714  0.00  0.00    -0.222 NA
ATOM     27  C   UNL     1      -4.393  -3.157  24.049  0.00  0.00    +0.199 A 
ATOM     28  N   UNL     1      -3.717  -3.298  24.500  0.00  0.00    -0.222 NA
ATOM     29  C   UNL     1      -3.165  -2.696  24.615  0.00  0.00    +0.104 A 
ENDBRANCH  21  24
ENDBRANCH  15  18
BRANCH  13  12
ATOM      8  N   UNL     1      -0.399   2.918  25.645  0.00  0.00    -0.266 NA
ATOM      9  C   UNL     1      -0.078   3.346  26.272  0.00  0.00    +0.073 C 
ATOM     10  C   UNL     1       0.303   2.815  26.775  0.00  0.00    +0.019 C 
ATOM     11  C   UNL     1       0.218   2.058  26.457  0.00  0.00    +0.027 C 
ATOM     12  C   UNL     1      -0.217   2.122  25.759  0.00  0.00    +0.138 C 
BRANCH   8   1
ATOM      1  C   UNL     1      -0.828   3.231  25.013  0.00  0.00    +0.072 C 
BRANCH   1   2
ATOM      2  C   UNL     1      -1.164   3.983  25.075  0.00  0.00    +0.016 C 
ATOM      3  C   UNL     1      -0.745   4.644  24.814  0.00  0.00    +0.001 C 
ATOM      4  C   UNL     1      -1.082   5.395  24.876  0.00  0.00    +0.000 C 
ATOM      5  C   UNL     1      -1.836   5.485  25.198  0.00  0.00    +0.000 C 
ATOM      6  C   UNL     1      -2.254   4.823  25.458  0.00  0.00    +0.000 C 
ATOM      7  C   UNL     1      -1.919   4.072  25.397  0.00  0.00    +0.001 C 
ENDBRANCH   1   2
ENDBRANCH   8   1
ENDBRANCH  13  12
TORSDOF 5
ENDMDL
MODEL 4
REMARK VINA RESULT:      -9.6      3.508      4.740
REMARK  Name = 
REMARK  5 active torsions:
REMARK  status: ('A' for Active; 'I' for Inactive)
REMARK    1  A    between atoms: C_1  and  C_2
REMARK    2  A    between atoms: C_1  and  N_8
REMARK    3  A    between atoms: C_12  and  C_13
REMARK    4  A    between atoms: C_15  and  C_18
REMARK    5  A    between atoms: C_21  and  C_24
REMARK                            x       y       z     vdW  Elec       q    Type
REMARK                         _______ _______ _______ _____ _____    ______ ____
ROOT
ATOM     13  C   UNL     1      -2.523   0.161  24.893  0.00  0.00    +0.251 A 
ATOM     14  N   UNL     1      -1.978   0.228  24.276  0.00  0.00    -0.190 NA
ATOM     15  C   UNL     1      -1.225   0.102  24.587  0.00  0.00    +0.205 A 
ATOM     16  N   UNL     1      -1.303  -0.043  25.395  0.00  0.00    -0.056 NA
ATOM     17  O   UNL     1      -2.105  -0.007  25.583  0.00  0.00    -0.336 OA
ENDROOT
BRANCH  15  18
ATOM     18  C   UNL     1      -0.516   0.118  24.163  0.00  0.00    +0.058 A 
ATOM     19  C   UNL     1      -0.183   0.840  23.945  0.00  0.00    +0.006 A 
ATOM     20  C   UNL     1       0.525   0.856  23.522  0.00  0.00    +0.019 A 
ATOM     21  C   UNL     1       0.899   0.150  23.317  0.00  0.00    +0.084 A 
ATOM     22  N   UNL     1       0.566  -0.572  23.535  0.00  0.00    -0.244 NA
ATOM     23  C   UNL     1      -0.142  -0.588  23.959  0.00  0.00    +0.102 A 
BRANCH  21  24
ATOM     24  C   UNL     1       1.608   0.167  22.894  0.00  0.00    +0.056 A 
ATOM     25  C   UNL     1       1.656  -0.203  22.158  0.00  0.00    +0.104 A 
ATOM     26  N   UNL     1       2.365  -0.187  21.734  0.00  0.00    -0.222 NA
ATOM     27  C   UNL     1       3.023   0.199  22.047  0.00  0.00    +0.199 A 
ATOM     28  N   UNL     1       2.975   0.568  22.783  0.00  0.00    -0.222 NA
ATOM     29  C   UNL     1       2.267   0.552  23.206  0.00  0.00    +0.104 A 
ENDBRANCH  21  24
ENDBRANCH  15  18
BRANCH  13  12
ATOM      8  N   UNL     1      -3.762   0.948  24.916  0.00  0.00    -0.266 NA
ATOM      9  C   UNL     1      -4.563   0.782  24.807  0.00  0.00    +0.073 C 
ATOM     10  C   UNL     1      -4.635  -0.026  24.652  0.00  0.00    +0.019 C 
ATOM     11  C   UNL     1      -3.880  -0.357  24.665  0.00  0.00    +0.027 C 
ATOM     12  C   UNL     1      -3.340   0.246  24.828  0.00  0.00    +0.138 C 
BRANCH   8   1
ATOM      1  C   UNL     1      -3.441   1.689  25.083  0.00  0.00    +0.072 C 
BRANCH   1   2
ATOM      2  C   UNL     1      -3.899   2.370  24.988  0.00  0.00    +0.016 C 
ATOM      3  C   UNL     1      -4.371   2.640  25.608  0.00  0.00    +0.001 C 
ATOM      4  C   UNL     1      -4.828   3.320  25.512  0.00  0.00    +0.000 C 
ATOM      5  C   UNL     1      -4.814   3.729  24.796  0.00  0.00    +0.000 C 
ATOM      6  C   UNL     1      -4.342   3.459  24.176  0.00  0.00    +0.000 C 
ATOM      7  C   UNL     1      -3.885   2.779  24.271  0.00  0.00    +0.001 C 
ENDBRANCH   1   2
ENDBRANCH   8   1
ENDBRANCH  13  12
TORSDOF 5
ENDMDL
