MODEL 1
REMARK VINA RESULT:     -12.7      0.000      0.000
REMARK  Name = 
REMARK  4 active torsions:
REMARK  status: ('A' for Active; 'I' for Inactive)
REMARK    1  A    between atoms: C_3  and  C_11
REMARK    2  A    between atoms: N_14  and  C_15
REMARK    3  A    between atoms: C_15  and  C_16
REMARK    4  A    between atoms: C_19  and  C_22
REMARK                            x       y       z     vdW  Elec       q    Type
REMARK                         _______ _______ _______ _____ _____    ______ ____
ROOT
ATOM     11  C   UNL     1      -3.374   2.179  24.612  0.00  0.00    +0.074 C 
ATOM     12  C   UNL     1      -3.857   2.088  23.950  0.00  0.00    +0.026 C 
ATOM     13  C   UNL     1      -4.324   1.416  24.065  0.00  0.00    +0.073 C 
ATOM     14  N   UNL     1      -4.128   1.093  24.799  0.00  0.00    -0.269 NA
ATOM     25  C   UNL     1      -3.541   1.565  25.137  0.00  0.00    +0.080 C 
ENDROOT
BRANCH  11   3
ATOM      1  C   UNL     1      -3.710   3.805  25.295  0.00  0.00    +0.132 C 
ATOM      2  N   UNL     1      -2.975   3.527  25.043  0.00  0.00    -0.313 N 
ATOM      3  C   UNL     1      -2.821   2.780  24.729  0.00  0.00    +0.121 A 
ATOM      4  N   UNL     1      -2.016   2.739  24.552  0.00  0.00    -0.231 NA
ATOM      5  C   UNL     1      -1.674   3.460  24.758  0.00  0.00    +0.098 A 
ATOM      6  C   UNL     1      -2.266   3.948  25.061  0.00  0.00    +0.079 A 
ATOM      7  C   UNL     1      -2.083   4.711  25.314  0.00  0.00    +0.019 A 
ATOM      8  C   UNL     1      -1.308   4.988  25.264  0.00  0.00    +0.002 A 
ATOM      9  C   UNL     1      -0.715   4.501  24.960  0.00  0.00    +0.002 A 
ATOM     10  C   UNL     1      -0.897   3.737  24.707  0.00  0.00    +0.021 A 
ENDBRANCH  11   3
BRANCH  14  15
ATOM     15  C   UNL     1      -4.461   0.418  25.135  0.00  0.00    +0.099 C 
BRANCH  15  16
ATOM     16  C   UNL     1      -4.133  -0.323  24.983  0.00  0.00    -0.006 A 
ATOM     17  C   UNL     1      -4.317  -0.720  24.282  0.00  0.00    -0.003 A 
ATOM     18  C   UNL     1      -3.989  -1.461  24.130  0.00  0.00    +0.006 A 
ATOM     19  C   UNL     1      -3.478  -1.807  24.677  0.00  0.00    +0.080 A 
ATOM     20  C   UNL     1      -3.294  -1.410  25.377  0.00  0.00    +0.006 A 
ATOM     21  C   UNL     1      -3.622  -0.668  25.530  0.00  0.00    -0.003 A 
BRANCH  19  22
ATOM     22  C   UNL     1      -3.150  -2.548  24.524  0.00  0.00    +0.388 C 
ATOM     23  O   UNL     1      -3.605  -3.228  24.623  0.00  0.00    -0.241 OA
ATOM     24  O   UNL     1      -2.367  -2.609  24.272  0.00  0.00    -0.241 OA
ENDBRANCH  19  22
ENDBRANCH  15  16
ENDBRANCH  14  15
TORSDOF 4
ENDMDL
MODEL 2
REMARK VINA RESULT:     -12.5      2.235      5.200
REMARK  Name = 
REMARK  4 active torsions:
REMARK  status: ('A' for Active; 'I' for Inactive)
REMARK    1  A    between atoms: C_3  and  C_11
REMARK    2  A    between atoms: N_14  and  C_15
REMARK    3  A    between atoms: C_15  and  C_16
REMARK    4  A    between atoms: C_19  and  C_22
REMARK                            x       y       z     vdW  Elec       q    Type
REMARK                         _______ _______ _______ _____ _____    ______ ____
ROOT
ATOM     11  C   UNL     1      -4.365   0.606  24.716  0.00  0.00    +0.074 C 
ATOM     12  C   UNL     1      -4.916   0.930  25.237  0.00  0.00    +0.026 C 
ATOM     13  C   UNL     1      -4.922   1.748  25.126  0.00  0.00    +0.073 C 
ATOM     14  N   UNL     1      -4.374   1.929  24.536  0.00  0.00    -0.269 NA
ATOM     25  C   UNL     1      -4.029   1.224  24.283  0.00  0.00    +0.080 C 
ENDROOT
BRANCH  11   3
ATOM      1  C   UNL     1      -3.225  -0.316  25.752  0.00  0.00    +0.132 C 
ATOM      2  N   UNL     1      -3.656  -0.619  25.117  0.00  0.00    -0.313 N 
ATOM      3  C   UNL     1      -4.180  -0.195  24.641  0.00  0.00    +0.121 A 
ATOM      4  N   UNL     1      -4.487  -0.712  24.076  0.00  0.00    -0.231 NA
ATOM      5  C   UNL     1      -4.154  -1.455  24.204  0.00  0.00    +0.098 A 
ATOM      6  C   UNL     1      -3.640  -1.397  24.847  0.00  0.00    +0.079 A 
ATOM      7  C   UNL     1      -3.224  -2.062  25.103  0.00  0.00    +0.019 A 
ATOM      8  C   UNL     1      -3.321  -2.784  24.717  0.00  0.00    +0.002 A 
ATOM      9  C   UNL     1      -3.835  -2.842  24.073  0.00  0.00    +0.002 A 
ATOM     10  C   UNL     1      -4.251  -2.178  23.817  0.00  0.00    +0.021 A 
ENDBRANCH  11   3
BRANCH  14  15
ATOM     15  C   UNL     1      -4.201   2.683  24.251  0.00  0.00    +0.099 C 
BRANCH  15  16
ATOM     16  C   UNL     1      -3.533   3.084  24.521  0.00  0.00    -0.006 A 
ATOM     17  C   UNL     1      -3.579   3.552  25.199  0.00  0.00    -0.003 A 
ATOM     18  C   UNL     1      -2.911   3.953  25.469  0.00  0.00    +0.006 A 
ATOM     19  C   UNL     1      -2.197   3.886  25.063  0.00  0.00    +0.080 A 
ATOM     20  C   UNL     1      -2.150   3.417  24.385  0.00  0.00    +0.006 A 
ATOM     21  C   UNL     1      -2.819   3.016  24.114  0.00  0.00    -0.003 A 
BRANCH  19  22
ATOM     22  C   UNL     1      -1.529   4.287  25.333  0.00  0.00    +0.388 C 
ATOM     23  O   UNL     1      -1.505   5.111  25.313  0.00  0.00    -0.241 OA
ATOM     24  O   UNL     1      -0.883   3.863  25.625  0.00  0.00    -0.241 OA
ENDBRANCH  19  22
ENDBRANCH  15  16
ENDBRANCH  14  15
TORSDOF 4
ENDMDL
MODEL 3
REMARK VINA RESULT:     -11.8      2.803      5.595
REMARK  Name = 
REMARK  4 active torsions:
REMARK  status: ('A' for Active; 'I' for Inactive)
REMARK    1  A    between atoms: C_3  and  C_11
REMARK    2  A    between atoms: N_14  and  C_15
REMARK    3  A    between atoms: C_15  and  C_16
REMARK    4  A    between atoms: C_19  and  C_22
REMARK                            x       y       z     vdW  Elec       q    Type
REMARK                         _______ _______ _______ _____ _____    ______ ____
ROOT
ATOM     11  C   UNL     1      -1.444   0.126  24.737  0.00  0.00    +0.074 C 
ATOM     12  C   UNL     1      -0.792   0.256  24.249  0.00  0.00    +0.026 C 
ATOM     13  C   UNL     1      -0.360   0.885  24.563  0.00  0.00    +0.073 C 
ATOM     14  N   UNL     1      -0.745   1.144  25.245  0.00  0.00    -0.269 NA
ATOM     25  C   UNL     1      -1.415   0.675  25.353  0.00  0.00    +0.080 C 
ENDROOT
BRANCH  11   3
ATOM      1  C   UNL     1      -1.259  -1.629  25.062  0.00  0.00    +0.132 C 
ATOM      2  N   UNL     1      -1.938  -1.258  24.778  0.00  0.00    -0.313 N 
ATOM      3  C   UNL     1      -2.024  -0.451  24.628  0.00  0.00    +0.121 A 
ATOM      4  N   UNL     1      -2.790  -0.322  24.351  0.00  0.00    -0.231 NA
ATOM      5  C   UNL     1      -3.178  -1.050  24.330  0.00  0.00    +0.098 A 
ATOM      6  C   UNL     1      -2.652  -1.628  24.593  0.00  0.00    +0.079 A 
ATOM      7  C   UNL     1      -2.891  -2.416  24.631  0.00  0.00    +0.019 A 
ATOM      8  C   UNL     1      -3.656  -2.627  24.406  0.00  0.00    +0.002 A 
ATOM      9  C   UNL     1      -4.182  -2.049  24.142  0.00  0.00    +0.002 A 
ATOM     10  C   UNL     1      -3.944  -1.260  24.104  0.00  0.00    +0.021 A 
ENDBRANCH  11   3
BRANCH  14  15
ATOM     15  C   UNL     1      -0.502   1.763  25.734  0.00  0.00    +0.099 C 
BRANCH  15  16
ATOM     16  C   UNL     1      -0.766   2.530  25.589  0.00  0.00    -0.006 A 
ATOM     17  C   UNL     1      -1.438   2.816  25.975  0.00  0.00    -0.003 A 
ATOM     18  C   UNL     1      -1.701   3.583  25.830  0.00  0.00    +0.006 A 
ATOM     19  C   UNL     1      -1.294   4.067  25.300  0.00  0.00    +0.080 A 
ATOM     20  C   UNL     1      -0.623   3.781  24.914  0.00  0.00    +0.006 A 
ATOM     21  C   UNL     1      -0.359   3.013  25.058  0.00  0.00    -0.003 A 
BRANCH  19  22
ATOM     22  C   UNL     1      -1.558   4.834  25.155  0.00  0.00    +0.388 C 
ATOM     23  O   UNL     1      -2.367   4.997  25.143  0.00  0.00    -0.241 OA
ATOM     24  O   UNL     1      -1.013   5.440  25.023  0.00  0.00    -0.241 OA
ENDBRANCH  19  22
ENDBRANCH  15  16
ENDBRANCH  14  15
TORSDOF 4
ENDMDL
MODEL 4
REMARK VINA RESULT:     -11.5      1.504      2.139
REMARK  Name = 
REMARK  4 active torsions:
REMARK  status: ('A' for Active; 'I' for Inactive)
REMARK    1  A    between atoms: C_3  and  C_11
REMARK    2  A    between atoms: N_14  and  C_15
REMARK    3  A    between atoms: C_15  and  C_16
REMARK    4  A    between atoms: C_19  and  C_22
REMARK                            x       y       z     vdW  Elec       q    Type
REMARK                         _______ _______ _______ _____ _____    ______ ____
ROOT
ATOM     11  C   UNL     1      -1.124   1.419  24.962  0.00  0.00    +0.074 C 
ATOM     12  C   UNL     1      -0.707   1.036  24.363  0.00  0.00    +0.026 C 
ATOM     13  C   UNL     1      -0.722   0.225  24.520  0.00  0.00    +0.073 C 
ATOM     14  N   UNL     1      -1.149   0.108  25.216  0.00  0.00    -0.269 NA
ATOM     25  C   UNL     1      -1.397   0.846  25.490  0.00  0.00    +0.080 C 
ENDROOT
BRANCH  11   3
ATOM      1  C   UNL     1       0.116   2.694  24.722  0.00  0.00    +0.132 C 
ATOM      2  N   UNL     1      -0.676   2.819  24.913  0.00  0.00    -0.313 N 
ATOM      3  C   UNL     1      -1.247   2.233  25.024  0.00  0.00    +0.121 A 
ATOM      4  N   UNL     1      -1.960   2.603  25.207  0.00  0.00    -0.231 NA
ATOM      5  C   UNL     1      -1.832   3.417  25.209  0.00  0.00    +0.098 A 
ATOM      6  C   UNL     1      -1.038   3.551  25.028  0.00  0.00    +0.079 A 
ATOM      7  C   UNL     1      -0.748   4.322  24.990  0.00  0.00    +0.019 A 
ATOM      8  C   UNL     1      -1.250   4.960  25.134  0.00  0.00    +0.002 A 
ATOM      9  C   UNL     1      -2.044   4.827  25.316  0.00  0.00    +0.002 A 
ATOM     10  C   UNL     1      -2.335   4.056  25.353  0.00  0.00    +0.021 A 
ENDBRANCH  11   3
BRANCH  14  15
ATOM     15  C   UNL     1      -1.301  -0.618  25.576  0.00  0.00    +0.099 C 
BRANCH  15  16
ATOM     16  C   UNL     1      -1.898  -1.106  25.285  0.00  0.00    -0.006 A 
ATOM     17  C   UNL     1      -1.719  -1.698  24.738  0.00  0.00    -0.003 A 
ATOM     18  C   UNL     1      -2.317  -2.185  24.448  0.00  0.00    +0.006 A 
ATOM     19  C   UNL     1      -3.095  -2.082  24.702  0.00  0.00    +0.080 A 
ATOM     20  C   UNL     1      -3.274  -1.490  25.249  0.00  0.00    +0.006 A 
ATOM     21  C   UNL     1      -2.676  -1.002  25.540  0.00  0.00    -0.003 A 
BRANCH  19  22
ATOM     22  C   UNL     1      -3.692  -2.569  24.411  0.00  0.00    +0.388 C 
ATOM     23  O   UNL     1      -3.726  -3.361  24.639  0.00  0.00    -0.241 OA
ATOM     24  O   UNL     1      -4.257  -2.265  23.892  0.00  0.00    -0.241 OA
ENDBRANCH  19  22
ENDBRANCH  15  16
ENDBRANCH  14  15
TORSDOF 4
ENDMDL
MODEL 5
REMARK VINA RESULT:     -10.7      1.998      2.924
REMARK  Name = 
REMARK  4 active torsions:
REMARK  status: ('A' for Active; 'I' for Inactive)
REMARK    1  A    between atoms: C_3  and  C_11
REMARK    2  A    between atoms: N_14  and  C_15
REMARK    3  A    between atoms: C_15  and  C_16
REMARK    4  A    between atoms: C_19  and  C_22
REMARK                            x       y       z     vdW  Elec       q    Type
REMARK                         _______ _______ _______ _____ _____    ______ ____
ROOT
ATOM     11  C   UNL     1      -4.439   0.456  24.848  0.00  0.00    +0.074 C 
ATOM     12  C   UNL     1      -4.672  -0.004  24.204  0.00  0.00    +0.026 C 
ATOM     13  C   UNL     1      -4.364  -0.762  24.306  0.00  0.00    +0.073 C 
ATOM     14  N   UNL     1      -3.939  -0.772  25.013  0.00  0.00    -0.269 NA
ATOM     25  C   UNL     1      -3.985  -0.019  25.349  0.00  0.00    +0.080 C 
ENDROOT
BRANCH  11   3
ATOM      1  C   UNL     1      -3.536   1.864  24.197  0.00  0.00    +0.132 C 
ATOM      2  N   UNL     1      -4.210   1.897  24.671  0.00  0.00    -0.313 N 
ATOM      3  C   UNL     1      -4.625   1.250  24.970  0.00  0.00    +0.121 A 
ATOM      4  N   UNL     1      -5.259   1.537  25.413  0.00  0.00    -0.231 NA
ATOM      5  C   UNL     1      -5.235   2.360  25.388  0.00  0.00    +0.098 A 
ATOM      6  C   UNL     1      -4.587   2.583  24.929  0.00  0.00    +0.079 A 
ATOM      7  C   UNL     1      -4.425   3.383  24.806  0.00  0.00    +0.019 A 
ATOM      8  C   UNL     1      -4.910   3.959  25.141  0.00  0.00    +0.002 A 
ATOM      9  C   UNL     1      -5.558   3.736  25.600  0.00  0.00    +0.002 A 
ATOM     10  C   UNL     1      -5.721   2.937  25.724  0.00  0.00    +0.021 A 
ENDBRANCH  11   3
BRANCH  14  15
ATOM     15  C   UNL     1      -3.539  -1.420  25.330  0.00  0.00    +0.099 C 
BRANCH  15  16
ATOM     16  C   UNL     1      -2.720  -1.476  25.254  0.00  0.00    -0.006 A 
ATOM     17  C   UNL     1      -2.228  -1.079  25.785  0.00  0.00    -0.003 A 
ATOM     18  C   UNL     1      -1.409  -1.136  25.708  0.00  0.00    +0.006 A 
ATOM     19  C   UNL     1      -1.081  -1.589  25.102  0.00  0.00    +0.080 A 
ATOM     20  C   UNL     1      -1.573  -1.986  24.572  0.00  0.00    +0.006 A 
ATOM     21  C   UNL     1      -2.393  -1.930  24.648  0.00  0.00    -0.003 A 
BRANCH  19  22
ATOM     22  C   UNL     1      -0.262  -1.645  25.026  0.00  0.00    +0.388 C 
ATOM     23  O   UNL     1       0.138  -1.157  24.496  0.00  0.00    -0.241 OA
ATOM     24  O   UNL     1       0.158  -2.191  25.481  0.00  0.00    -0.241 OA
ENDBRANCH  19  22
ENDBRANCH  15  16
ENDBRANCH  14  15
TORSDOF 4
ENDMDL
MODEL 6
REMARK VINA RESULT:     -10.5      2.795      4.837
REMARK  Name = 
REMARK  4 active torsions:
REMARK  status: ('A' for Active; 'I' for Inactive)
REMARK    1  A    between atoms: C_3  and  C_11
REMARK    2  A    between atoms: N_14  and  C_15
REMARK    3  A    between atoms: C_15  and  C_16
REMARK    4  A    between atoms: C_19  and  C_22
REMARK                            x       y       z     vdW  Elec       q    Type
REMARK                         _______ _______ _______ _____ _____    ______ ____
ROOT
ATOM     11  C   UNL     1      -1.132   1.871  25.299  0.00  0.00    +0.074 C 
ATOM     12  C   UNL     1      -0.682   2.378  25.769  0.00  0.00    +0.026 C 
ATOM     13  C   UNL     1      -1.010   3.134  25.715  0.00  0.00    +0.073 C 
ATOM     14  N   UNL     1      -1.663   3.093  25.212  0.00  0.00    -0.269 NA
ATOM     25  C   UNL     1      -1.738   2.312  24.955  0.00  0.00    +0.080 C 
ENDROOT
BRANCH  11   3
ATOM      1  C   UNL     1      -0.116   1.129  24.019  0.00  0.00    +0.132 C 
ATOM      2  N   UNL     1      -0.532   0.723  24.604  0.00  0.00    -0.313 N 
ATOM      3  C   UNL     1      -0.999   1.064  25.193  0.00  0.00    +0.121 A 
ATOM      4  N   UNL     1      -1.310   0.456  25.655  0.00  0.00    -0.231 NA
ATOM      5  C   UNL     1      -1.035  -0.260  25.353  0.00  0.00    +0.098 A 
ATOM      6  C   UNL     1      -0.555  -0.096  24.703  0.00  0.00    +0.079 A 
ATOM      7  C   UNL     1      -0.200  -0.713  24.286  0.00  0.00    +0.019 A 
ATOM      8  C   UNL     1      -0.325  -1.494  24.518  0.00  0.00    +0.002 A 
ATOM      9  C   UNL     1      -0.806  -1.659  25.168  0.00  0.00    +0.002 A 
ATOM     10  C   UNL     1      -1.161  -1.043  25.586  0.00  0.00    +0.021 A 
ENDBRANCH  11   3
BRANCH  14  15
ATOM     15  C   UNL     1      -2.153   3.722  25.003  0.00  0.00    +0.099 C 
BRANCH  15  16
ATOM     16  C   UNL     1      -2.963   3.682  25.154  0.00  0.00    -0.006 A 
ATOM     17  C   UNL     1      -3.253   3.877  25.902  0.00  0.00    -0.003 A 
ATOM     18  C   UNL     1      -4.063   3.837  26.053  0.00  0.00    +0.006 A 
ATOM     19  C   UNL     1      -4.583   3.601  25.458  0.00  0.00    +0.080 A 
ATOM     20  C   UNL     1      -4.293   3.406  24.710  0.00  0.00    +0.006 A 
ATOM     21  C   UNL     1      -3.482   3.446  24.558  0.00  0.00    -0.003 A 
BRANCH  19  22
ATOM     22  C   UNL     1      -5.392   3.561  25.610  0.00  0.00    +0.388 C 
ATOM     23  O   UNL     1      -5.842   4.252  25.636  0.00  0.00    -0.241 OA
ATOM     24  O   UNL     1      -5.753   2.829  25.735  0.00  0.00    -0.241 OA
ENDBRANCH  19  22
ENDBRANCH  15  16
ENDBRANCH  14  15
TORSDOF 4
ENDMDL
