MODEL 1
REMARK VINA RESULT:     -14.5      0.000      0.000
REMARK  Name = 
REMARK  5 active torsions:
REMARK  status: ('A' for Active; 'I' for Inactive)
REMARK    1  A    between atoms: C_1  and  N_2
REMARK    2  A    between atoms: C_1  and  C_24
REMARK    3  A    between atoms: C_6  and  C_7
REMARK    4  A    between atoms: C_9  and  C_12
REMARK    5  A    between atoms: C_16  and  N_18
REMARK                            x       y       z     vdW  Elec       q    Type
REMARK                         _______ _______ _______ _____ _____    ______ ____
ROOT
ATOM      7  C   UNL     1      -4.456   2.715  24.866  0.00  0.00    +0.251 A 
ATOM      8  N   UNL     1      -3.713   2.836  25.203  0.00  0.00    -0.190 NA
ATOM      9  C   UNL     1      -3.359   3.473  24.817  0.00  0.00    +0.203 A 
ATOM     10  N   UNL     1      -3.883   3.746  24.241  0.00  0.00    -0.056 NA
ATOM     11  O   UNL     1      -4.561   3.278  24.272  0.00  0.00    -0.336 OA
ENDROOT
BRANCH   9  12
ATOM     12  C   UNL     1      -2.611   3.782  24.978  0.00  0.00    +0.043 A 
ATOM     13  C   UNL     1      -2.515   4.595  25.082  0.00  0.00    +0.024 A 
ATOM     14  C   UNL     1      -1.767   4.905  25.244  0.00  0.00    +0.100 A 
ATOM     15  N   UNL     1      -1.116   4.401  25.301  0.00  0.00    -0.229 NA
ATOM     16  C   UNL     1      -1.212   3.588  25.197  0.00  0.00    +0.132 A 
ATOM     17  C   UNL     1      -1.960   3.279  25.036  0.00  0.00    +0.037 A 
BRANCH  16  18
ATOM     18  N   UNL     1      -0.561   3.085  25.255  0.00  0.00    -0.288 N 
ATOM     19  C   UNL     1      -0.271   2.869  25.996  0.00  0.00    +0.124 C 
ATOM     20  C   UNL     1       0.380   2.366  26.054  0.00  0.00    +0.164 C 
ATOM     21  O   UNL     1       0.741   2.079  25.370  0.00  0.00    -0.350 OA
ATOM     22  C   UNL     1       0.452   2.295  24.628  0.00  0.00    +0.164 C 
ATOM     23  C   UNL     1      -0.200   2.798  24.571  0.00  0.00    +0.124 C 
ENDBRANCH  16  18
ENDBRANCH   9  12
BRANCH   7   6
ATOM      2  N   UNL     1      -4.939   1.327  24.923  0.00  0.00    -0.263 NA
ATOM      3  C   UNL     1      -5.602   0.953  25.242  0.00  0.00    +0.073 C 
ATOM      4  C   UNL     1      -6.072   1.528  25.601  0.00  0.00    +0.019 C 
ATOM      5  C   UNL     1      -5.700   2.258  25.503  0.00  0.00    +0.027 C 
ATOM      6  C   UNL     1      -5.000   2.134  25.085  0.00  0.00    +0.138 C 
BRANCH   2   1
ATOM      1  C   UNL     1      -4.324   0.960  24.515  0.00  0.00    +0.101 C 
BRANCH   1  24
ATOM     24  C   UNL     1      -4.125   0.178  24.686  0.00  0.00    +0.013 A 
ATOM     25  C   UNL     1      -4.276  -0.417  24.135  0.00  0.00    +0.000 A 
ATOM     26  C   UNL     1      -4.077  -1.199  24.305  0.00  0.00    +0.017 A 
ATOM     27  C   UNL     1      -3.726  -1.387  25.029  0.00  0.00    +0.081 A 
ATOM     28  C   UNL     1      -3.526  -2.169  25.200  0.00  0.00    +0.019 A 
ATOM     29  C   UNL     1      -3.678  -2.763  24.649  0.00  0.00    +0.002 A 
ATOM     30  C   UNL     1      -4.030  -2.575  23.925  0.00  0.00    +0.000 A 
ATOM     31  C   UNL     1      -4.229  -1.794  23.755  0.00  0.00    +0.001 A 
ATOM     32  N   UNL     1      -3.574  -0.792  25.580  0.00  0.00    -0.244 NA
ATOM     33  C   UNL     1      -3.773  -0.009  25.409  0.00  0.00    +0.096 A 
ENDBRANCH   1  24
ENDBRANCH   2   1
ENDBRANCH   7   6
TORSDOF 5
ENDMDL
MODEL 2
REMARK VINA RESULT:     -14.4      1.547      3.664
REMARK  Name = 
REMARK  5 active torsions:
REMARK  status: ('A' for Active; 'I' for Inactive)
REMARK    1  A    between atoms: C_1  and  N_2
REMARK    2  A    between atoms: C_1  and  C_24
REMARK    3  A    between atoms: C_6  and  C_7
REMARK    4  A    between atoms: C_9  and  C_12
REMARK    5  A    between atoms: C_16  and  N_18
REMARK                            x       y       z     vdW  Elec       q    Type
REMARK                         _______ _______ _______ _____ _____    ______ ____
ROOT
ATOM      7  C   UNL     1      -0.286   1.358  24.735  0.00  0.00    +0.251 A 
ATOM      8  N   UNL     1      -0.831   1.945  24.539  0.00  0.00    -0.190 NA
ATOM      9  C   UNL     1      -0.812   2.518  25.132  0.00  0.00    +0.203 A 
ATOM     10  N   UNL     1      -0.255   2.285  25.695  0.00  0.00    -0.056 NA
ATOM     11  O   UNL     1       0.070   1.568  25.449  0.00  0.00    -0.336 OA
ENDROOT
BRANCH   9  12
ATOM     12  C   UNL     1      -1.270   3.204  25.158  0.00  0.00    +0.043 A 
ATOM     13  C   UNL     1      -0.904   3.944  25.167  0.00  0.00    +0.024 A 
ATOM     14  C   UNL     1      -1.362   4.630  25.193  0.00  0.00    +0.100 A 
ATOM     15  N   UNL     1      -2.184   4.576  25.210  0.00  0.00    -0.229 NA
ATOM     16  C   UNL     1      -2.550   3.837  25.200  0.00  0.00    +0.132 A 
ATOM     17  C   UNL     1      -2.093   3.151  25.174  0.00  0.00    +0.037 A 
BRANCH  16  18
ATOM     18  N   UNL     1      -3.374   3.783  25.217  0.00  0.00    -0.288 N 
ATOM     19  C   UNL     1      -3.801   3.775  24.511  0.00  0.00    +0.124 C 
ATOM     20  C   UNL     1      -4.624   3.722  24.528  0.00  0.00    +0.164 C 
ATOM     21  O   UNL     1      -5.020   3.676  25.250  0.00  0.00    -0.350 OA
ATOM     22  C   UNL     1      -4.593   3.684  25.956  0.00  0.00    +0.164 C 
ATOM     23  C   UNL     1      -3.769   3.737  25.940  0.00  0.00    +0.124 C 
ENDBRANCH  16  18
ENDBRANCH   9  12
BRANCH   7   6
ATOM      2  N   UNL     1      -0.461  -0.066  24.410  0.00  0.00    -0.263 NA
ATOM      3  C   UNL     1      -0.142  -0.579  23.847  0.00  0.00    +0.073 C 
ATOM      4  C   UNL     1       0.391  -0.152  23.384  0.00  0.00    +0.019 C 
ATOM      5  C   UNL     1       0.401   0.626  23.661  0.00  0.00    +0.027 C 
ATOM      6  C   UNL     1      -0.125   0.679  24.294  0.00  0.00    +0.138 C 
BRANCH   2   1
ATOM      1  C   UNL     1      -1.018  -0.262  24.985  0.00  0.00    +0.101 C 
BRANCH   1  24
ATOM     24  C   UNL     1      -1.548  -0.880  24.852  0.00  0.00    +0.013 A 
ATOM     25  C   UNL     1      -2.322  -0.717  24.619  0.00  0.00    +0.000 A 
ATOM     26  C   UNL     1      -2.853  -1.335  24.486  0.00  0.00    +0.017 A 
ATOM     27  C   UNL     1      -2.609  -2.117  24.587  0.00  0.00    +0.081 A 
ATOM     28  C   UNL     1      -3.138  -2.735  24.454  0.00  0.00    +0.019 A 
ATOM     29  C   UNL     1      -3.912  -2.572  24.221  0.00  0.00    +0.002 A 
ATOM     30  C   UNL     1      -4.157  -1.789  24.121  0.00  0.00    +0.000 A 
ATOM     31  C   UNL     1      -3.627  -1.172  24.253  0.00  0.00    +0.001 A 
ATOM     32  N   UNL     1      -1.834  -2.280  24.820  0.00  0.00    -0.244 NA
ATOM     33  C   UNL     1      -1.303  -1.662  24.953  0.00  0.00    +0.096 A 
ENDBRANCH   1  24
ENDBRANCH   2   1
ENDBRANCH   7   6
TORSDOF 5
ENDMDL
MODEL 3
REMARK VINA RESULT:     -13.1      1.552      4.632
REMARK  Name = 
REMARK  5 active torsions:
REMARK  status: ('A' for Active; 'I' for Inactive)
REMARK    1  A    between atoms: C_1  and  N_2
REMARK    2  A    between atoms: C_1  and  C_24
REMARK    3  A    between atoms: C_6  and  C_7
REMARK    4  A    between atoms: C_9  and  C_12
REMARK    5  A    between atoms: C_16  and  N_18
REMARK                            x       y       z     vdW  Elec       q    Type
REMARK                         _______ _______ _______ _____ _____    ______ ____
ROOT
ATOM      7  C   UNL     1      -4.770   0.840  24.865  0.00  0.00    +0.251 A 
ATOM      8  N   UNL     1      -4.183   0.326  25.132  0.00  0.00    -0.190 NA
ATOM      9  C   UNL     1      -4.172  -0.331  24.633  0.00  0.00    +0.203 A 
ATOM     10  N   UNL     1      -4.752  -0.223  24.057  0.00  0.00    -0.056 NA
ATOM     11  O   UNL     1      -5.122   0.500  24.200  0.00  0.00    -0.336 OA
ENDROOT
BRANCH   9  12
ATOM     12  C   UNL     1      -3.669  -0.981  24.699  0.00  0.00    +0.043 A 
ATOM     13  C   UNL     1      -3.982  -1.742  24.758  0.00  0.00    +0.024 A 
ATOM     14  C   UNL     1      -3.479  -2.392  24.824  0.00  0.00    +0.100 A 
ATOM     15  N   UNL     1      -2.662  -2.282  24.830  0.00  0.00    -0.229 NA
ATOM     16  C   UNL     1      -2.347  -1.521  24.770  0.00  0.00    +0.132 A 
ATOM     17  C   UNL     1      -2.851  -0.871  24.705  0.00  0.00    +0.037 A 
BRANCH  16  18
ATOM     18  N   UNL     1      -1.529  -1.411  24.776  0.00  0.00    -0.288 N 
ATOM     19  C   UNL     1      -1.176  -0.916  24.220  0.00  0.00    +0.124 C 
ATOM     20  C   UNL     1      -0.359  -0.806  24.226  0.00  0.00    +0.164 C 
ATOM     21  O   UNL     1       0.106  -1.191  24.789  0.00  0.00    -0.350 OA
ATOM     22  C   UNL     1      -0.248  -1.687  25.346  0.00  0.00    +0.164 C 
ATOM     23  C   UNL     1      -1.066  -1.797  25.339  0.00  0.00    +0.124 C 
ENDBRANCH  16  18
ENDBRANCH   9  12
BRANCH   7   6
ATOM      2  N   UNL     1      -4.620   2.293  25.031  0.00  0.00    -0.263 NA
ATOM      3  C   UNL     1      -4.991   2.868  25.494  0.00  0.00    +0.073 C 
ATOM      4  C   UNL     1      -5.570   2.496  25.949  0.00  0.00    +0.019 C 
ATOM      5  C   UNL     1      -5.557   1.691  25.769  0.00  0.00    +0.027 C 
ATOM      6  C   UNL     1      -4.971   1.566  25.202  0.00  0.00    +0.138 C 
BRANCH   2   1
ATOM      1  C   UNL     1      -4.008   2.423  24.494  0.00  0.00    +0.101 C 
BRANCH   1  24
ATOM     24  C   UNL     1      -3.462   3.025  24.629  0.00  0.00    +0.013 A 
ATOM     25  C   UNL     1      -2.695   2.841  24.871  0.00  0.00    +0.000 A 
ATOM     26  C   UNL     1      -2.148   3.443  25.006  0.00  0.00    +0.017 A 
ATOM     27  C   UNL     1      -2.368   4.232  24.899  0.00  0.00    +0.081 A 
ATOM     28  C   UNL     1      -1.822   4.835  25.034  0.00  0.00    +0.019 A 
ATOM     29  C   UNL     1      -1.055   4.650  25.276  0.00  0.00    +0.002 A 
ATOM     30  C   UNL     1      -0.835   3.861  25.383  0.00  0.00    +0.000 A 
ATOM     31  C   UNL     1      -1.381   3.259  25.248  0.00  0.00    +0.001 A 
ATOM     32  N   UNL     1      -3.135   4.416  24.657  0.00  0.00    -0.244 NA
ATOM     33  C   UNL     1      -3.682   3.814  24.522  0.00  0.00    +0.096 A 
ENDBRANCH   1  24
ENDBRANCH   2   1
ENDBRANCH   7   6
TORSDOF 5
ENDMDL
MODEL 4
REMARK VINA RESULT:     -12.8      1.899      4.831
REMARK  Name = 
REMARK  5 active torsions:
REMARK  status: ('A' for Active; 'I' for Inactive)
REMARK    1  A    between atoms: C_1  and  N_2
REMARK    2  A    between atoms: C_1  and  C_24
REMARK    3  A    between atoms: C_6  and  C_7
REMARK    4  A    between atoms: C_9  and  C_12
REMARK    5  A    between atoms: C_16  and  N_18
REMARK                            x       y       z     vdW  Elec       q    Type
REMARK                         _______ _______ _______ _____ _____    ______ ____
ROOT
ATOM      7  C   UNL     1      -1.026   1.950  24.470  0.00  0.00    +0.251 A 
ATOM      8  N   UNL     1      -1.128   1.237  24.870  0.00  0.00    -0.190 NA
ATOM      9  C   UNL     1      -0.902   0.626  24.364  0.00  0.00    +0.203 A 
ATOM     10  N   UNL     1      -0.660   0.962  23.650  0.00  0.00    -0.056 NA
ATOM     11  O   UNL     1      -0.737   1.781  23.716  0.00  0.00    -0.336 OA
ENDROOT
BRANCH   9  12
ATOM     12  C   UNL     1      -0.915  -0.180  24.540  0.00  0.00    +0.043 A 
ATOM     13  C   UNL     1      -0.209  -0.588  24.659  0.00  0.00    +0.024 A 
ATOM     14  C   UNL     1      -0.222  -1.394  24.835  0.00  0.00    +0.100 A 
ATOM     15  N   UNL     1      -0.942  -1.791  24.893  0.00  0.00    -0.229 NA
ATOM     16  C   UNL     1      -1.649  -1.384  24.775  0.00  0.00    +0.132 A 
ATOM     17  C   UNL     1      -1.636  -0.578  24.598  0.00  0.00    +0.037 A 
BRANCH  16  18
ATOM     18  N   UNL     1      -2.370  -1.781  24.833  0.00  0.00    -0.288 N 
ATOM     19  C   UNL     1      -2.923  -1.552  25.400  0.00  0.00    +0.124 C 
ATOM     20  C   UNL     1      -3.643  -1.950  25.458  0.00  0.00    +0.164 C 
ATOM     21  O   UNL     1      -3.811  -2.577  24.949  0.00  0.00    -0.350 OA
ATOM     22  C   UNL     1      -3.258  -2.806  24.381  0.00  0.00    +0.164 C 
ATOM     23  C   UNL     1      -2.537  -2.408  24.323  0.00  0.00    +0.124 C 
ENDBRANCH  16  18
ENDBRANCH   9  12
BRANCH   7   6
ATOM      2  N   UNL     1      -1.888   3.125  24.673  0.00  0.00    -0.263 NA
ATOM      3  C   UNL     1      -1.806   3.847  25.063  0.00  0.00    +0.073 C 
ATOM      4  C   UNL     1      -1.053   3.872  25.401  0.00  0.00    +0.019 C 
ATOM      5  C   UNL     1      -0.670   3.164  25.220  0.00  0.00    +0.027 C 
ATOM      6  C   UNL     1      -1.186   2.702  24.770  0.00  0.00    +0.138 C 
BRANCH   2   1
ATOM      1  C   UNL     1      -2.554   2.870  24.259  0.00  0.00    +0.101 C 
BRANCH   1  24
ATOM     24  C   UNL     1      -3.306   3.001  24.568  0.00  0.00    +0.013 A 
ATOM     25  C   UNL     1      -3.774   2.362  24.801  0.00  0.00    +0.000 A 
ATOM     26  C   UNL     1      -4.528   2.492  25.111  0.00  0.00    +0.017 A 
ATOM     27  C   UNL     1      -4.815   3.263  25.187  0.00  0.00    +0.081 A 
ATOM     28  C   UNL     1      -5.568   3.394  25.496  0.00  0.00    +0.019 A 
ATOM     29  C   UNL     1      -6.034   2.756  25.729  0.00  0.00    +0.002 A 
ATOM     30  C   UNL     1      -5.748   1.985  25.653  0.00  0.00    +0.000 A 
ATOM     31  C   UNL     1      -4.995   1.854  25.344  0.00  0.00    +0.001 A 
ATOM     32  N   UNL     1      -4.347   3.902  24.954  0.00  0.00    -0.244 NA
ATOM     33  C   UNL     1      -3.593   3.772  24.644  0.00  0.00    +0.096 A 
ENDBRANCH   1  24
ENDBRANCH   2   1
ENDBRANCH   7   6
TORSDOF 5
ENDMDL
MODEL 5
REMARK VINA RESULT:     -11.6      1.811      3.619
REMARK  Name = 
REMARK  5 active torsions:
REMARK  status: ('A' for Active; 'I' for Inactive)
REMARK    1  A    between atoms: C_1  and  N_2
REMARK    2  A    between atoms: C_1  and  C_24
REMARK    3  A    between atoms: C_6  and  C_7
REMARK    4  A    between atoms: C_9  and  C_12
REMARK    5  A    between atoms: C_16  and  N_18
REMARK                            x       y       z     vdW  Elec       q    Type
REMARK                         _______ _______ _______ _____ _____    ______ ____
ROOT
ATOM      7  C   UNL     1      -4.241  -0.278  24.937  0.00  0.00    +0.251 A 
ATOM      8  N   UNL     1      -4.196   0.493  24.648  0.00  0.00    -0.190 NA
ATOM      9  C   UNL     1      -4.569   0.991  25.189  0.00  0.00    +0.203 A 
ATOM     10  N   UNL     1      -4.846   0.528  25.813  0.00  0.00    -0.056 NA
ATOM     11  O   UNL     1      -4.643  -0.256  25.657  0.00  0.00    -0.336 OA
ENDROOT
BRANCH   9  12
ATOM     12  C   UNL     1      -4.652   1.809  25.119  0.00  0.00    +0.043 A 
ATOM     13  C   UNL     1      -5.386   2.135  24.928  0.00  0.00    +0.024 A 
ATOM     14  C   UNL     1      -5.469   2.952  24.858  0.00  0.00    +0.100 A 
ATOM     15  N   UNL     1      -4.818   3.444  24.978  0.00  0.00    -0.229 NA
ATOM     16  C   UNL     1      -4.084   3.119  25.169  0.00  0.00    +0.132 A 
ATOM     17  C   UNL     1      -4.001   2.302  25.239  0.00  0.00    +0.037 A 
BRANCH  16  18
ATOM     18  N   UNL     1      -3.433   3.612  25.289  0.00  0.00    -0.288 N 
ATOM     19  C   UNL     1      -2.912   3.767  24.668  0.00  0.00    +0.124 C 
ATOM     20  C   UNL     1      -2.262   4.259  24.789  0.00  0.00    +0.164 C 
ATOM     21  O   UNL     1      -2.131   4.597  25.530  0.00  0.00    -0.350 OA
ATOM     22  C   UNL     1      -2.652   4.442  26.151  0.00  0.00    +0.164 C 
ATOM     23  C   UNL     1      -3.303   3.949  26.031  0.00  0.00    +0.124 C 
ENDBRANCH  16  18
ENDBRANCH   9  12
BRANCH   7   6
ATOM      2  N   UNL     1      -3.166  -1.236  24.641  0.00  0.00    -0.263 NA
ATOM      3  C   UNL     1      -3.105  -1.921  24.183  0.00  0.00    +0.073 C 
ATOM      4  C   UNL     1      -3.839  -2.059  23.831  0.00  0.00    +0.019 C 
ATOM      5  C   UNL     1      -4.353  -1.460  24.071  0.00  0.00    +0.027 C 
ATOM      6  C   UNL     1      -3.938  -0.952  24.571  0.00  0.00    +0.138 C 
BRANCH   2   1
ATOM      1  C   UNL     1      -2.563  -0.897  25.088  0.00  0.00    +0.101 C 
BRANCH   1  24
ATOM     24  C   UNL     1      -1.799  -0.850  24.782  0.00  0.00    +0.013 A 
ATOM     25  C   UNL     1      -1.531  -0.146  24.444  0.00  0.00    +0.000 A 
ATOM     26  C   UNL     1      -0.766  -0.099  24.138  0.00  0.00    +0.017 A 
ATOM     27  C   UNL     1      -0.268  -0.757  24.169  0.00  0.00    +0.081 A 
ATOM     28  C   UNL     1       0.496  -0.710  23.863  0.00  0.00    +0.019 A 
ATOM     29  C   UNL     1       0.763  -0.006  23.525  0.00  0.00    +0.002 A 
ATOM     30  C   UNL     1       0.264   0.652  23.494  0.00  0.00    +0.000 A 
ATOM     31  C   UNL     1      -0.500   0.605  23.800  0.00  0.00    +0.001 A 
ATOM     32  N   UNL     1      -0.536  -1.460  24.507  0.00  0.00    -0.244 NA
ATOM     33  C   UNL     1      -1.300  -1.508  24.813  0.00  0.00    +0.096 A 
ENDBRANCH   1  24
ENDBRANCH   2   1
ENDBRANCH   7   6
TORSDOF 5
ENDMDL
