MODEL 1
REMARK VINA RESULT:     -14.8      0.000      0.000
REMARK  Name = 
REMARK  5 active torsions:
REMARK  status: ('A' for Active; 'I' for Inactive)
REMARK    1  A    between atoms: C_4  and  C_5
REMARK    2  A    between atoms: C_5  and  N_6
REMARK    3  A    between atoms: C_15  and  N_16
REMARK    4  A    between atoms: N_16  and  S_17
REMARK    5  A    between atoms: S_17  and  C_20
REMARK                            x       y       z     vdW  Elec       q    Type
REMARK                         _______ _______ _______ _____ _____    ______ ____
ROOT
ATOM      6  N   UNL     1      -3.399   3.246  25.406  0.00  0.00    -0.269 NA
ATOM      7  C   UNL     1      -3.804   3.876  25.777  0.00  0.00    +0.074 C 
ATOM      8  C   UNL     1      -4.727   3.525  25.737  0.00  0.00    +0.039 C 
ATOM      9  C   UNL     1      -5.527   3.382  25.783  0.00  0.00    +0.011 C 
ATOM     10  C   UNL     1      -4.955   3.057  25.539  0.00  0.00    +0.054 C 
ATOM     11  C   UNL     1      -4.069   3.409  25.584  0.00  0.00    +0.078 C 
ATOM     12  C   UNL     1      -4.690   2.284  25.118  0.00  0.00    +0.041 A 
ATOM     13  C   UNL     1      -4.998   1.581  24.816  0.00  0.00    +0.014 A 
ATOM     14  C   UNL     1      -4.495   1.027  24.469  0.00  0.00    +0.024 A 
ATOM     15  C   UNL     1      -3.685   1.175  24.424  0.00  0.00    +0.147 A 
ATOM     27  C   UNL     1      -3.377   1.878  24.727  0.00  0.00    +0.277 A 
ATOM     28  O   UNL     1      -2.566   2.026  24.682  0.00  0.00    -0.266 OA
ATOM     29  N   UNL     1      -3.879   2.432  25.074  0.00  0.00    -0.298 N 
ATOM     30  C   UNL     1      -4.440   2.721  25.298  0.00  0.00    +0.110 C 
ENDROOT
BRANCH   6   5
ATOM      5  C   UNL     1      -2.768   2.810  25.099  0.00  0.00    +0.101 C 
BRANCH   5   4
ATOM      1  C   UNL     1      -0.582   4.506  24.218  0.00  0.00    +0.130 C 
ATOM      2  N   UNL     1      -1.018   3.937  24.625  0.00  0.00    -0.324 N 
ATOM      3  C   UNL     1      -1.814   3.759  24.506  0.00  0.00    +0.073 A 
ATOM      4  C   UNL     1      -2.023   3.157  25.031  0.00  0.00    +0.012 A 
ATOM     31  C   UNL     1      -1.355   2.963  25.475  0.00  0.00    +0.015 A 
ATOM     32  C   UNL     1      -0.734   3.446  25.224  0.00  0.00    +0.060 A 
ATOM     33  C   UNL     1       0.010   3.374  25.573  0.00  0.00    +0.017 A 
ATOM     34  C   UNL     1       0.134   2.822  26.173  0.00  0.00    +0.001 A 
ATOM     35  C   UNL     1      -0.488   2.340  26.424  0.00  0.00    +0.000 A 
ATOM     36  C   UNL     1      -1.232   2.411  26.075  0.00  0.00    +0.001 A 
ENDBRANCH   5   4
ENDBRANCH   6   5
BRANCH  15  16
ATOM     16  N   UNL     1      -3.183   0.620  24.077  0.00  0.00    -0.092 NA
BRANCH  16  17
ATOM     17  S   UNL     1      -3.325  -0.186  24.182  0.00  0.00    +0.093 S 
ATOM     18  O   UNL     1      -2.850  -0.181  24.857  0.00  0.00    -0.148 OA
ATOM     19  O   UNL     1      -3.799  -0.191  23.507  0.00  0.00    -0.148 OA
BRANCH  17  20
ATOM     20  C   UNL     1      -3.466  -0.992  24.288  0.00  0.00    +0.127 A 
ATOM     21  C   UNL     1      -3.108  -1.396  24.911  0.00  0.00    +0.021 A 
ATOM     22  C   UNL     1      -3.249  -2.202  25.016  0.00  0.00    +0.013 A 
ATOM     23  C   UNL     1      -3.749  -2.604  24.498  0.00  0.00    +0.058 A 
ATOM     24 CL   UNL     1      -3.891  -3.410  24.603  0.00  0.00    -0.082 Cl
ATOM     25  C   UNL     1      -4.108  -2.200  23.875  0.00  0.00    +0.013 A 
ATOM     26  C   UNL     1      -3.966  -1.394  23.769  0.00  0.00    +0.021 A 
ENDBRANCH  17  20
ENDBRANCH  16  17
ENDBRANCH  15  16
TORSDOF 5
ENDMDL
MODEL 2
REMARK VINA RESULT:     -13.9      2.074      4.734
REMARK  Name = 
REMARK  5 active torsions:
REMARK  status: ('A' for Active; 'I' for Inactive)
REMARK    1  A    between atoms: C_4  and  C_5
REMARK    2  A    between atoms: C_5  and  N_6
REMARK    3  A    between atoms: C_15  and  N_16
REMARK    4  A    between atoms: N_16  and  S_17
REMARK    5  A    between atoms: S_17  and  C_20
REMARK                            x       y       z     vdW  Elec       q    Type
REMARK                         _______ _______ _______ _____ _____    ______ ____
ROOT
ATOM      6  N   UNL     1      -4.971   0.675  25.077  0.00  0.00    -0.269 NA
ATOM      7  C   UNL     1      -5.794   0.583  25.188  0.00  0.00    +0.074 C 
ATOM      8  C   UNL     1      -6.072   1.531  25.157  0.00  0.00    +0.039 C 
ATOM      9  C   UNL     1      -6.457   2.249  25.156  0.00  0.00    +0.011 C 
ATOM     10  C   UNL     1      -5.799   2.013  25.089  0.00  0.00    +0.054 C 
ATOM     11  C   UNL     1      -5.547   1.092  25.121  0.00  0.00    +0.078 C 
ATOM     12  C   UNL     1      -4.938   2.306  24.959  0.00  0.00    +0.041 A 
ATOM     13  C   UNL     1      -4.507   3.001  24.855  0.00  0.00    +0.014 A 
ATOM     14  C   UNL     1      -3.689   2.967  24.753  0.00  0.00    +0.024 A 
ATOM     15  C   UNL     1      -3.302   2.238  24.755  0.00  0.00    +0.147 A 
ATOM     27  C   UNL     1      -3.733   1.543  24.859  0.00  0.00    +0.277 A 
ATOM     28  O   UNL     1      -3.347   0.814  24.861  0.00  0.00    -0.266 OA
ATOM     29  N   UNL     1      -4.551   1.577  24.961  0.00  0.00    -0.298 N 
ATOM     30  C   UNL     1      -5.169   1.827  25.021  0.00  0.00    +0.110 C 
ENDROOT
BRANCH   6   5
ATOM      5  C   UNL     1      -4.178   0.464  24.991  0.00  0.00    +0.101 C 
BRANCH   5   4
ATOM      1  C   UNL     1      -3.157  -1.775  26.534  0.00  0.00    +0.130 C 
ATOM      2  N   UNL     1      -3.457  -1.321  25.914  0.00  0.00    -0.324 N 
ATOM      3  C   UNL     1      -3.645  -0.519  25.947  0.00  0.00    +0.073 A 
ATOM      4  C   UNL     1      -3.927  -0.292  25.204  0.00  0.00    +0.012 A 
ATOM     31  C   UNL     1      -3.914  -0.955  24.713  0.00  0.00    +0.015 A 
ATOM     32  C   UNL     1      -3.623  -1.591  25.152  0.00  0.00    +0.060 A 
ATOM     33  C   UNL     1      -3.548  -2.334  24.801  0.00  0.00    +0.017 A 
ATOM     34  C   UNL     1      -3.762  -2.441  24.012  0.00  0.00    +0.001 A 
ATOM     35  C   UNL     1      -4.052  -1.805  23.573  0.00  0.00    +0.000 A 
ATOM     36  C   UNL     1      -4.128  -1.063  23.924  0.00  0.00    +0.001 A 
ENDBRANCH   5   4
ENDBRANCH   6   5
BRANCH  15  16
ATOM     16  N   UNL     1      -2.485   2.206  24.654  0.00  0.00    -0.092 NA
BRANCH  16  17
ATOM     17  S   UNL     1      -2.037   2.898  24.687  0.00  0.00    +0.093 S 
ATOM     18  O   UNL     1      -1.930   2.789  25.498  0.00  0.00    -0.148 OA
ATOM     19  O   UNL     1      -2.145   3.007  23.877  0.00  0.00    -0.148 OA
BRANCH  17  20
ATOM     20  C   UNL     1      -1.590   3.591  24.721  0.00  0.00    +0.127 A 
ATOM     21  C   UNL     1      -1.862   4.237  25.155  0.00  0.00    +0.021 A 
ATOM     22  C   UNL     1      -1.415   4.930  25.189  0.00  0.00    +0.013 A 
ATOM     23  C   UNL     1      -0.695   4.976  24.789  0.00  0.00    +0.058 A 
ATOM     24 CL   UNL     1      -0.248   5.669  24.822  0.00  0.00    -0.082 Cl
ATOM     25  C   UNL     1      -0.423   4.330  24.355  0.00  0.00    +0.013 A 
ATOM     26  C   UNL     1      -0.870   3.637  24.321  0.00  0.00    +0.021 A 
ENDBRANCH  17  20
ENDBRANCH  16  17
ENDBRANCH  15  16
TORSDOF 5
ENDMDL
MODEL 3
REMARK VINA RESULT:     -13.6      1.486      3.124
REMARK  Name = 
REMARK  5 active torsions:
REMARK  status: ('A' for Active; 'I' for Inactive)
REMARK    1  A    between atoms: C_4  and  C_5
REMARK    2  A    between atoms: C_5  and  N_6
REMARK    3  A    between atoms: C_15  and  N_16
REMARK    4  A    between atoms: N_16  and  S_17
REMARK    5  A    between atoms: S_17  and  C_20
REMARK                            x       y       z     vdW  Elec       q    Type
REMARK                         _______ _______ _______ _____ _____    ______ ____
ROOT
ATOM      6  N   UNL     1      -1.088   2.320  24.632  0.00  0.00    -0.269 NA
ATOM      7  C   UNL     1      -0.423   2.733  24.340  0.00  0.00    +0.074 C 
ATOM      8  C   UNL     1       0.197   1.975  24.206  0.00  0.00    +0.039 C 
ATOM      9  C   UNL     1       0.815   1.471  24.042  0.00  0.00    +0.011 C 
ATOM     10  C   UNL     1       0.159   1.425  24.287  0.00  0.00    +0.054 C 
ATOM     11  C   UNL     1      -0.428   2.168  24.411  0.00  0.00    +0.078 C 
ATOM     12  C   UNL     1      -0.457   0.812  24.586  0.00  0.00    +0.041 A 
ATOM     13  C   UNL     1      -0.545   0.003  24.716  0.00  0.00    +0.014 A 
ATOM     14  C   UNL     1      -1.256  -0.293  25.011  0.00  0.00    +0.024 A 
ATOM     15  C   UNL     1      -1.880   0.221  25.176  0.00  0.00    +0.147 A 
ATOM     27  C   UNL     1      -1.793   1.030  25.046  0.00  0.00    +0.277 A 
ATOM     28  O   UNL     1      -2.417   1.544  25.211  0.00  0.00    -0.266 OA
ATOM     29  N   UNL     1      -1.082   1.326  24.751  0.00  0.00    -0.298 N 
ATOM     30  C   UNL     1      -0.454   1.343  24.520  0.00  0.00    +0.110 C 
ENDROOT
BRANCH   6   5
ATOM      5  C   UNL     1      -1.850   2.197  24.925  0.00  0.00    +0.101 C 
BRANCH   5   4
ATOM      1  C   UNL     1      -2.938   4.463  26.380  0.00  0.00    +0.130 C 
ATOM      2  N   UNL     1      -2.820   3.883  25.805  0.00  0.00    -0.324 N 
ATOM      3  C   UNL     1      -2.235   3.301  25.817  0.00  0.00    +0.073 A 
ATOM      4  C   UNL     1      -2.319   2.841  25.136  0.00  0.00    +0.012 A 
ATOM     31  C   UNL     1      -2.956   3.139  24.704  0.00  0.00    +0.015 A 
ATOM     32  C   UNL     1      -3.265   3.783  25.119  0.00  0.00    +0.060 A 
ATOM     33  C   UNL     1      -3.912   4.195  24.816  0.00  0.00    +0.017 A 
ATOM     34  C   UNL     1      -4.251   3.964  24.100  0.00  0.00    +0.001 A 
ATOM     35  C   UNL     1      -3.942   3.321  23.687  0.00  0.00    +0.000 A 
ATOM     36  C   UNL     1      -3.295   2.909  23.989  0.00  0.00    +0.001 A 
ENDBRANCH   5   4
ENDBRANCH   6   5
BRANCH  15  16
ATOM     16  N   UNL     1      -2.591  -0.076  25.471  0.00  0.00    -0.092 NA
BRANCH  16  17
ATOM     17  S   UNL     1      -2.927  -0.751  25.135  0.00  0.00    +0.093 S 
ATOM     18  O   UNL     1      -2.571  -1.217  25.715  0.00  0.00    -0.148 OA
ATOM     19  O   UNL     1      -3.283  -0.284  24.555  0.00  0.00    -0.148 OA
BRANCH  17  20
ATOM     20  C   UNL     1      -3.263  -1.425  24.799  0.00  0.00    +0.127 A 
ATOM     21  C   UNL     1      -3.831  -1.351  24.205  0.00  0.00    +0.021 A 
ATOM     22  C   UNL     1      -4.167  -2.026  23.869  0.00  0.00    +0.013 A 
ATOM     23  C   UNL     1      -3.935  -2.774  24.126  0.00  0.00    +0.058 A 
ATOM     24 CL   UNL     1      -4.271  -3.449  23.790  0.00  0.00    -0.082 Cl
ATOM     25  C   UNL     1      -3.367  -2.848  24.720  0.00  0.00    +0.013 A 
ATOM     26  C   UNL     1      -3.031  -2.174  25.056  0.00  0.00    +0.021 A 
ENDBRANCH  17  20
ENDBRANCH  16  17
ENDBRANCH  15  16
TORSDOF 5
ENDMDL
MODEL 4
REMARK VINA RESULT:     -12.6      2.711      5.584
REMARK  Name = 
REMARK  5 active torsions:
REMARK  status: ('A' for Active; 'I' for Inactive)
REMARK    1  A    between atoms: C_4  and  C_5
REMARK    2  A    between atoms: C_5  and  N_6
REMARK    3  A    between atoms: C_15  and  N_16
REMARK    4  A    between atoms: N_16  and  S_17
REMARK    5  A    between atoms: S_17  and  C_20
REMARK                            x       y       z     vdW  Elec       q    Type
REMARK                         _______ _______ _______ _____ _____    ______ ____
ROOT
ATOM      6  N   UNL     1      -0.910  -0.438  24.140  0.00  0.00    -0.269 NA
ATOM      7  C   UNL     1      -0.515  -0.975  23.637  0.00  0.00    +0.074 C 
ATOM      8  C   UNL     1       0.286  -0.438  23.418  0.00  0.00    +0.039 C 
ATOM      9  C   UNL     1       0.989  -0.131  23.145  0.00  0.00    +0.011 C 
ATOM     10  C   UNL     1       0.463   0.070  23.563  0.00  0.00    +0.054 C 
ATOM     11  C   UNL     1      -0.305  -0.460  23.764  0.00  0.00    +0.078 C 
ATOM     12  C   UNL     1       0.183   0.777  24.081  0.00  0.00    +0.041 A 
ATOM     13  C   UNL     1       0.418   1.533  24.313  0.00  0.00    +0.014 A 
ATOM     14  C   UNL     1      -0.060   1.975  24.820  0.00  0.00    +0.024 A 
ATOM     15  C   UNL     1      -0.772   1.661  25.095  0.00  0.00    +0.147 A 
ATOM     27  C   UNL     1      -1.006   0.905  24.862  0.00  0.00    +0.277 A 
ATOM     28  O   UNL     1      -1.718   0.591  25.137  0.00  0.00    -0.266 OA
ATOM     29  N   UNL     1      -0.528   0.463  24.355  0.00  0.00    -0.298 N 
ATOM     30  C   UNL     1      -0.014   0.294  23.962  0.00  0.00    +0.110 C 
ENDROOT
BRANCH   6   5
ATOM      5  C   UNL     1      -1.495  -0.140  24.641  0.00  0.00    +0.101 C 
BRANCH   5   4
ATOM      1  C   UNL     1      -3.019  -2.124  26.116  0.00  0.00    +0.130 C 
ATOM      2  N   UNL     1      -2.811  -1.540  25.571  0.00  0.00    -0.324 N 
ATOM      3  C   UNL     1      -2.074  -1.175  25.511  0.00  0.00    +0.073 A 
ATOM      4  C   UNL     1      -2.110  -0.628  24.893  0.00  0.00    +0.012 A 
ATOM     31  C   UNL     1      -2.869  -0.656  24.572  0.00  0.00    +0.015 A 
ATOM     32  C   UNL     1      -3.302  -1.220  24.991  0.00  0.00    +0.060 A 
ATOM     33  C   UNL     1      -4.088  -1.369  24.790  0.00  0.00    +0.017 A 
ATOM     34  C   UNL     1      -4.442  -0.955  24.171  0.00  0.00    +0.001 A 
ATOM     35  C   UNL     1      -4.009  -0.392  23.752  0.00  0.00    +0.000 A 
ATOM     36  C   UNL     1      -3.223  -0.242  23.952  0.00  0.00    +0.001 A 
ENDBRANCH   5   4
ENDBRANCH   6   5
BRANCH  15  16
ATOM     16  N   UNL     1      -1.248   2.103  25.601  0.00  0.00    -0.092 NA
BRANCH  16  17
ATOM     17  S   UNL     1      -1.332   2.916  25.483  0.00  0.00    +0.093 S 
ATOM     18  O   UNL     1      -0.715   3.056  26.012  0.00  0.00    -0.148 OA
ATOM     19  O   UNL     1      -1.950   2.775  24.955  0.00  0.00    -0.148 OA
BRANCH  17  20
ATOM     20  C   UNL     1      -1.416   3.728  25.365  0.00  0.00    +0.127 A 
ATOM     21  C   UNL     1      -2.132   4.098  25.540  0.00  0.00    +0.021 A 
ATOM     22  C   UNL     1      -2.216   4.911  25.422  0.00  0.00    +0.013 A 
ATOM     23  C   UNL     1      -1.584   5.353  25.129  0.00  0.00    +0.058 A 
ATOM     24 CL   UNL     1      -1.669   6.165  25.011  0.00  0.00    -0.082 Cl
ATOM     25  C   UNL     1      -0.869   4.982  24.954  0.00  0.00    +0.013 A 
ATOM     26  C   UNL     1      -0.785   4.170  25.072  0.00  0.00    +0.021 A 
ENDBRANCH  17  20
ENDBRANCH  16  17
ENDBRANCH  15  16
TORSDOF 5
ENDMDL
MODEL 5
REMARK VINA RESULT:     -12.3      2.395      4.265
REMARK  Name = 
REMARK  5 active torsions:
REMARK  status: ('A' for Active; 'I' for Inactive)
REMARK    1  A    between atoms: C_4  and  C_5
REMARK    2  A    between atoms: C_5  and  N_6
REMARK    3  A    between atoms: C_15  and  N_16
REMARK    4  A    between atoms: N_16  and  S_17
REMARK    5  A    between atoms: S_17  and  C_20
REMARK                            x       y       z     vdW  Elec       q    Type
REMARK                         _______ _______ _______ _____ _____    ______ ____
ROOT
ATOM      6  N   UNL     1      -3.999  -0.076  24.350  0.00  0.00    -0.269 NA
ATOM      7  C   UNL     1      -4.686  -0.533  24.224  0.00  0.00    +0.074 C 
ATOM      8  C   UNL     1      -4.281  -1.433  24.179  0.00  0.00    +0.039 C 
ATOM      9  C   UNL     1      -4.106  -2.227  24.119  0.00  0.00    +0.011 C 
ATOM     10  C   UNL     1      -3.759  -1.625  24.220  0.00  0.00    +0.054 C 
ATOM     11  C   UNL     1      -4.166  -0.762  24.261  0.00  0.00    +0.078 C 
ATOM     12  C   UNL     1      -2.911  -1.296  24.351  0.00  0.00    +0.041 A 
ATOM     13  C   UNL     1      -2.128  -1.550  24.416  0.00  0.00    +0.014 A 
ATOM     14  C   UNL     1      -1.526  -1.000  24.541  0.00  0.00    +0.024 A 
ATOM     15  C   UNL     1      -1.706  -0.197  24.602  0.00  0.00    +0.147 A 
ATOM     27  C   UNL     1      -2.489   0.056  24.537  0.00  0.00    +0.277 A 
ATOM     28  O   UNL     1      -2.669   0.859  24.598  0.00  0.00    -0.266 OA
ATOM     29  N   UNL     1      -3.091  -0.493  24.412  0.00  0.00    -0.298 N 
ATOM     30  C   UNL     1      -3.398  -1.080  24.317  0.00  0.00    +0.110 C 
ENDROOT
BRANCH   6   5
ATOM      5  C   UNL     1      -3.531   0.593  24.471  0.00  0.00    +0.101 C 
BRANCH   5   4
ATOM      1  C   UNL     1      -4.980   2.714  25.827  0.00  0.00    +0.130 C 
ATOM      2  N   UNL     1      -4.552   2.294  25.261  0.00  0.00    -0.324 N 
ATOM      3  C   UNL     1      -4.289   1.515  25.330  0.00  0.00    +0.073 A 
ATOM      4  C   UNL     1      -3.885   1.319  24.637  0.00  0.00    +0.012 A 
ATOM     31  C   UNL     1      -3.898   1.977  24.140  0.00  0.00    +0.015 A 
ATOM     32  C   UNL     1      -4.310   2.580  24.526  0.00  0.00    +0.060 A 
ATOM     33  C   UNL     1      -4.412   3.311  24.157  0.00  0.00    +0.017 A 
ATOM     34  C   UNL     1      -4.103   3.440  23.403  0.00  0.00    +0.001 A 
ATOM     35  C   UNL     1      -3.691   2.837  23.018  0.00  0.00    +0.000 A 
ATOM     36  C   UNL     1      -3.589   2.107  23.386  0.00  0.00    +0.001 A 
ENDBRANCH   5   4
ENDBRANCH   6   5
BRANCH  15  16
ATOM     16  N   UNL     1      -1.104   0.352  24.727  0.00  0.00    -0.092 NA
BRANCH  16  17
ATOM     17  S   UNL     1      -0.415   0.318  24.274  0.00  0.00    +0.093 S 
ATOM     18  O   UNL     1      -0.726   0.881  23.758  0.00  0.00    -0.148 OA
ATOM     19  O   UNL     1      -0.103  -0.245  24.791  0.00  0.00    -0.148 OA
BRANCH  17  20
ATOM     20  C   UNL     1       0.274   0.284  23.822  0.00  0.00    +0.127 A 
ATOM     21  C   UNL     1       0.847   0.872  23.897  0.00  0.00    +0.021 A 
ATOM     22  C   UNL     1       1.536   0.838  23.444  0.00  0.00    +0.013 A 
ATOM     23  C   UNL     1       1.652   0.215  22.916  0.00  0.00    +0.058 A 
ATOM     24 CL   UNL     1       2.342   0.181  22.464  0.00  0.00    -0.082 Cl
ATOM     25  C   UNL     1       1.080  -0.374  22.841  0.00  0.00    +0.013 A 
ATOM     26  C   UNL     1       0.391  -0.339  23.293  0.00  0.00    +0.021 A 
ENDBRANCH  17  20
ENDBRANCH  16  17
ENDBRANCH  15  16
TORSDOF 5
ENDMDL
MODEL 6
REMARK VINA RESULT:     -12.1      2.095      3.966
REMARK  Name = 
REMARK  5 active torsions:
REMARK  status: ('A' for Active; 'I' for Inactive)
REMARK    1  A    between atoms: C_4  and  C_5
REMARK    2  A    between atoms: C_5  and  N_6
REMARK    3  A    between atoms: C_15  and  N_16
REMARK    4  A    between atoms: N_16  and  S_17
REMARK    5  A    between atoms: S_17  and  C_20
REMARK                            x       y       z     vdW  Elec       q    Type
REMARK                         _______ _______ _______ _____ _____    ______ ____
ROOT
ATOM      6  N   UNL     1      -1.899  -0.712  24.801  0.00  0.00    -0.269 NA
ATOM      7  C   UNL     1      -1.674  -1.454  25.112  0.00  0.00    +0.074 C 
ATOM      8  C   UNL     1      -2.566  -1.865  25.223  0.00  0.00    +0.039 C 
ATOM      9  C   UNL     1      -3.213  -2.337  25.373  0.00  0.00    +0.011 C 
ATOM     10  C   UNL     1      -3.087  -1.693  25.123  0.00  0.00    +0.054 C 
ATOM     11  C   UNL     1      -2.218  -1.310  25.022  0.00  0.00    +0.078 C 
ATOM     12  C   UNL     1      -3.517  -0.949  24.799  0.00  0.00    +0.041 A 
ATOM     13  C   UNL     1      -4.275  -0.666  24.639  0.00  0.00    +0.014 A 
ATOM     14  C   UNL     1      -4.376   0.092  24.330  0.00  0.00    +0.024 A 
ATOM     15  C   UNL     1      -3.718   0.567  24.179  0.00  0.00    +0.147 A 
ATOM     27  C   UNL     1      -2.960   0.284  24.338  0.00  0.00    +0.277 A 
ATOM     28  O   UNL     1      -2.303   0.759  24.187  0.00  0.00    -0.266 OA
ATOM     29  N   UNL     1      -2.860  -0.474  24.648  0.00  0.00    -0.298 N 
ATOM     30  C   UNL     1      -3.007  -1.083  24.883  0.00  0.00    +0.110 C 
ENDROOT
BRANCH   6   5
ATOM      5  C   UNL     1      -1.820   0.052  24.500  0.00  0.00    +0.101 C 
BRANCH   5   4
ATOM      1  C   UNL     1       0.702   0.468  23.122  0.00  0.00    +0.130 C 
ATOM      2  N   UNL     1       0.085   0.532  23.666  0.00  0.00    -0.324 N 
ATOM      3  C   UNL     1      -0.617   0.100  23.656  0.00  0.00    +0.073 A 
ATOM      4  C   UNL     1      -1.075   0.341  24.300  0.00  0.00    +0.012 A 
ATOM     31  C   UNL     1      -0.654   0.922  24.708  0.00  0.00    +0.015 A 
ATOM     32  C   UNL     1       0.063   1.039  24.316  0.00  0.00    +0.060 A 
ATOM     33  C   UNL     1       0.603   1.594  24.602  0.00  0.00    +0.017 A 
ATOM     34  C   UNL     1       0.426   2.031  25.279  0.00  0.00    +0.001 A 
ATOM     35  C   UNL     1      -0.290   1.913  25.670  0.00  0.00    +0.000 A 
ATOM     36  C   UNL     1      -0.830   1.359  25.385  0.00  0.00    +0.001 A 
ENDBRANCH   5   4
ENDBRANCH   6   5
BRANCH  15  16
ATOM     16  N   UNL     1      -3.820   1.324  23.869  0.00  0.00    -0.092 NA
BRANCH  16  17
ATOM     17  S   UNL     1      -4.234   1.893  24.300  0.00  0.00    +0.093 S 
ATOM     18  O   UNL     1      -4.918   1.435  24.249  0.00  0.00    -0.148 OA
ATOM     19  O   UNL     1      -3.550   2.352  24.351  0.00  0.00    -0.148 OA
BRANCH  17  20
ATOM     20  C   UNL     1      -4.648   2.463  24.731  0.00  0.00    +0.127 A 
ATOM     21  C   UNL     1      -5.430   2.323  24.953  0.00  0.00    +0.021 A 
ATOM     22  C   UNL     1      -5.844   2.892  25.384  0.00  0.00    +0.013 A 
ATOM     23  C   UNL     1      -5.476   3.601  25.592  0.00  0.00    +0.058 A 
ATOM     24 CL   UNL     1      -5.890   4.170  26.023  0.00  0.00    -0.082 Cl
ATOM     25  C   UNL     1      -4.694   3.740  25.369  0.00  0.00    +0.013 A 
ATOM     26  C   UNL     1      -4.280   3.171  24.939  0.00  0.00    +0.021 A 
ENDBRANCH  17  20
ENDBRANCH  16  17
ENDBRANCH  15  16
TORSDOF 5
ENDMDL
