MODEL 1
REMARK VINA RESULT:     -10.9      0.000      0.000
REMARK  Name = 
REMARK  6 active torsions:
REMARK  status: ('A' for Active; 'I' for Inactive)
REMARK    1  A    between atoms: O_2  and  C_3
REMARK    2  A    between atoms: C_3  and  C_4
REMARK    3  A    between atoms: C_4  and  O_5
REMARK    4  A    between atoms: O_5  and  C_6
REMARK    5  A    between atoms: C_8  and  C_12
REMARK    6  A    between atoms: C_15  and  C_17
REMARK                            x       y       z     vdW  Elec       q    Type
REMARK                         _______ _______ _______ _____ _____    ______ ____
ROOT
ATOM     12  C   UNL     1      -4.037   0.841  24.373  0.00  0.00    +0.204 A 
ATOM     13  N   UNL     1      -3.619   0.805  23.662  0.00  0.00    -0.056 NA
ATOM     14  O   UNL     1      -3.429   0.016  23.517  0.00  0.00    -0.335 OA
ATOM     15  C   UNL     1      -3.729  -0.436  24.140  0.00  0.00    +0.255 A 
ATOM     16  N   UNL     1      -4.104   0.074  24.667  0.00  0.00    -0.189 NA
ENDROOT
BRANCH  15  17
ATOM     17  C   UNL     1      -3.664  -1.255  24.218  0.00  0.00    +0.155 C 
ATOM     18  C   UNL     1      -4.256  -1.806  24.059  0.00  0.00    +0.031 C 
ATOM     19  C   UNL     1      -3.952  -2.558  24.212  0.00  0.00    +0.024 C 
ATOM     20  C   UNL     1      -3.172  -2.471  24.465  0.00  0.00    +0.094 C 
ATOM     21  N   UNL     1      -2.993  -1.666  24.469  0.00  0.00    -0.271 N 
ATOM     22  C   UNL     1      -2.272  -1.329  24.685  0.00  0.00    +0.221 A 
ATOM     23  N   UNL     1      -1.648  -1.813  24.926  0.00  0.00    -0.212 NA
ATOM     24  C   UNL     1      -0.926  -1.477  25.143  0.00  0.00    +0.103 A 
ATOM     25  C   UNL     1      -0.828  -0.657  25.118  0.00  0.00    +0.041 A 
ATOM     26  C   UNL     1      -1.452  -0.175  24.878  0.00  0.00    +0.103 A 
ATOM     27  N   UNL     1      -2.174  -0.511  24.661  0.00  0.00    -0.212 NA
ENDBRANCH  15  17
BRANCH  12   8
ATOM      6  C   UNL     1      -4.231   2.924  24.997  0.00  0.00    +0.225 A 
ATOM      7  C   UNL     1      -3.933   2.241  24.644  0.00  0.00    +0.061 A 
ATOM      8  C   UNL     1      -4.334   1.524  24.726  0.00  0.00    +0.045 A 
ATOM      9  C   UNL     1      -5.034   1.492  25.164  0.00  0.00    +0.024 A 
ATOM     10  C   UNL     1      -5.331   2.175  25.518  0.00  0.00    +0.102 A 
ATOM     11  N   UNL     1      -4.929   2.891  25.434  0.00  0.00    -0.210 NA
BRANCH   6   5
ATOM      5  O   UNL     1      -3.829   3.640  24.914  0.00  0.00    -0.457 OA
BRANCH   5   4
ATOM      4  C   UNL     1      -3.141   3.779  25.347  0.00  0.00    +0.239 C 
BRANCH   4   3
ATOM      3  C   UNL     1      -2.677   4.441  25.184  0.00  0.00    +0.189 C 
BRANCH   3   2
ATOM      1  C   UNL     1      -1.350   4.971  25.192  0.00  0.00    +0.174 C 
ATOM      2  O   UNL     1      -1.948   4.537  25.559  0.00  0.00    -0.347 OA
ENDBRANCH   3   2
ENDBRANCH   4   3
ENDBRANCH   5   4
ENDBRANCH   6   5
ENDBRANCH  12   8
TORSDOF 6
ENDMDL
MODEL 2
REMARK VINA RESULT:     -10.0      1.320      4.444
REMARK  Name = 
REMARK  6 active torsions:
REMARK  status: ('A' for Active; 'I' for Inactive)
REMARK    1  A    between atoms: O_2  and  C_3
REMARK    2  A    between atoms: C_3  and  C_4
REMARK    3  A    between atoms: C_4  and  O_5
REMARK    4  A    between atoms: O_5  and  C_6
REMARK    5  A    between atoms: C_8  and  C_12
REMARK    6  A    between atoms: C_15  and  C_17
REMARK                            x       y       z     vdW  Elec       q    Type
REMARK                         _______ _______ _______ _____ _____    ______ ____
ROOT
ATOM     12  C   UNL     1      -3.886   0.584  24.435  0.00  0.00    +0.204 A 
ATOM     13  N   UNL     1      -3.795   1.086  23.788  0.00  0.00    -0.056 NA
ATOM     14  O   UNL     1      -4.163   1.802  23.966  0.00  0.00    -0.335 OA
ATOM     15  C   UNL     1      -4.482   1.742  24.726  0.00  0.00    +0.255 A 
ATOM     16  N   UNL     1      -4.310   0.989  25.015  0.00  0.00    -0.189 NA
ENDROOT
BRANCH  15  17
ATOM     17  C   UNL     1      -4.898   2.332  25.124  0.00  0.00    +0.155 C 
ATOM     18  C   UNL     1      -5.713   2.352  25.248  0.00  0.00    +0.031 C 
ATOM     19  C   UNL     1      -5.890   3.040  25.669  0.00  0.00    +0.024 C 
ATOM     20  C   UNL     1      -5.184   3.444  25.805  0.00  0.00    +0.094 C 
ATOM     21  N   UNL     1      -4.571   3.008  25.469  0.00  0.00    -0.271 N 
ATOM     22  C   UNL     1      -3.771   3.209  25.475  0.00  0.00    +0.221 A 
ATOM     23  N   UNL     1      -3.524   3.906  25.843  0.00  0.00    -0.212 NA
ATOM     24  C   UNL     1      -2.724   4.108  25.849  0.00  0.00    +0.103 A 
ATOM     25  C   UNL     1      -2.171   3.613  25.487  0.00  0.00    +0.041 A 
ATOM     26  C   UNL     1      -2.418   2.918  25.120  0.00  0.00    +0.103 A 
ATOM     27  N   UNL     1      -3.218   2.716  25.114  0.00  0.00    -0.212 NA
ENDBRANCH  15  17
BRANCH  12   8
ATOM      6  C   UNL     1      -2.522  -1.098  24.715  0.00  0.00    +0.225 A 
ATOM      7  C   UNL     1      -2.806  -0.325  24.657  0.00  0.00    +0.061 A 
ATOM      8  C   UNL     1      -3.602  -0.189  24.493  0.00  0.00    +0.045 A 
ATOM      9  C   UNL     1      -4.116  -0.827  24.388  0.00  0.00    +0.024 A 
ATOM     10  C   UNL     1      -3.833  -1.599  24.446  0.00  0.00    +0.102 A 
ATOM     11  N   UNL     1      -3.035  -1.734  24.609  0.00  0.00    -0.210 NA
BRANCH   6   5
ATOM      5  O   UNL     1      -1.724  -1.233  24.878  0.00  0.00    -0.457 OA
BRANCH   5   4
ATOM      4  C   UNL     1      -1.160  -1.139  24.283  0.00  0.00    +0.239 C 
BRANCH   4   3
ATOM      3  C   UNL     1      -0.380  -0.958  24.479  0.00  0.00    +0.189 C 
BRANCH   3   2
ATOM      1  C   UNL     1       0.560  -0.315  23.616  0.00  0.00    +0.174 C 
ATOM      2  O   UNL     1       0.211  -1.005  23.905  0.00  0.00    -0.347 OA
ENDBRANCH   3   2
ENDBRANCH   4   3
ENDBRANCH   5   4
ENDBRANCH   6   5
ENDBRANCH  12   8
TORSDOF 6
ENDMDL
MODEL 3
REMARK VINA RESULT:      -9.9      1.572      5.342
REMARK  Name = 
REMARK  6 active torsions:
REMARK  status: ('A' for Active; 'I' for Inactive)
REMARK    1  A    between atoms: O_2  and  C_3
REMARK    2  A    between atoms: C_3  and  C_4
REMARK    3  A    between atoms: C_4  and  O_5
REMARK    4  A    between atoms: O_5  and  C_6
REMARK    5  A    between atoms: C_8  and  C_12
REMARK    6  A    between atoms: C_15  and  C_17
REMARK                            x       y       z     vdW  Elec       q    Type
REMARK                         _______ _______ _______ _____ _____    ______ ____
ROOT
ATOM     12  C   UNL     1      -1.356   1.400  24.190  0.00  0.00    +0.204 A 
ATOM     13  N   UNL     1      -1.722   1.714  23.520  0.00  0.00    -0.056 NA
ATOM     14  O   UNL     1      -1.893   2.506  23.670  0.00  0.00    -0.335 OA
ATOM     15  C   UNL     1      -1.633   2.683  24.434  0.00  0.00    +0.255 A 
ATOM     16  N   UNL     1      -1.302   1.999  24.754  0.00  0.00    -0.189 NA
ENDROOT
BRANCH  15  17
ATOM     17  C   UNL     1      -1.694   3.415  24.809  0.00  0.00    +0.155 C 
ATOM     18  C   UNL     1      -1.077   3.944  24.944  0.00  0.00    +0.031 C 
ATOM     19  C   UNL     1      -1.387   4.603  25.334  0.00  0.00    +0.024 C 
ATOM     20  C   UNL     1      -2.195   4.479  25.439  0.00  0.00    +0.094 C 
ATOM     21  N   UNL     1      -2.386   3.746  25.115  0.00  0.00    -0.271 N 
ATOM     22  C   UNL     1      -3.136   3.402  25.099  0.00  0.00    +0.221 A 
ATOM     23  N   UNL     1      -3.779   3.801  25.429  0.00  0.00    -0.212 NA
ATOM     24  C   UNL     1      -4.529   3.457  25.413  0.00  0.00    +0.103 A 
ATOM     25  C   UNL     1      -4.636   2.715  25.068  0.00  0.00    +0.041 A 
ATOM     26  C   UNL     1      -3.993   2.317  24.738  0.00  0.00    +0.103 A 
ATOM     27  N   UNL     1      -3.243   2.661  24.754  0.00  0.00    -0.212 NA
ENDBRANCH  15  17
BRANCH  12   8
ATOM      6  C   UNL     1      -1.322  -0.721  24.705  0.00  0.00    +0.225 A 
ATOM      7  C   UNL     1      -1.586   0.055  24.615  0.00  0.00    +0.061 A 
ATOM      8  C   UNL     1      -1.092   0.624  24.279  0.00  0.00    +0.045 A 
ATOM      9  C   UNL     1      -0.332   0.415  24.033  0.00  0.00    +0.024 A 
ATOM     10  C   UNL     1      -0.068  -0.361  24.122  0.00  0.00    +0.102 A 
ATOM     11  N   UNL     1      -0.563  -0.929  24.458  0.00  0.00    -0.210 NA
BRANCH   6   5
ATOM      5  O   UNL     1      -1.818  -1.289  25.041  0.00  0.00    -0.457 OA
BRANCH   5   4
ATOM      4  C   UNL     1      -2.278  -1.772  24.556  0.00  0.00    +0.239 C 
BRANCH   4   3
ATOM      3  C   UNL     1      -2.900  -2.208  24.879  0.00  0.00    +0.189 C 
BRANCH   3   2
ATOM      1  C   UNL     1      -4.029  -2.709  24.160  0.00  0.00    +0.174 C 
ATOM      2  O   UNL     1      -3.258  -2.806  24.437  0.00  0.00    -0.347 OA
ENDBRANCH   3   2
ENDBRANCH   4   3
ENDBRANCH   5   4
ENDBRANCH   6   5
ENDBRANCH  12   8
TORSDOF 6
ENDMDL
MODEL 4
REMARK VINA RESULT:      -9.8      1.832      4.489
REMARK  Name = 
REMARK  6 active torsions:
REMARK  status: ('A' for Active; 'I' for Inactive)
REMARK    1  A    between atoms: O_2  and  C_3
REMARK    2  A    between atoms: C_3  and  C_4
REMARK    3  A    between atoms: C_4  and  O_5
REMARK    4  A    between atoms: O_5  and  C_6
REMARK    5  A    between atoms: C_8  and  C_12
REMARK    6  A    between atoms: C_15  and  C_17
REMARK                            x       y       z     vdW  Elec       q    Type
REMARK                         _______ _______ _______ _____ _____    ______ ____
ROOT
ATOM     12  C   UNL     1      -3.546   2.401  24.438  0.00  0.00    +0.204 A 
ATOM     13  N   UNL     1      -3.333   2.585  23.662  0.00  0.00    -0.056 NA
ATOM     14  O   UNL     1      -2.710   3.124  23.690  0.00  0.00    -0.335 OA
ATOM     15  C   UNL     1      -2.538   3.274  24.483  0.00  0.00    +0.255 A 
ATOM     16  N   UNL     1      -3.054   2.827  24.944  0.00  0.00    -0.189 NA
ENDROOT
BRANCH  15  17
ATOM     17  C   UNL     1      -1.952   3.783  24.763  0.00  0.00    +0.155 C 
ATOM     18  C   UNL     1      -2.067   4.550  25.042  0.00  0.00    +0.031 C 
ATOM     19  C   UNL     1      -1.332   4.853  25.265  0.00  0.00    +0.024 C 
ATOM     20  C   UNL     1      -0.764   4.273  25.123  0.00  0.00    +0.094 C 
ATOM     21  N   UNL     1      -1.145   3.611  24.814  0.00  0.00    -0.271 N 
ATOM     22  C   UNL     1      -0.786   2.902  24.592  0.00  0.00    +0.221 A 
ATOM     23  N   UNL     1       0.030   2.811  24.675  0.00  0.00    -0.212 NA
ATOM     24  C   UNL     1       0.390   2.102  24.454  0.00  0.00    +0.103 A 
ATOM     25  C   UNL     1      -0.066   1.485  24.150  0.00  0.00    +0.041 A 
ATOM     26  C   UNL     1      -0.882   1.576  24.068  0.00  0.00    +0.103 A 
ATOM     27  N   UNL     1      -1.242   2.286  24.289  0.00  0.00    -0.212 NA
ENDBRANCH  15  17
BRANCH  12   8
ATOM      6  C   UNL     1      -4.571   0.569  25.037  0.00  0.00    +0.225 A 
ATOM      7  C   UNL     1      -3.972   1.088  24.808  0.00  0.00    +0.061 A 
ATOM      8  C   UNL     1      -4.145   1.882  24.666  0.00  0.00    +0.045 A 
ATOM      9  C   UNL     1      -4.919   2.157  24.752  0.00  0.00    +0.024 A 
ATOM     10  C   UNL     1      -5.518   1.638  24.981  0.00  0.00    +0.102 A 
ATOM     11  N   UNL     1      -5.344   0.844  25.123  0.00  0.00    -0.210 NA
BRANCH   6   5
ATOM      5  O   UNL     1      -4.397  -0.225  25.179  0.00  0.00    -0.457 OA
BRANCH   5   4
ATOM      4  C   UNL     1      -4.271  -0.738  24.546  0.00  0.00    +0.239 C 
BRANCH   4   3
ATOM      3  C   UNL     1      -3.988  -1.501  24.683  0.00  0.00    +0.189 C 
BRANCH   3   2
ATOM      1  C   UNL     1      -3.667  -2.804  24.193  0.00  0.00    +0.174 C 
ATOM      2  O   UNL     1      -4.026  -2.069  24.086  0.00  0.00    -0.347 OA
ENDBRANCH   3   2
ENDBRANCH   4   3
ENDBRANCH   5   4
ENDBRANCH   6   5
ENDBRANCH  12   8
TORSDOF 6
ENDMDL
MODEL 5
REMARK VINA RESULT:      -9.6      2.110      5.025
REMARK  Name = 
REMARK  6 active torsions:
REMARK  status: ('A' for Active; 'I' for Inactive)
REMARK    1  A    between atoms: O_2  and  C_3
REMARK    2  A    between atoms: C_3  and  C_4
REMARK    3  A    between atoms: C_4  and  O_5
REMARK    4  A    between atoms: O_5  and  C_6
REMARK    5  A    between atoms: C_8  and  C_12
REMARK    6  A    between atoms: C_15  and  C_17
REMARK                            x       y       z     vdW  Elec       q    Type
REMARK                         _______ _______ _______ _____ _____    ______ ____
ROOT
ATOM     12  C   UNL     1      -1.786   1.340  24.448  0.00  0.00    +0.204 A 
ATOM     13  N   UNL     1      -2.204   1.606  23.789  0.00  0.00    -0.056 NA
ATOM     14  O   UNL     1      -2.594   2.302  23.997  0.00  0.00    -0.335 OA
ATOM     15  C   UNL     1      -2.417   2.466  24.787  0.00  0.00    +0.255 A 
ATOM     16  N   UNL     1      -1.919   1.871  25.065  0.00  0.00    -0.189 NA
ENDROOT
BRANCH  15  17
ATOM     17  C   UNL     1      -2.692   3.111  25.221  0.00  0.00    +0.155 C 
ATOM     18  C   UNL     1      -2.237   3.743  25.493  0.00  0.00    +0.031 C 
ATOM     19  C   UNL     1      -2.736   4.260  25.899  0.00  0.00    +0.024 C 
ATOM     20  C   UNL     1      -3.499   3.948  25.877  0.00  0.00    +0.094 C 
ATOM     21  N   UNL     1      -3.473   3.239  25.458  0.00  0.00    -0.271 N 
ATOM     22  C   UNL     1      -4.113   2.742  25.303  0.00  0.00    +0.221 A 
ATOM     23  N   UNL     1      -4.866   2.943  25.578  0.00  0.00    -0.212 NA
ATOM     24  C   UNL     1      -5.507   2.446  25.423  0.00  0.00    +0.103 A 
ATOM     25  C   UNL     1      -5.395   1.750  24.994  0.00  0.00    +0.041 A 
ATOM     26  C   UNL     1      -4.643   1.550  24.720  0.00  0.00    +0.103 A 
ATOM     27  N   UNL     1      -4.002   2.046  24.875  0.00  0.00    -0.212 NA
ENDBRANCH  15  17
BRANCH  12   8
ATOM      6  C   UNL     1      -0.289  -0.164  23.935  0.00  0.00    +0.225 A 
ATOM      7  C   UNL     1      -0.756   0.515  23.899  0.00  0.00    +0.061 A 
ATOM      8  C   UNL     1      -1.319   0.661  24.485  0.00  0.00    +0.045 A 
ATOM      9  C   UNL     1      -1.413   0.127  25.107  0.00  0.00    +0.024 A 
ATOM     10  C   UNL     1      -0.946  -0.552  25.144  0.00  0.00    +0.102 A 
ATOM     11  N   UNL     1      -0.384  -0.696  24.557  0.00  0.00    -0.210 NA
BRANCH   6   5
ATOM      5  O   UNL     1       0.273  -0.308  23.349  0.00  0.00    -0.457 OA
BRANCH   5   4
ATOM      4  C   UNL     1       0.996   0.089  23.364  0.00  0.00    +0.239 C 
BRANCH   4   3
ATOM      3  C   UNL     1       1.555  -0.048  22.774  0.00  0.00    +0.189 C 
BRANCH   3   2
ATOM      1  C   UNL     1       2.914   0.109  22.359  0.00  0.00    +0.174 C 
ATOM      2  O   UNL     1       2.246   0.402  22.746  0.00  0.00    -0.347 OA
ENDBRANCH   3   2
ENDBRANCH   4   3
ENDBRANCH   5   4
ENDBRANCH   6   5
ENDBRANCH  12   8
TORSDOF 6
ENDMDL
MODEL 6
REMARK VINA RESULT:      -9.6      2.081      3.521
REMARK  Name = 
REMARK  6 active torsions:
REMARK  status: ('A' for Active; 'I' for Inactive)
REMARK    1  A    between atoms: O_2  and  C_3
REMARK    2  A    between atoms: C_3  and  C_4
REMARK    3  A    between atoms: C_4  and  O_5
REMARK    4  A    between atoms: O_5  and  C_6
REMARK    5  A    between atoms: C_8  and  C_12
REMARK    6  A    between atoms: C_15  and  C_17
REMARK                            x       y       z     vdW  Elec       q    Type
REMARK                         _______ _______ _______ _____ _____    ______ ____
ROOT
ATOM     12  C   UNL     1      -0.701   2.649  25.197  0.00  0.00    +0.204 A 
ATOM     13  N   UNL     1      -0.252   2.293  25.790  0.00  0.00    -0.056 NA
ATOM     14  O   UNL     1       0.110   1.625  25.471  0.00  0.00    -0.335 OA
ATOM     15  C   UNL     1      -0.116   1.568  24.678  0.00  0.00    +0.255 A 
ATOM     16  N   UNL     1      -0.617   2.200  24.510  0.00  0.00    -0.189 NA
ENDROOT
BRANCH  15  17
ATOM     17  C   UNL     1       0.120   0.980  24.149  0.00  0.00    +0.155 C 
ATOM     18  C   UNL     1       0.658   1.071  23.531  0.00  0.00    +0.031 C 
ATOM     19  C   UNL     1       0.728   0.344  23.146  0.00  0.00    +0.024 C 
ATOM     20  C   UNL     1       0.233  -0.194  23.526  0.00  0.00    +0.094 C 
ATOM     21  N   UNL     1      -0.143   0.197  24.146  0.00  0.00    -0.271 N 
ATOM     22  C   UNL     1      -0.687  -0.133  24.672  0.00  0.00    +0.221 A 
ATOM     23  N   UNL     1      -0.897  -0.928  24.600  0.00  0.00    -0.212 NA
ATOM     24  C   UNL     1      -1.441  -1.259  25.125  0.00  0.00    +0.103 A 
ATOM     25  C   UNL     1      -1.774  -0.795  25.722  0.00  0.00    +0.041 A 
ATOM     26  C   UNL     1      -1.563  -0.001  25.793  0.00  0.00    +0.103 A 
ATOM     27  N   UNL     1      -1.019   0.330  25.267  0.00  0.00    -0.212 NA
ENDBRANCH  15  17
BRANCH  12   8
ATOM      6  C   UNL     1      -2.378   3.971  25.655  0.00  0.00    +0.225 A 
ATOM      7  C   UNL     1      -1.924   3.286  25.575  0.00  0.00    +0.061 A 
ATOM      8  C   UNL     1      -1.156   3.333  25.277  0.00  0.00    +0.045 A 
ATOM      9  C   UNL     1      -0.842   4.065  25.059  0.00  0.00    +0.024 A 
ATOM     10  C   UNL     1      -1.296   4.749  25.139  0.00  0.00    +0.102 A 
ATOM     11  N   UNL     1      -2.064   4.701  25.437  0.00  0.00    -0.210 NA
BRANCH   6   5
ATOM      5  O   UNL     1      -3.146   3.923  25.952  0.00  0.00    -0.457 OA
BRANCH   5   4
ATOM      4  C   UNL     1      -3.763   3.681  25.462  0.00  0.00    +0.239 C 
BRANCH   4   3
ATOM      3  C   UNL     1      -4.507   3.522  25.782  0.00  0.00    +0.189 C 
BRANCH   3   2
ATOM      1  C   UNL     1      -5.699   2.778  25.525  0.00  0.00    +0.174 C 
ATOM      2  O   UNL     1      -5.138   3.333  25.285  0.00  0.00    -0.347 OA
ENDBRANCH   3   2
ENDBRANCH   4   3
ENDBRANCH   5   4
ENDBRANCH   6   5
ENDBRANCH  12   8
TORSDOF 6
ENDMDL
MODEL 7
REMARK VINA RESULT:      -9.5      1.883      3.853
REMARK  Name = 
REMARK  6 active torsions:
REMARK  status: ('A' for Active; 'I' for Inactive)
REMARK    1  A    between atoms: O_2  and  C_3
REMARK    2  A    between atoms: C_3  and  C_4
REMARK    3  A    between atoms: C_4  and  O_5
REMARK    4  A    between atoms: O_5  and  C_6
REMARK    5  A    between atoms: C_8  and  C_12
REMARK    6  A    between atoms: C_15  and  C_17
REMARK                            x       y       z     vdW  Elec       q    Type
REMARK                         _______ _______ _______ _____ _____    ______ ____
ROOT
ATOM     12  C   UNL     1      -3.061   3.514  24.793  0.00  0.00    +0.204 A 
ATOM     13  N   UNL     1      -3.459   3.536  24.071  0.00  0.00    -0.056 NA
ATOM     14  O   UNL     1      -4.196   3.184  24.174  0.00  0.00    -0.335 OA
ATOM     15  C   UNL     1      -4.255   2.942  24.962  0.00  0.00    +0.255 A 
ATOM     16  N   UNL     1      -3.553   3.146  25.343  0.00  0.00    -0.189 NA
ENDROOT
BRANCH  15  17
ATOM     17  C   UNL     1      -4.902   2.563  25.305  0.00  0.00    +0.155 C 
ATOM     18  C   UNL     1      -5.493   2.923  25.754  0.00  0.00    +0.031 C 
ATOM     19  C   UNL     1      -6.028   2.338  25.985  0.00  0.00    +0.024 C 
ATOM     20  C   UNL     1      -5.767   1.618  25.680  0.00  0.00    +0.094 C 
ATOM     21  N   UNL     1      -5.071   1.756  25.260  0.00  0.00    -0.271 N 
ATOM     22  C   UNL     1      -4.622   1.189  24.863  0.00  0.00    +0.221 A 
ATOM     23  N   UNL     1      -4.862   0.399  24.866  0.00  0.00    -0.212 NA
ATOM     24  C   UNL     1      -4.413  -0.169  24.469  0.00  0.00    +0.103 A 
ATOM     25  C   UNL     1      -3.726   0.053  24.070  0.00  0.00    +0.041 A 
ATOM     26  C   UNL     1      -3.487   0.842  24.068  0.00  0.00    +0.103 A 
ATOM     27  N   UNL     1      -3.936   1.410  24.464  0.00  0.00    -0.212 NA
ENDBRANCH  15  17
BRANCH  12   8
ATOM      6  C   UNL     1      -0.902   3.585  25.114  0.00  0.00    +0.225 A 
ATOM      7  C   UNL     1      -1.660   3.292  24.968  0.00  0.00    +0.061 A 
ATOM      8  C   UNL     1      -2.303   3.807  24.939  0.00  0.00    +0.045 A 
ATOM      9  C   UNL     1      -2.189   4.616  25.055  0.00  0.00    +0.024 A 
ATOM     10  C   UNL     1      -1.432   4.909  25.201  0.00  0.00    +0.102 A 
ATOM     11  N   UNL     1      -0.789   4.393  25.231  0.00  0.00    -0.210 NA
BRANCH   6   5
ATOM      5  O   UNL     1      -0.259   3.068  25.143  0.00  0.00    -0.457 OA
BRANCH   5   4
ATOM      4  C   UNL     1      -0.098   2.575  24.502  0.00  0.00    +0.239 C 
BRANCH   4   3
ATOM      3  C   UNL     1       0.363   1.899  24.607  0.00  0.00    +0.189 C 
BRANCH   3   2
ATOM      1  C   UNL     1       0.558   0.760  23.767  0.00  0.00    +0.174 C 
ATOM      2  O   UNL     1       0.729   1.544  23.959  0.00  0.00    -0.347 OA
ENDBRANCH   3   2
ENDBRANCH   4   3
ENDBRANCH   5   4
ENDBRANCH   6   5
ENDBRANCH  12   8
TORSDOF 6
ENDMDL
