MODEL 1
REMARK VINA RESULT:      -8.2      0.000      0.000
REMARK  Name = 
REMARK  7 active torsions:
REMARK  status: ('A' for Active; 'I' for Inactive)
REMARK    1  A    between atoms: N_2  and  C_4
REMARK    2  A    between atoms: C_7  and  C_10
REMARK    3  A    between atoms: N_15  and  C_16
REMARK    4  A    between atoms: C_20  and  N_24
REMARK    5  A    between atoms: N_24  and  S_25
REMARK    6  A    between atoms: S_25  and  C_28
REMARK    7  A    between atoms: C_33  and  C_34
REMARK                            x       y       z     vdW  Elec       q    Type
REMARK                         _______ _______ _______ _____ _____    ______ ____
ROOT
ATOM     16  C   UNL     1      -0.486   0.707  23.986  0.00  0.00    +0.154 C 
ATOM     17  C   UNL     1      -0.938   0.026  23.873  0.00  0.00    +0.166 C 
ATOM     18  O   UNL     1      -1.731   0.251  23.833  0.00  0.00    -0.350 OA
ATOM     19  C   UNL     1      -1.769   1.069  23.921  0.00  0.00    +0.164 C 
ATOM     20  C   UNL     1      -2.282   1.715  23.951  0.00  0.00    +0.157 C 
ATOM     21  C   UNL     1      -1.830   2.396  24.064  0.00  0.00    +0.164 C 
ATOM     22  O   UNL     1      -1.038   2.171  24.104  0.00  0.00    -0.350 OA
ATOM     23  C   UNL     1      -1.000   1.352  24.016  0.00  0.00    +0.166 C 
ENDROOT
BRANCH  16  15
ATOM     10  C   UNL     1       2.111   0.106  22.955  0.00  0.00    +0.086 A 
ATOM     11  C   UNL     1       1.766  -0.256  22.298  0.00  0.00    +0.040 A 
ATOM     12  C   UNL     1       0.945  -0.286  22.228  0.00  0.00    +0.103 A 
ATOM     13  N   UNL     1       0.467   0.045  22.814  0.00  0.00    -0.211 NA
ATOM     14  C   UNL     1       0.813   0.407  23.470  0.00  0.00    +0.237 A 
ATOM     15  N   UNL     1       0.335   0.738  24.056  0.00  0.00    -0.200 NA
ATOM     36  N   UNL     1       1.634   0.437  23.541  0.00  0.00    -0.212 NA
BRANCH  10   7
ATOM      4  C   UNL     1       4.575   0.196  23.166  0.00  0.00    +0.048 A 
ATOM      5  C   UNL     1       4.164   0.838  22.849  0.00  0.00    +0.015 A 
ATOM      6  C   UNL     1       3.343   0.808  22.779  0.00  0.00    +0.003 A 
ATOM      7  C   UNL     1       2.932   0.136  23.025  0.00  0.00    +0.018 A 
ATOM      8  C   UNL     1       3.342  -0.506  23.341  0.00  0.00    +0.003 A 
ATOM      9  C   UNL     1       4.164  -0.476  23.412  0.00  0.00    +0.015 A 
BRANCH   4   2
ATOM      1  C   UNL     1       5.872  -0.145  22.674  0.00  0.00    +0.112 C 
ATOM      2  N   UNL     1       5.396   0.227  23.236  0.00  0.00    -0.304 N 
ATOM      3  C   UNL     1       5.742   0.628  23.869  0.00  0.00    +0.112 C 
ENDBRANCH   4   2
ENDBRANCH  10   7
ENDBRANCH  16  15
BRANCH  20  24
ATOM     24  N   UNL     1      -3.104   1.685  23.881  0.00  0.00    -0.074 NA
BRANCH  24  25
ATOM     25  S   UNL     1      -3.575   2.210  24.309  0.00  0.00    +0.078 S 
ATOM     26  O   UNL     1      -3.742   2.624  23.615  0.00  0.00    -0.152 OA
ATOM     27  O   UNL     1      -3.407   1.795  25.002  0.00  0.00    -0.152 OA
BRANCH  25  28
ATOM     28  C   UNL     1      -4.046   2.735  24.736  0.00  0.00    +0.133 A 
ATOM     29  C   UNL     1      -3.765   3.491  24.911  0.00  0.00    +0.021 A 
ATOM     30  C   UNL     1      -4.237   4.017  25.339  0.00  0.00    +0.001 A 
ATOM     31  C   UNL     1      -4.987   3.787  25.591  0.00  0.00    +0.001 A 
ATOM     32  C   UNL     1      -5.267   3.031  25.416  0.00  0.00    +0.012 A 
ATOM     33  C   UNL     1      -4.797   2.505  24.989  0.00  0.00    +0.087 A 
BRANCH  33  34
ATOM     34  C   UNL     1      -5.077   1.749  24.813  0.00  0.00    +0.102 C 
ATOM     35  N   UNL     1      -5.358   0.993  24.639  0.00  0.00    -0.191 NA
ENDBRANCH  33  34
ENDBRANCH  25  28
ENDBRANCH  24  25
ENDBRANCH  20  24
TORSDOF 7
ENDMDL
MODEL 2
REMARK VINA RESULT:      -7.4     15.120     17.367
REMARK  Name = 
REMARK  7 active torsions:
REMARK  status: ('A' for Active; 'I' for Inactive)
REMARK    1  A    between atoms: N_2  and  C_4
REMARK    2  A    between atoms: C_7  and  C_10
REMARK    3  A    between atoms: N_15  and  C_16
REMARK    4  A    between atoms: C_20  and  N_24
REMARK    5  A    between atoms: N_24  and  S_25
REMARK    6  A    between atoms: S_25  and  C_28
REMARK    7  A    between atoms: C_33  and  C_34
REMARK                            x       y       z     vdW  Elec       q    Type
REMARK                         _______ _______ _______ _____ _____    ______ ____
ROOT
ATOM     16  C   UNL     1      -6.117 -10.283  14.038  0.00  0.00    +0.154 C 
ATOM     17  C   UNL     1      -5.378 -10.601  14.218  0.00  0.00    +0.166 C 
ATOM     18  O   UNL     1      -4.875 -10.452  13.581  0.00  0.00    -0.350 OA
ATOM     19  C   UNL     1      -5.303 -10.043  13.008  0.00  0.00    +0.164 C 
ATOM     20  C   UNL     1      -5.259  -9.698  12.260  0.00  0.00    +0.157 C 
ATOM     21  C   UNL     1      -5.998  -9.379  12.080  0.00  0.00    +0.164 C 
ATOM     22  O   UNL     1      -6.500  -9.528  12.717  0.00  0.00    -0.350 OA
ATOM     23  C   UNL     1      -6.071  -9.938  13.291  0.00  0.00    +0.166 C 
ENDROOT
BRANCH  16  15
ATOM     10  C   UNL     1      -7.343  -9.871  16.588  0.00  0.00    +0.086 A 
ATOM     11  C   UNL     1      -6.619  -9.620  16.895  0.00  0.00    +0.040 A 
ATOM     12  C   UNL     1      -5.951  -9.597  16.411  0.00  0.00    +0.103 A 
ATOM     13  N   UNL     1      -6.006  -9.825  15.620  0.00  0.00    -0.211 NA
ATOM     14  C   UNL     1      -6.730 -10.077  15.313  0.00  0.00    +0.237 A 
ATOM     15  N   UNL     1      -6.785 -10.305  14.522  0.00  0.00    -0.200 NA
ATOM     36  N   UNL     1      -7.398 -10.099  15.797  0.00  0.00    -0.212 NA
BRANCH  10   7
ATOM      4  C   UNL     1      -9.346  -9.940  18.040  0.00  0.00    +0.048 A 
ATOM      5  C   UNL     1      -9.141  -9.240  17.652  0.00  0.00    +0.015 A 
ATOM      6  C   UNL     1      -8.473  -9.218  17.168  0.00  0.00    +0.003 A 
ATOM      7  C   UNL     1      -8.010  -9.894  17.071  0.00  0.00    +0.018 A 
ATOM      8  C   UNL     1      -8.215 -10.593  17.459  0.00  0.00    +0.003 A 
ATOM      9  C   UNL     1      -8.883 -10.615  17.943  0.00  0.00    +0.015 A 
BRANCH   4   2
ATOM      1  C   UNL     1      -9.978 -10.337  19.257  0.00  0.00    +0.112 C 
ATOM      2  N   UNL     1     -10.014  -9.962  18.523  0.00  0.00    -0.304 N 
ATOM      3  C   UNL     1     -10.717  -9.610  18.273  0.00  0.00    +0.112 C 
ENDBRANCH   4   2
ENDBRANCH  10   7
ENDBRANCH  16  15
BRANCH  20  24
ATOM     24  N   UNL     1      -4.591  -9.675  11.776  0.00  0.00    -0.074 NA
BRANCH  24  25
ATOM     25  S   UNL     1      -4.673  -9.561  10.963  0.00  0.00    +0.078 S 
ATOM     26  O   UNL     1      -4.641 -10.377  10.847  0.00  0.00    -0.152 OA
ATOM     27  O   UNL     1      -4.705  -8.745  11.080  0.00  0.00    -0.152 OA
BRANCH  25  28
ATOM     28  C   UNL     1      -4.756  -9.448  10.150  0.00  0.00    +0.133 A 
ATOM     29  C   UNL     1      -5.506  -9.458   9.807  0.00  0.00    +0.021 A 
ATOM     30  C   UNL     1      -5.589  -9.346   8.994  0.00  0.00    +0.001 A 
ATOM     31  C   UNL     1      -4.922  -9.223   8.524  0.00  0.00    +0.001 A 
ATOM     32  C   UNL     1      -4.172  -9.213   8.867  0.00  0.00    +0.012 A 
ATOM     33  C   UNL     1      -4.089  -9.326   9.680  0.00  0.00    +0.087 A 
BRANCH  33  34
ATOM     34  C   UNL     1      -3.338  -9.316  10.024  0.00  0.00    +0.102 C 
ATOM     35  N   UNL     1      -2.589  -9.306  10.367  0.00  0.00    -0.191 NA
ENDBRANCH  33  34
ENDBRANCH  25  28
ENDBRANCH  24  25
ENDBRANCH  20  24
TORSDOF 7
ENDMDL
MODEL 3
REMARK VINA RESULT:      -7.1      1.550      2.242
REMARK  Name = 
REMARK  7 active torsions:
REMARK  status: ('A' for Active; 'I' for Inactive)
REMARK    1  A    between atoms: N_2  and  C_4
REMARK    2  A    between atoms: C_7  and  C_10
REMARK    3  A    between atoms: N_15  and  C_16
REMARK    4  A    between atoms: C_20  and  N_24
REMARK    5  A    between atoms: N_24  and  S_25
REMARK    6  A    between atoms: S_25  and  C_28
REMARK    7  A    between atoms: C_33  and  C_34
REMARK                            x       y       z     vdW  Elec       q    Type
REMARK                         _______ _______ _______ _____ _____    ______ ____
ROOT
ATOM     16  C   UNL     1       0.044   1.310  24.016  0.00  0.00    +0.154 C 
ATOM     17  C   UNL     1      -0.368   1.707  23.421  0.00  0.00    +0.166 C 
ATOM     18  O   UNL     1      -1.174   1.625  23.572  0.00  0.00    -0.350 OA
ATOM     19  C   UNL     1      -1.262   1.179  24.259  0.00  0.00    +0.164 C 
ATOM     20  C   UNL     1      -1.813   0.852  24.778  0.00  0.00    +0.157 C 
ATOM     21  C   UNL     1      -1.402   0.455  25.373  0.00  0.00    +0.164 C 
ATOM     22  O   UNL     1      -0.595   0.536  25.222  0.00  0.00    -0.350 OA
ATOM     23  C   UNL     1      -0.508   0.984  24.533  0.00  0.00    +0.166 C 
ENDROOT
BRANCH  16  15
ATOM     10  C   UNL     1       2.538   0.310  23.040  0.00  0.00    +0.086 A 
ATOM     11  C   UNL     1       2.144  -0.070  22.423  0.00  0.00    +0.040 A 
ATOM     12  C   UNL     1       1.323  -0.010  22.358  0.00  0.00    +0.103 A 
ATOM     13  N   UNL     1       0.897   0.430  22.911  0.00  0.00    -0.211 NA
ATOM     14  C   UNL     1       1.291   0.810  23.528  0.00  0.00    +0.237 A 
ATOM     15  N   UNL     1       0.865   1.250  24.080  0.00  0.00    -0.200 NA
ATOM     36  N   UNL     1       2.111   0.750  23.593  0.00  0.00    -0.212 NA
BRANCH  10   7
ATOM      4  C   UNL     1       4.999   0.131  23.234  0.00  0.00    +0.048 A 
ATOM      5  C   UNL     1       4.517  -0.482  23.506  0.00  0.00    +0.015 A 
ATOM      6  C   UNL     1       3.698  -0.422  23.441  0.00  0.00    +0.003 A 
ATOM      7  C   UNL     1       3.358   0.250  23.105  0.00  0.00    +0.018 A 
ATOM      8  C   UNL     1       3.838   0.863  22.833  0.00  0.00    +0.003 A 
ATOM      9  C   UNL     1       4.659   0.803  22.897  0.00  0.00    +0.015 A 
BRANCH   4   2
ATOM      1  C   UNL     1       6.208   0.416  23.938  0.00  0.00    +0.112 C 
ATOM      2  N   UNL     1       5.819   0.071  23.298  0.00  0.00    -0.304 N 
ATOM      3  C   UNL     1       6.250  -0.334  22.723  0.00  0.00    +0.112 C 
ENDBRANCH   4   2
ENDBRANCH  10   7
ENDBRANCH  16  15
BRANCH  20  24
ATOM     24  N   UNL     1      -2.634   0.911  24.714  0.00  0.00    -0.074 NA
BRANCH  24  25
ATOM     25  S   UNL     1      -3.087   0.237  24.567  0.00  0.00    +0.078 S 
ATOM     26  O   UNL     1      -3.164   0.462  23.777  0.00  0.00    -0.152 OA
ATOM     27  O   UNL     1      -3.009   0.013  25.357  0.00  0.00    -0.152 OA
BRANCH  25  28
ATOM     28  C   UNL     1      -3.540  -0.436  24.420  0.00  0.00    +0.133 A 
ATOM     29  C   UNL     1      -3.169  -1.148  24.227  0.00  0.00    +0.021 A 
ATOM     30  C   UNL     1      -3.622  -1.822  24.080  0.00  0.00    +0.001 A 
ATOM     31  C   UNL     1      -4.445  -1.784  24.125  0.00  0.00    +0.001 A 
ATOM     32  C   UNL     1      -4.815  -1.073  24.318  0.00  0.00    +0.012 A 
ATOM     33  C   UNL     1      -4.363  -0.399  24.466  0.00  0.00    +0.087 A 
BRANCH  33  34
ATOM     34  C   UNL     1      -4.733   0.313  24.659  0.00  0.00    +0.102 C 
ATOM     35  N   UNL     1      -5.104   1.024  24.851  0.00  0.00    -0.191 NA
ENDBRANCH  33  34
ENDBRANCH  25  28
ENDBRANCH  24  25
ENDBRANCH  20  24
TORSDOF 7
ENDMDL
MODEL 4
REMARK VINA RESULT:      -6.5      1.997      7.431
REMARK  Name = 
REMARK  7 active torsions:
REMARK  status: ('A' for Active; 'I' for Inactive)
REMARK    1  A    between atoms: N_2  and  C_4
REMARK    2  A    between atoms: C_7  and  C_10
REMARK    3  A    between atoms: N_15  and  C_16
REMARK    4  A    between atoms: C_20  and  N_24
REMARK    5  A    between atoms: N_24  and  S_25
REMARK    6  A    between atoms: S_25  and  C_28
REMARK    7  A    between atoms: C_33  and  C_34
REMARK                            x       y       z     vdW  Elec       q    Type
REMARK                         _______ _______ _______ _____ _____    ______ ____
ROOT
ATOM     16  C   UNL     1      -0.563   0.157  24.137  0.00  0.00    +0.154 C 
ATOM     17  C   UNL     1      -0.468  -0.645  24.303  0.00  0.00    +0.166 C 
ATOM     18  O   UNL     1       0.253  -0.888  23.983  0.00  0.00    -0.350 OA
ATOM     19  C   UNL     1       0.603  -0.237  23.620  0.00  0.00    +0.164 C 
ATOM     20  C   UNL     1       1.265   0.017  23.197  0.00  0.00    +0.157 C 
ATOM     21  C   UNL     1       1.170   0.819  23.030  0.00  0.00    +0.164 C 
ATOM     22  O   UNL     1       0.449   1.062  23.350  0.00  0.00    -0.350 OA
ATOM     23  C   UNL     1       0.099   0.410  23.714  0.00  0.00    +0.166 C 
ENDROOT
BRANCH  16  15
ATOM     10  C   UNL     1      -3.383   0.489  24.462  0.00  0.00    +0.086 A 
ATOM     11  C   UNL     1      -3.505  -0.279  24.189  0.00  0.00    +0.040 A 
ATOM     12  C   UNL     1      -2.861  -0.747  23.972  0.00  0.00    +0.103 A 
ATOM     13  N   UNL     1      -2.095  -0.446  24.026  0.00  0.00    -0.211 NA
ATOM     14  C   UNL     1      -1.973   0.324  24.300  0.00  0.00    +0.237 A 
ATOM     15  N   UNL     1      -1.207   0.625  24.355  0.00  0.00    -0.200 NA
ATOM     36  N   UNL     1      -2.617   0.791  24.517  0.00  0.00    -0.212 NA
BRANCH  10   7
ATOM      4  C   UNL     1      -5.315   1.892  25.115  0.00  0.00    +0.048 A 
ATOM      5  C   UNL     1      -5.222   1.139  25.441  0.00  0.00    +0.015 A 
ATOM      6  C   UNL     1      -4.579   0.672  25.223  0.00  0.00    +0.003 A 
ATOM      7  C   UNL     1      -4.027   0.956  24.680  0.00  0.00    +0.018 A 
ATOM      8  C   UNL     1      -4.119   1.709  24.354  0.00  0.00    +0.003 A 
ATOM      9  C   UNL     1      -4.763   2.176  24.572  0.00  0.00    +0.015 A 
BRANCH   4   2
ATOM      1  C   UNL     1      -5.834   3.099  25.675  0.00  0.00    +0.112 C 
ATOM      2  N   UNL     1      -5.959   2.359  25.333  0.00  0.00    -0.304 N 
ATOM      3  C   UNL     1      -6.728   2.086  25.208  0.00  0.00    +0.112 C 
ENDBRANCH   4   2
ENDBRANCH  10   7
ENDBRANCH  16  15
BRANCH  20  24
ATOM     24  N   UNL     1       1.909  -0.450  22.979  0.00  0.00    -0.074 NA
BRANCH  24  25
ATOM     25  S   UNL     1       2.666  -0.124  22.953  0.00  0.00    +0.078 S 
ATOM     26  O   UNL     1       2.684  -0.103  23.778  0.00  0.00    -0.152 OA
ATOM     27  O   UNL     1       2.647  -0.145  22.129  0.00  0.00    -0.152 OA
BRANCH  25  28
ATOM     28  C   UNL     1       3.423   0.203  22.929  0.00  0.00    +0.133 A 
ATOM     29  C   UNL     1       3.533   0.967  22.639  0.00  0.00    +0.021 A 
ATOM     30  C   UNL     1       4.290   1.294  22.614  0.00  0.00    +0.001 A 
ATOM     31  C   UNL     1       4.937   0.856  22.879  0.00  0.00    +0.001 A 
ATOM     32  C   UNL     1       4.827   0.092  23.168  0.00  0.00    +0.012 A 
ATOM     33  C   UNL     1       4.070  -0.235  23.193  0.00  0.00    +0.087 A 
BRANCH  33  34
ATOM     34  C   UNL     1       3.961  -1.000  23.483  0.00  0.00    +0.102 C 
ATOM     35  N   UNL     1       3.851  -1.764  23.773  0.00  0.00    -0.191 NA
ENDBRANCH  33  34
ENDBRANCH  25  28
ENDBRANCH  24  25
ENDBRANCH  20  24
TORSDOF 7
ENDMDL
MODEL 5
REMARK VINA RESULT:      -6.1      1.411      2.214
REMARK  Name = 
REMARK  7 active torsions:
REMARK  status: ('A' for Active; 'I' for Inactive)
REMARK    1  A    between atoms: N_2  and  C_4
REMARK    2  A    between atoms: C_7  and  C_10
REMARK    3  A    between atoms: N_15  and  C_16
REMARK    4  A    between atoms: C_20  and  N_24
REMARK    5  A    between atoms: N_24  and  S_25
REMARK    6  A    between atoms: S_25  and  C_28
REMARK    7  A    between atoms: C_33  and  C_34
REMARK                            x       y       z     vdW  Elec       q    Type
REMARK                         _______ _______ _______ _____ _____    ______ ____
ROOT
ATOM     16  C   UNL     1      -0.974   2.852  24.965  0.00  0.00    +0.154 C 
ATOM     17  C   UNL     1      -1.085   2.816  25.781  0.00  0.00    +0.166 C 
ATOM     18  O   UNL     1      -1.868   3.018  25.942  0.00  0.00    -0.350 OA
ATOM     19  C   UNL     1      -2.242   3.180  25.225  0.00  0.00    +0.164 C 
ATOM     20  C   UNL     1      -2.956   3.405  24.880  0.00  0.00    +0.157 C 
ATOM     21  C   UNL     1      -2.846   3.441  24.063  0.00  0.00    +0.164 C 
ATOM     22  O   UNL     1      -2.063   3.239  23.903  0.00  0.00    -0.350 OA
ATOM     23  C   UNL     1      -1.689   3.077  24.621  0.00  0.00    +0.166 C 
ENDROOT
BRANCH  16  15
ATOM     10  C   UNL     1       0.862   0.969  23.844  0.00  0.00    +0.086 A 
ATOM     11  C   UNL     1       0.375   0.350  24.088  0.00  0.00    +0.040 A 
ATOM     12  C   UNL     1      -0.328   0.510  24.490  0.00  0.00    +0.103 A 
ATOM     13  N   UNL     1      -0.544   1.291  24.649  0.00  0.00    -0.211 NA
ATOM     14  C   UNL     1      -0.056   1.911  24.404  0.00  0.00    +0.237 A 
ATOM     15  N   UNL     1      -0.272   2.691  24.563  0.00  0.00    -0.200 NA
ATOM     36  N   UNL     1       0.646   1.750  24.003  0.00  0.00    -0.212 NA
BRANCH  10   7
ATOM      4  C   UNL     1       2.969   0.487  22.639  0.00  0.00    +0.048 A 
ATOM      5  C   UNL     1       2.317  -0.012  22.548  0.00  0.00    +0.015 A 
ATOM      6  C   UNL     1       1.616   0.149  22.950  0.00  0.00    +0.003 A 
ATOM      7  C   UNL     1       1.563   0.809  23.443  0.00  0.00    +0.018 A 
ATOM      8  C   UNL     1       2.214   1.307  23.534  0.00  0.00    +0.003 A 
ATOM      9  C   UNL     1       2.917   1.147  23.132  0.00  0.00    +0.015 A 
BRANCH   4   2
ATOM      1  C   UNL     1       3.666   0.245  21.416  0.00  0.00    +0.112 C 
ATOM      2  N   UNL     1       3.671   0.326  22.237  0.00  0.00    -0.304 N 
ATOM      3  C   UNL     1       4.377   0.246  22.656  0.00  0.00    +0.112 C 
ENDBRANCH   4   2
ENDBRANCH  10   7
ENDBRANCH  16  15
BRANCH  20  24
ATOM     24  N   UNL     1      -3.659   3.566  25.282  0.00  0.00    -0.074 NA
BRANCH  24  25
ATOM     25  S   UNL     1      -4.296   3.045  25.224  0.00  0.00    +0.078 S 
ATOM     26  O   UNL     1      -4.182   2.819  26.009  0.00  0.00    -0.152 OA
ATOM     27  O   UNL     1      -4.410   3.271  24.439  0.00  0.00    -0.152 OA
BRANCH  25  28
ATOM     28  C   UNL     1      -4.933   2.524  25.168  0.00  0.00    +0.133 A 
ATOM     29  C   UNL     1      -4.809   1.745  24.923  0.00  0.00    +0.021 A 
ATOM     30  C   UNL     1      -5.445   1.224  24.866  0.00  0.00    +0.001 A 
ATOM     31  C   UNL     1      -6.207   1.481  25.054  0.00  0.00    +0.001 A 
ATOM     32  C   UNL     1      -6.331   2.258  25.298  0.00  0.00    +0.012 A 
ATOM     33  C   UNL     1      -5.695   2.780  25.355  0.00  0.00    +0.087 A 
BRANCH  33  34
ATOM     34  C   UNL     1      -5.819   3.558  25.600  0.00  0.00    +0.102 C 
ATOM     35  N   UNL     1      -5.944   4.336  25.845  0.00  0.00    -0.191 NA
ENDBRANCH  33  34
ENDBRANCH  25  28
ENDBRANCH  24  25
ENDBRANCH  20  24
TORSDOF 7
ENDMDL
MODEL 6
REMARK VINA RESULT:      -5.4     16.235     17.524
REMARK  Name = 
REMARK  7 active torsions:
REMARK  status: ('A' for Active; 'I' for Inactive)
REMARK    1  A    between atoms: N_2  and  C_4
REMARK    2  A    between atoms: C_7  and  C_10
REMARK    3  A    between atoms: N_15  and  C_16
REMARK    4  A    between atoms: C_20  and  N_24
REMARK    5  A    between atoms: N_24  and  S_25
REMARK    6  A    between atoms: S_25  and  C_28
REMARK    7  A    between atoms: C_33  and  C_34
REMARK                            x       y       z     vdW  Elec       q    Type
REMARK                         _______ _______ _______ _____ _____    ______ ____
ROOT
ATOM     16  C   UNL     1      -5.716 -10.238  11.331  0.00  0.00    +0.154 C 
ATOM     17  C   UNL     1      -5.627 -10.780  10.716  0.00  0.00    +0.166 C 
ATOM     18  O   UNL     1      -6.090 -10.525  10.083  0.00  0.00    -0.350 OA
ATOM     19  C   UNL     1      -6.465  -9.826  10.306  0.00  0.00    +0.164 C 
ATOM     20  C   UNL     1      -6.983  -9.236  10.053  0.00  0.00    +0.157 C 
ATOM     21  C   UNL     1      -7.072  -8.693  10.668  0.00  0.00    +0.164 C 
ATOM     22  O   UNL     1      -6.610  -8.948  11.301  0.00  0.00    -0.350 OA
ATOM     23  C   UNL     1      -6.234  -9.648  11.077  0.00  0.00    +0.166 C 
ENDROOT
BRANCH  16  15
ATOM     10  C   UNL     1      -3.344 -10.440  12.913  0.00  0.00    +0.086 A 
ATOM     11  C   UNL     1      -2.888 -10.461  12.226  0.00  0.00    +0.040 A 
ATOM     12  C   UNL     1      -3.253 -10.420  11.487  0.00  0.00    +0.103 A 
ATOM     13  N   UNL     1      -4.074 -10.359  11.435  0.00  0.00    -0.211 NA
ATOM     14  C   UNL     1      -4.530 -10.339  12.122  0.00  0.00    +0.237 A 
ATOM     15  N   UNL     1      -5.351 -10.278  12.070  0.00  0.00    -0.200 NA
ATOM     36  N   UNL     1      -4.166 -10.379  12.861  0.00  0.00    -0.212 NA
BRANCH  10   7
ATOM      4  C   UNL     1      -2.250 -10.562  15.130  0.00  0.00    +0.048 A 
ATOM      5  C   UNL     1      -1.824 -10.302  14.472  0.00  0.00    +0.015 A 
ATOM      6  C   UNL     1      -2.188 -10.261  13.734  0.00  0.00    +0.003 A 
ATOM      7  C   UNL     1      -2.980 -10.481  13.651  0.00  0.00    +0.018 A 
ATOM      8  C   UNL     1      -3.406 -10.741  14.308  0.00  0.00    +0.003 A 
ATOM      9  C   UNL     1      -3.041 -10.781  15.047  0.00  0.00    +0.015 A 
BRANCH   4   2
ATOM      1  C   UNL     1      -1.063 -10.652  15.920  0.00  0.00    +0.112 C 
ATOM      2  N   UNL     1      -1.885 -10.602  15.868  0.00  0.00    -0.304 N 
ATOM      3  C   UNL     1      -2.342 -10.593  16.555  0.00  0.00    +0.112 C 
ENDBRANCH   4   2
ENDBRANCH  10   7
ENDBRANCH  16  15
BRANCH  20  24
ATOM     24  N   UNL     1      -7.348  -9.195   9.314  0.00  0.00    -0.074 NA
BRANCH  24  25
ATOM     25  S   UNL     1      -7.758  -8.514   9.092  0.00  0.00    +0.078 S 
ATOM     26  O   UNL     1      -8.264  -8.610   9.737  0.00  0.00    -0.152 OA
ATOM     27  O   UNL     1      -7.251  -8.419   8.448  0.00  0.00    -0.152 OA
BRANCH  25  28
ATOM     28  C   UNL     1      -8.168  -7.833   8.872  0.00  0.00    +0.133 A 
ATOM     29  C   UNL     1      -7.857  -7.089   9.047  0.00  0.00    +0.021 A 
ATOM     30  C   UNL     1      -8.267  -6.409   8.826  0.00  0.00    +0.001 A 
ATOM     31  C   UNL     1      -8.989  -6.471   8.431  0.00  0.00    +0.001 A 
ATOM     32  C   UNL     1      -9.299  -7.215   8.256  0.00  0.00    +0.012 A 
ATOM     33  C   UNL     1      -8.889  -7.896   8.476  0.00  0.00    +0.087 A 
BRANCH  33  34
ATOM     34  C   UNL     1      -9.201  -8.640   8.301  0.00  0.00    +0.102 C 
ATOM     35  N   UNL     1      -9.512  -9.383   8.126  0.00  0.00    -0.191 NA
ENDBRANCH  33  34
ENDBRANCH  25  28
ENDBRANCH  24  25
ENDBRANCH  20  24
TORSDOF 7
ENDMDL
MODEL 7
REMARK VINA RESULT:      -4.8     15.542     16.457
REMARK  Name = 
REMARK  7 active torsions:
REMARK  status: ('A' for Active; 'I' for Inactive)
REMARK    1  A    between atoms: N_2  and  C_4
REMARK    2  A    between atoms: C_7  and  C_10
REMARK    3  A    between atoms: N_15  and  C_16
REMARK    4  A    between atoms: C_20  and  N_24
REMARK    5  A    between atoms: N_24  and  S_25
REMARK    6  A    between atoms: S_25  and  C_28
REMARK    7  A    between atoms: C_33  and  C_34
REMARK                            x       y       z     vdW  Elec       q    Type
REMARK                         _______ _______ _______ _____ _____    ______ ____
ROOT
ATOM     16  C   UNL     1      -7.594 -10.467  13.982  0.00  0.00    +0.154 C 
ATOM     17  C   UNL     1      -8.347 -10.664  13.711  0.00  0.00    +0.166 C 
ATOM     18  O   UNL     1      -8.855 -10.678  14.360  0.00  0.00    -0.350 OA
ATOM     19  C   UNL     1      -8.417 -10.489  15.032  0.00  0.00    +0.164 C 
ATOM     20  C   UNL     1      -8.458 -10.381  15.849  0.00  0.00    +0.157 C 
ATOM     21  C   UNL     1      -7.705 -10.183  16.120  0.00  0.00    +0.164 C 
ATOM     22  O   UNL     1      -7.197 -10.170  15.470  0.00  0.00    -0.350 OA
ATOM     23  C   UNL     1      -7.637 -10.359  14.798  0.00  0.00    +0.166 C 
ENDROOT
BRANCH  16  15
ATOM     10  C   UNL     1      -6.270  -9.381  11.693  0.00  0.00    +0.086 A 
ATOM     11  C   UNL     1      -6.963  -8.989  11.477  0.00  0.00    +0.040 A 
ATOM     12  C   UNL     1      -7.641  -9.065  11.942  0.00  0.00    +0.103 A 
ATOM     13  N   UNL     1      -7.626  -9.532  12.622  0.00  0.00    -0.211 NA
ATOM     14  C   UNL     1      -6.931  -9.924  12.837  0.00  0.00    +0.237 A 
ATOM     15  N   UNL     1      -6.916 -10.391  13.517  0.00  0.00    -0.200 NA
ATOM     36  N   UNL     1      -6.254  -9.848  12.373  0.00  0.00    -0.212 NA
BRANCH  10   7
ATOM      4  C   UNL     1      -4.237  -9.154  10.299  0.00  0.00    +0.048 A 
ATOM      5  C   UNL     1      -4.787  -8.539  10.331  0.00  0.00    +0.015 A 
ATOM      6  C   UNL     1      -5.464  -8.615  10.795  0.00  0.00    +0.003 A 
ATOM      7  C   UNL     1      -5.593  -9.305  11.228  0.00  0.00    +0.018 A 
ATOM      8  C   UNL     1      -5.044  -9.920  11.196  0.00  0.00    +0.003 A 
ATOM      9  C   UNL     1      -4.366  -9.845  10.731  0.00  0.00    +0.015 A 
BRANCH   4   2
ATOM      1  C   UNL     1      -2.814  -9.143  10.180  0.00  0.00    +0.112 C 
ATOM      2  N   UNL     1      -3.560  -9.078   9.834  0.00  0.00    -0.304 N 
ATOM      3  C   UNL     1      -3.629  -8.938   9.024  0.00  0.00    +0.112 C 
ENDBRANCH   4   2
ENDBRANCH  10   7
ENDBRANCH  16  15
BRANCH  20  24
ATOM     24  N   UNL     1      -9.136 -10.456  16.313  0.00  0.00    -0.074 NA
BRANCH  24  25
ATOM     25  S   UNL     1      -9.484  -9.787  16.648  0.00  0.00    +0.078 S 
ATOM     26  O   UNL     1     -10.021  -9.754  16.022  0.00  0.00    -0.152 OA
ATOM     27  O   UNL     1      -8.947  -9.821  17.274  0.00  0.00    -0.152 OA
BRANCH  25  28
ATOM     28  C   UNL     1      -9.833  -9.118  16.982  0.00  0.00    +0.133 A 
ATOM     29  C   UNL     1      -9.654  -8.369  16.686  0.00  0.00    +0.021 A 
ATOM     30  C   UNL     1     -10.002  -7.700  17.019  0.00  0.00    +0.001 A 
ATOM     31  C   UNL     1     -10.530  -7.779  17.648  0.00  0.00    +0.001 A 
ATOM     32  C   UNL     1     -10.709  -8.528  17.944  0.00  0.00    +0.012 A 
ATOM     33  C   UNL     1     -10.361  -9.198  17.611  0.00  0.00    +0.087 A 
BRANCH  33  34
ATOM     34  C   UNL     1     -10.540  -9.947  17.906  0.00  0.00    +0.102 C 
ATOM     35  N   UNL     1     -10.720 -10.695  18.202  0.00  0.00    -0.191 NA
ENDBRANCH  33  34
ENDBRANCH  25  28
ENDBRANCH  24  25
ENDBRANCH  20  24
TORSDOF 7
ENDMDL
