MODEL 1
REMARK VINA RESULT:     -10.1      0.000      0.000
REMARK  Name = 
REMARK  10 active torsions:
REMARK  status: ('A' for Active; 'I' for Inactive)
REMARK    1  A    between atoms: S_2  and  C_3
REMARK    2  A    between atoms: C_3  and  C_4
REMARK    3  A    between atoms: C_9  and  N_10
REMARK    4  A    between atoms: N_13  and  C_14
REMARK    5  A    between atoms: C_14  and  C_15
REMARK    6  A    between atoms: C_17  and  C_18
REMARK    7  A    between atoms: N_20  and  C_21
REMARK    8  A    between atoms: C_21  and  C_22
REMARK    9  A    between atoms: C_21  and  C_29
REMARK   10  A    between atoms: C_22  and  C_23
REMARK                            x       y       z     vdW  Elec       q    Type
REMARK                         _______ _______ _______ _____ _____    ______ ____
ROOT
ATOM      4  C   UNL     1      -0.696   2.629  25.451  0.00  0.00    +0.237 C 
ATOM      5  O   UNL     1      -0.081   2.865  25.948  0.00  0.00    -0.274 OA
ATOM      6  N   UNL     1      -0.940   1.841  25.444  0.00  0.00    -0.271 N 
ATOM      7  C   UNL     1      -0.624   1.230  25.899  0.00  0.00    +0.096 C 
ATOM      8  C   UNL     1      -1.032   0.537  25.716  0.00  0.00    +0.045 C 
ATOM      9  C   UNL     1      -1.601   0.720  25.147  0.00  0.00    +0.126 C 
ATOM     17  C   UNL     1      -1.544   1.526  24.979  0.00  0.00    +0.174 C 
ENDROOT
BRANCH   9  10
ATOM     10  N   UNL     1      -2.133   0.190  24.806  0.00  0.00    -0.187 NA
ATOM     11  C   UNL     1      -2.162  -0.592  25.068  0.00  0.00    +0.340 C 
ATOM     12  O   UNL     1      -1.657  -0.844  25.670  0.00  0.00    -0.249 OA
ATOM     13  N   UNL     1      -2.693  -1.122  24.727  0.00  0.00    -0.182 NA
BRANCH  13  14
ATOM     14  C   UNL     1      -2.722  -1.904  24.989  0.00  0.00    +0.143 C 
BRANCH  14  15
ATOM     15  C   UNL     1      -3.425  -2.332  24.935  0.00  0.00    -0.003 C 
ATOM     16  C   UNL     1      -3.503  -2.929  24.370  0.00  0.00    -0.003 C 
ENDBRANCH  14  15
ENDBRANCH  13  14
ENDBRANCH   9  10
BRANCH  17  18
ATOM     18  C   UNL     1      -2.010   1.942  24.440  0.00  0.00    +0.262 C 
ATOM     19  O   UNL     1      -1.653   2.404  23.856  0.00  0.00    -0.271 OA
ATOM     20  N   UNL     1      -2.832   1.897  24.485  0.00  0.00    -0.196 NA
BRANCH  20  21
ATOM     21  C   UNL     1      -3.298   2.315  23.945  0.00  0.00    +0.179 C 
BRANCH  21  29
ATOM     29  C   UNL     1      -3.275   2.121  23.144  0.00  0.00    +0.281 C 
ATOM     30  N   UNL     1      -3.138   2.707  22.581  0.00  0.00    -0.086 NA
ATOM     31  O   UNL     1      -3.390   1.338  22.905  0.00  0.00    -0.270 OA
ENDBRANCH  21  29
BRANCH  21  22
ATOM     22  C   UNL     1      -3.786   2.926  24.207  0.00  0.00    +0.057 C 
BRANCH  22  23
ATOM     23  C   UNL     1      -4.434   2.758  24.689  0.00  0.00    -0.020 A 
ATOM     24  C   UNL     1      -4.993   2.200  24.450  0.00  0.00    -0.004 A 
ATOM     25  C   UNL     1      -5.640   2.033  24.932  0.00  0.00    -0.000 A 
ATOM     26  C   UNL     1      -5.731   2.424  25.653  0.00  0.00    -0.000 A 
ATOM     27  C   UNL     1      -5.172   2.984  25.891  0.00  0.00    -0.000 A 
ATOM     28  C   UNL     1      -4.525   3.151  25.409  0.00  0.00    -0.004 A 
ENDBRANCH  22  23
ENDBRANCH  21  22
ENDBRANCH  20  21
ENDBRANCH  17  18
BRANCH   4   3
ATOM      3  C   UNL     1      -1.066   3.181  24.963  0.00  0.00    +0.143 C 
BRANCH   3   2
ATOM      1  C   UNL     1      -1.098   4.598  25.143  0.00  0.00    +0.070 C 
ATOM      2  S   UNL     1      -0.727   3.924  24.848  0.00  0.00    -0.130 S 
ENDBRANCH   3   2
ENDBRANCH   4   3
TORSDOF 10
ENDMDL
MODEL 2
REMARK VINA RESULT:      -9.2      1.587      3.729
REMARK  Name = 
REMARK  10 active torsions:
REMARK  status: ('A' for Active; 'I' for Inactive)
REMARK    1  A    between atoms: S_2  and  C_3
REMARK    2  A    between atoms: C_3  and  C_4
REMARK    3  A    between atoms: C_9  and  N_10
REMARK    4  A    between atoms: N_13  and  C_14
REMARK    5  A    between atoms: C_14  and  C_15
REMARK    6  A    between atoms: C_17  and  C_18
REMARK    7  A    between atoms: N_20  and  C_21
REMARK    8  A    between atoms: C_21  and  C_22
REMARK    9  A    between atoms: C_21  and  C_29
REMARK   10  A    between atoms: C_22  and  C_23
REMARK                            x       y       z     vdW  Elec       q    Type
REMARK                         _______ _______ _______ _____ _____    ______ ____
ROOT
ATOM      4  C   UNL     1      -1.053  -0.657  24.291  0.00  0.00    +0.237 C 
ATOM      5  O   UNL     1      -0.934  -1.467  24.183  0.00  0.00    -0.274 OA
ATOM      6  N   UNL     1      -1.799  -0.376  24.502  0.00  0.00    -0.271 N 
ATOM      7  C   UNL     1      -2.475  -0.833  24.623  0.00  0.00    +0.096 C 
ATOM      8  C   UNL     1      -3.094  -0.326  24.824  0.00  0.00    +0.045 C 
ATOM      9  C   UNL     1      -2.800   0.445  24.827  0.00  0.00    +0.126 C 
ATOM     17  C   UNL     1      -2.000   0.414  24.628  0.00  0.00    +0.174 C 
ENDROOT
BRANCH   9  10
ATOM     10  N   UNL     1      -3.232   1.127  24.999  0.00  0.00    -0.187 NA
ATOM     11  C   UNL     1      -4.056   1.104  25.004  0.00  0.00    +0.340 C 
ATOM     12  O   UNL     1      -4.450   0.398  24.837  0.00  0.00    -0.249 OA
ATOM     13  N   UNL     1      -4.487   1.785  25.177  0.00  0.00    -0.182 NA
BRANCH  13  14
ATOM     14  C   UNL     1      -5.312   1.762  25.182  0.00  0.00    +0.143 C 
BRANCH  14  15
ATOM     15  C   UNL     1      -5.745   2.459  25.107  0.00  0.00    -0.003 C 
ATOM     16  C   UNL     1      -5.849   2.953  25.760  0.00  0.00    -0.003 C 
ENDBRANCH  14  15
ENDBRANCH  13  14
ENDBRANCH   9  10
BRANCH  17  18
ATOM     18  C   UNL     1      -1.491   1.061  24.566  0.00  0.00    +0.262 C 
ATOM     19  O   UNL     1      -1.096   1.209  23.856  0.00  0.00    -0.271 OA
ATOM     20  N   UNL     1      -1.378   1.560  25.213  0.00  0.00    -0.196 NA
BRANCH  20  21
ATOM     21  C   UNL     1      -0.868   2.207  25.150  0.00  0.00    +0.179 C 
BRANCH  21  29
ATOM     29  C   UNL     1      -0.212   2.265  25.646  0.00  0.00    +0.281 C 
ATOM     30  N   UNL     1      -0.302   2.179  26.461  0.00  0.00    -0.086 NA
ATOM     31  O   UNL     1       0.536   2.411  25.327  0.00  0.00    -0.270 OA
ENDBRANCH  21  29
BRANCH  21  22
ATOM     22  C   UNL     1      -1.015   2.795  24.590  0.00  0.00    +0.057 C 
BRANCH  22  23
ATOM     23  C   UNL     1      -1.220   3.556  24.835  0.00  0.00    -0.020 A 
ATOM     24  C   UNL     1      -1.878   3.671  25.318  0.00  0.00    -0.004 A 
ATOM     25  C   UNL     1      -2.082   4.432  25.562  0.00  0.00    -0.000 A 
ATOM     26  C   UNL     1      -1.628   5.078  25.324  0.00  0.00    -0.000 A 
ATOM     27  C   UNL     1      -0.969   4.962  24.840  0.00  0.00    -0.000 A 
ATOM     28  C   UNL     1      -0.765   4.202  24.596  0.00  0.00    -0.004 A 
ENDBRANCH  22  23
ENDBRANCH  21  22
ENDBRANCH  20  21
ENDBRANCH  17  18
BRANCH   4   3
ATOM      3  C   UNL     1      -0.426  -0.132  24.189  0.00  0.00    +0.143 C 
BRANCH   3   2
ATOM      1  C   UNL     1       0.664  -0.288  23.278  0.00  0.00    +0.070 C 
ATOM      2  S   UNL     1       0.329  -0.416  24.021  0.00  0.00    -0.130 S 
ENDBRANCH   3   2
ENDBRANCH   4   3
TORSDOF 10
ENDMDL
MODEL 3
REMARK VINA RESULT:      -9.1      1.443      3.407
REMARK  Name = 
REMARK  10 active torsions:
REMARK  status: ('A' for Active; 'I' for Inactive)
REMARK    1  A    between atoms: S_2  and  C_3
REMARK    2  A    between atoms: C_3  and  C_4
REMARK    3  A    between atoms: C_9  and  N_10
REMARK    4  A    between atoms: N_13  and  C_14
REMARK    5  A    between atoms: C_14  and  C_15
REMARK    6  A    between atoms: C_17  and  C_18
REMARK    7  A    between atoms: N_20  and  C_21
REMARK    8  A    between atoms: C_21  and  C_22
REMARK    9  A    between atoms: C_21  and  C_29
REMARK   10  A    between atoms: C_22  and  C_23
REMARK                            x       y       z     vdW  Elec       q    Type
REMARK                         _______ _______ _______ _____ _____    ______ ____
ROOT
ATOM      4  C   UNL     1      -3.258   3.445  25.009  0.00  0.00    +0.237 C 
ATOM      5  O   UNL     1      -3.747   4.110  25.019  0.00  0.00    -0.274 OA
ATOM      6  N   UNL     1      -3.550   2.724  24.736  0.00  0.00    -0.271 N 
ATOM      7  C   UNL     1      -4.314   2.583  24.459  0.00  0.00    +0.096 C 
ATOM      8  C   UNL     1      -4.366   1.788  24.245  0.00  0.00    +0.045 C 
ATOM      9  C   UNL     1      -3.632   1.437  24.390  0.00  0.00    +0.126 C 
ATOM     17  C   UNL     1      -3.129   2.016  24.694  0.00  0.00    +0.174 C 
ENDROOT
BRANCH   9  10
ATOM     10  N   UNL     1      -3.438   0.647  24.255  0.00  0.00    -0.187 NA
ATOM     11  C   UNL     1      -4.029   0.071  24.251  0.00  0.00    +0.340 C 
ATOM     12  O   UNL     1      -4.815   0.286  24.381  0.00  0.00    -0.249 OA
ATOM     13  N   UNL     1      -3.835  -0.718  24.116  0.00  0.00    -0.182 NA
BRANCH  13  14
ATOM     14  C   UNL     1      -4.426  -1.294  24.112  0.00  0.00    +0.143 C 
BRANCH  14  15
ATOM     15  C   UNL     1      -4.276  -2.038  23.788  0.00  0.00    -0.003 C 
ATOM     16  C   UNL     1      -3.949  -2.634  24.256  0.00  0.00    -0.003 C 
ENDBRANCH  14  15
ENDBRANCH  13  14
ENDBRANCH   9  10
BRANCH  17  18
ATOM     18  C   UNL     1      -2.341   1.905  24.916  0.00  0.00    +0.262 C 
ATOM     19  O   UNL     1      -2.073   2.195  25.641  0.00  0.00    -0.271 OA
ATOM     20  N   UNL     1      -1.824   1.504  24.415  0.00  0.00    -0.196 NA
BRANCH  20  21
ATOM     21  C   UNL     1      -1.037   1.393  24.638  0.00  0.00    +0.179 C 
BRANCH  21  29
ATOM     29  C   UNL     1      -0.434   1.779  24.229  0.00  0.00    +0.281 C 
ATOM     30  N   UNL     1       0.223   2.066  24.635  0.00  0.00    -0.086 NA
ATOM     31  O   UNL     1      -0.488   1.877  23.410  0.00  0.00    -0.270 OA
ENDBRANCH  21  29
BRANCH  21  22
ATOM     22  C   UNL     1      -0.853   0.896  25.271  0.00  0.00    +0.057 C 
BRANCH  22  23
ATOM     23  C   UNL     1      -0.708   0.095  25.138  0.00  0.00    -0.020 A 
ATOM     24  C   UNL     1      -0.394  -0.154  24.417  0.00  0.00    -0.004 A 
ATOM     25  C   UNL     1      -0.249  -0.954  24.285  0.00  0.00    -0.000 A 
ATOM     26  C   UNL     1      -0.417  -1.507  24.874  0.00  0.00    -0.000 A 
ATOM     27  C   UNL     1      -0.731  -1.257  25.595  0.00  0.00    -0.000 A 
ATOM     28  C   UNL     1      -0.876  -0.457  25.727  0.00  0.00    -0.004 A 
ENDBRANCH  22  23
ENDBRANCH  21  22
ENDBRANCH  20  21
ENDBRANCH  17  18
BRANCH   4   3
ATOM      3  C   UNL     1      -2.478   3.503  25.270  0.00  0.00    +0.143 C 
BRANCH   3   2
ATOM      1  C   UNL     1      -1.776   4.747  25.303  0.00  0.00    +0.070 C 
ATOM      2  S   UNL     1      -2.229   4.172  25.683  0.00  0.00    -0.130 S 
ENDBRANCH   3   2
ENDBRANCH   4   3
TORSDOF 10
ENDMDL
MODEL 4
REMARK VINA RESULT:      -9.0      1.881      2.895
REMARK  Name = 
REMARK  10 active torsions:
REMARK  status: ('A' for Active; 'I' for Inactive)
REMARK    1  A    between atoms: S_2  and  C_3
REMARK    2  A    between atoms: C_3  and  C_4
REMARK    3  A    between atoms: C_9  and  N_10
REMARK    4  A    between atoms: N_13  and  C_14
REMARK    5  A    between atoms: C_14  and  C_15
REMARK    6  A    between atoms: C_17  and  C_18
REMARK    7  A    between atoms: N_20  and  C_21
REMARK    8  A    between atoms: C_21  and  C_22
REMARK    9  A    between atoms: C_21  and  C_29
REMARK   10  A    between atoms: C_22  and  C_23
REMARK                            x       y       z     vdW  Elec       q    Type
REMARK                         _______ _______ _______ _____ _____    ______ ____
ROOT
ATOM      4  C   UNL     1      -1.975   3.362  25.867  0.00  0.00    +0.237 C 
ATOM      5  O   UNL     1      -1.840   3.836  26.529  0.00  0.00    -0.274 OA
ATOM      6  N   UNL     1      -1.381   2.862  25.590  0.00  0.00    -0.271 N 
ATOM      7  C   UNL     1      -0.627   2.778  25.914  0.00  0.00    +0.096 C 
ATOM      8  C   UNL     1      -0.215   2.222  25.463  0.00  0.00    +0.045 C 
ATOM      9  C   UNL     1      -0.716   1.964  24.860  0.00  0.00    +0.126 C 
ATOM     17  C   UNL     1      -1.435   2.359  24.938  0.00  0.00    +0.174 C 
ENDROOT
BRANCH   9  10
ATOM     10  N   UNL     1      -0.528   1.408  24.281  0.00  0.00    -0.187 NA
ATOM     11  C   UNL     1       0.261   1.258  24.091  0.00  0.00    +0.340 C 
ATOM     12  O   UNL     1       0.863   1.666  24.481  0.00  0.00    -0.249 OA
ATOM     13  N   UNL     1       0.448   0.702  23.512  0.00  0.00    -0.182 NA
BRANCH  13  14
ATOM     14  C   UNL     1       1.237   0.553  23.322  0.00  0.00    +0.143 C 
BRANCH  14  15
ATOM     15  C   UNL     1       1.425  -0.010  22.750  0.00  0.00    -0.003 C 
ATOM     16  C   UNL     1       2.186  -0.039  22.432  0.00  0.00    -0.003 C 
ENDBRANCH  14  15
ENDBRANCH  13  14
ENDBRANCH   9  10
BRANCH  17  18
ATOM     18  C   UNL     1      -2.095   2.267  24.449  0.00  0.00    +0.262 C 
ATOM     19  O   UNL     1      -2.431   2.926  24.083  0.00  0.00    -0.271 OA
ATOM     20  N   UNL     1      -2.416   1.518  24.328  0.00  0.00    -0.196 NA
BRANCH  20  21
ATOM     21  C   UNL     1      -3.075   1.426  23.838  0.00  0.00    +0.179 C 
BRANCH  21  29
ATOM     29  C   UNL     1      -3.032   1.640  23.043  0.00  0.00    +0.281 C 
ATOM     30  N   UNL     1      -3.533   2.222  22.744  0.00  0.00    -0.086 NA
ATOM     31  O   UNL     1      -2.486   1.270  22.546  0.00  0.00    -0.270 OA
ENDBRANCH  21  29
BRANCH  21  22
ATOM     22  C   UNL     1      -3.777   1.122  24.146  0.00  0.00    +0.057 C 
BRANCH  22  23
ATOM     23  C   UNL     1      -3.821   0.328  24.368  0.00  0.00    -0.020 A 
ATOM     24  C   UNL     1      -3.858  -0.261  23.792  0.00  0.00    -0.004 A 
ATOM     25  C   UNL     1      -3.901  -1.053  24.016  0.00  0.00    -0.000 A 
ATOM     26  C   UNL     1      -3.907  -1.258  24.815  0.00  0.00    -0.000 A 
ATOM     27  C   UNL     1      -3.870  -0.668  25.391  0.00  0.00    -0.000 A 
ATOM     28  C   UNL     1      -3.827   0.125  25.168  0.00  0.00    -0.004 A 
ENDBRANCH  22  23
ENDBRANCH  21  22
ENDBRANCH  20  21
ENDBRANCH  17  18
BRANCH   4   3
ATOM      3  C   UNL     1      -2.705   3.388  25.484  0.00  0.00    +0.143 C 
BRANCH   3   2
ATOM      1  C   UNL     1      -3.953   3.815  26.035  0.00  0.00    +0.070 C 
ATOM      2  S   UNL     1      -3.241   3.990  25.657  0.00  0.00    -0.130 S 
ENDBRANCH   3   2
ENDBRANCH   4   3
TORSDOF 10
ENDMDL
MODEL 5
REMARK VINA RESULT:      -8.9      1.642      3.738
REMARK  Name = 
REMARK  10 active torsions:
REMARK  status: ('A' for Active; 'I' for Inactive)
REMARK    1  A    between atoms: S_2  and  C_3
REMARK    2  A    between atoms: C_3  and  C_4
REMARK    3  A    between atoms: C_9  and  N_10
REMARK    4  A    between atoms: N_13  and  C_14
REMARK    5  A    between atoms: C_14  and  C_15
REMARK    6  A    between atoms: C_17  and  C_18
REMARK    7  A    between atoms: N_20  and  C_21
REMARK    8  A    between atoms: C_21  and  C_22
REMARK    9  A    between atoms: C_21  and  C_29
REMARK   10  A    between atoms: C_22  and  C_23
REMARK                            x       y       z     vdW  Elec       q    Type
REMARK                         _______ _______ _______ _____ _____    ______ ____
ROOT
ATOM      4  C   UNL     1      -0.721  -0.804  24.537  0.00  0.00    +0.237 C 
ATOM      5  O   UNL     1      -0.046  -1.261  24.405  0.00  0.00    -0.274 OA
ATOM      6  N   UNL     1      -0.675   0.018  24.501  0.00  0.00    -0.271 N 
ATOM      7  C   UNL     1       0.003   0.460  24.340  0.00  0.00    +0.096 C 
ATOM      8  C   UNL     1      -0.202   1.259  24.359  0.00  0.00    +0.045 C 
ATOM      9  C   UNL     1      -1.008   1.311  24.532  0.00  0.00    +0.126 C 
ATOM     17  C   UNL     1      -1.299   0.544  24.619  0.00  0.00    +0.174 C 
ENDROOT
BRANCH   9  10
ATOM     10  N   UNL     1      -1.443   2.007  24.604  0.00  0.00    -0.187 NA
ATOM     11  C   UNL     1      -1.062   2.717  24.779  0.00  0.00    +0.340 C 
ATOM     12  O   UNL     1      -0.243   2.731  24.881  0.00  0.00    -0.249 OA
ATOM     13  N   UNL     1      -1.498   3.413  24.851  0.00  0.00    -0.182 NA
BRANCH  13  14
ATOM     14  C   UNL     1      -1.116   4.124  25.026  0.00  0.00    +0.143 C 
BRANCH  14  15
ATOM     15  C   UNL     1      -1.551   4.772  25.292  0.00  0.00    -0.003 C 
ATOM     16  C   UNL     1      -1.400   5.524  24.988  0.00  0.00    -0.003 C 
ENDBRANCH  14  15
ENDBRANCH  13  14
ENDBRANCH   9  10
BRANCH  17  18
ATOM     18  C   UNL     1      -2.080   0.340  24.794  0.00  0.00    +0.262 C 
ATOM     19  O   UNL     1      -2.249  -0.097  25.474  0.00  0.00    -0.271 OA
ATOM     20  N   UNL     1      -2.690   0.572  24.291  0.00  0.00    -0.196 NA
BRANCH  20  21
ATOM     21  C   UNL     1      -3.471   0.368  24.467  0.00  0.00    +0.179 C 
BRANCH  21  29
ATOM     29  C   UNL     1      -3.882  -0.150  23.975  0.00  0.00    +0.281 C 
ATOM     30  N   UNL     1      -4.341  -0.752  24.301  0.00  0.00    -0.086 NA
ATOM     31  O   UNL     1      -3.835  -0.065  23.155  0.00  0.00    -0.270 OA
ENDBRANCH  21  29
BRANCH  21  22
ATOM     22  C   UNL     1      -3.838   0.682  25.136  0.00  0.00    +0.057 C 
BRANCH  22  23
ATOM     23  C   UNL     1      -4.425   1.256  25.053  0.00  0.00    -0.020 A 
ATOM     24  C   UNL     1      -4.315   1.885  24.531  0.00  0.00    -0.004 A 
ATOM     25  C   UNL     1      -4.902   2.459  24.449  0.00  0.00    -0.000 A 
ATOM     26  C   UNL     1      -5.598   2.405  24.888  0.00  0.00    -0.000 A 
ATOM     27  C   UNL     1      -5.706   1.775  25.411  0.00  0.00    -0.000 A 
ATOM     28  C   UNL     1      -5.121   1.201  25.493  0.00  0.00    -0.004 A 
ENDBRANCH  22  23
ENDBRANCH  21  22
ENDBRANCH  20  21
ENDBRANCH  17  18
BRANCH   4   3
ATOM      3  C   UNL     1      -1.441  -1.171  24.704  0.00  0.00    +0.143 C 
BRANCH   3   2
ATOM      1  C   UNL     1      -1.650  -2.549  24.387  0.00  0.00    +0.070 C 
ATOM      2  S   UNL     1      -1.458  -1.963  24.934  0.00  0.00    -0.130 S 
ENDBRANCH   3   2
ENDBRANCH   4   3
TORSDOF 10
ENDMDL
MODEL 6
REMARK VINA RESULT:      -8.8      1.852      4.107
REMARK  Name = 
REMARK  10 active torsions:
REMARK  status: ('A' for Active; 'I' for Inactive)
REMARK    1  A    between atoms: S_2  and  C_3
REMARK    2  A    between atoms: C_3  and  C_4
REMARK    3  A    between atoms: C_9  and  N_10
REMARK    4  A    between atoms: N_13  and  C_14
REMARK    5  A    between atoms: C_14  and  C_15
REMARK    6  A    between atoms: C_17  and  C_18
REMARK    7  A    between atoms: N_20  and  C_21
REMARK    8  A    between atoms: C_21  and  C_22
REMARK    9  A    between atoms: C_21  and  C_29
REMARK   10  A    between atoms: C_22  and  C_23
REMARK                            x       y       z     vdW  Elec       q    Type
REMARK                         _______ _______ _______ _____ _____    ______ ____
ROOT
ATOM      4  C   UNL     1      -3.793   2.116  24.203  0.00  0.00    +0.237 C 
ATOM      5  O   UNL     1      -4.192   2.769  23.892  0.00  0.00    -0.274 OA
ATOM      6  N   UNL     1      -3.054   1.905  23.904  0.00  0.00    -0.271 N 
ATOM      7  C   UNL     1      -2.645   2.291  23.300  0.00  0.00    +0.096 C 
ATOM      8  C   UNL     1      -1.932   1.895  23.181  0.00  0.00    +0.045 C 
ATOM      9  C   UNL     1      -1.899   1.264  23.711  0.00  0.00    +0.126 C 
ATOM     17  C   UNL     1      -2.592   1.270  24.158  0.00  0.00    +0.174 C 
ENDROOT
BRANCH   9  10
ATOM     10  N   UNL     1      -1.282   0.722  23.782  0.00  0.00    -0.187 NA
ATOM     11  C   UNL     1      -0.546   0.888  23.447  0.00  0.00    +0.340 C 
ATOM     12  O   UNL     1      -0.428   1.597  23.042  0.00  0.00    -0.249 OA
ATOM     13  N   UNL     1       0.072   0.346  23.518  0.00  0.00    -0.182 NA
BRANCH  13  14
ATOM     14  C   UNL     1       0.808   0.513  23.183  0.00  0.00    +0.143 C 
BRANCH  14  15
ATOM     15  C   UNL     1       1.358  -0.091  23.076  0.00  0.00    -0.003 C 
ATOM     16  C   UNL     1       2.057   0.055  22.661  0.00  0.00    -0.003 C 
ENDBRANCH  14  15
ENDBRANCH  13  14
ENDBRANCH   9  10
BRANCH  17  18
ATOM     18  C   UNL     1      -2.789   0.735  24.755  0.00  0.00    +0.262 C 
ATOM     19  O   UNL     1      -3.007   1.011  25.501  0.00  0.00    -0.271 OA
ATOM     20  N   UNL     1      -2.768  -0.076  24.605  0.00  0.00    -0.196 NA
BRANCH  20  21
ATOM     21  C   UNL     1      -2.965  -0.611  25.203  0.00  0.00    +0.179 C 
BRANCH  21  29
ATOM     29  C   UNL     1      -2.432  -0.762  25.813  0.00  0.00    +0.281 C 
ATOM     30  N   UNL     1      -2.672  -0.689  26.598  0.00  0.00    -0.086 NA
ATOM     31  O   UNL     1      -1.657  -0.987  25.638  0.00  0.00    -0.270 OA
ENDBRANCH  21  29
BRANCH  21  22
ATOM     22  C   UNL     1      -3.695  -0.994  25.188  0.00  0.00    +0.057 C 
BRANCH  22  23
ATOM     23  C   UNL     1      -3.802  -1.663  24.717  0.00  0.00    -0.020 A 
ATOM     24  C   UNL     1      -3.472  -2.384  24.943  0.00  0.00    -0.004 A 
ATOM     25  C   UNL     1      -3.578  -3.051  24.471  0.00  0.00    -0.000 A 
ATOM     26  C   UNL     1      -4.015  -2.999  23.773  0.00  0.00    -0.000 A 
ATOM     27  C   UNL     1      -4.345  -2.277  23.548  0.00  0.00    -0.000 A 
ATOM     28  C   UNL     1      -4.239  -1.609  24.019  0.00  0.00    -0.004 A 
ENDBRANCH  22  23
ENDBRANCH  21  22
ENDBRANCH  20  21
ENDBRANCH  17  18
BRANCH   4   3
ATOM      3  C   UNL     1      -4.135   1.676  24.810  0.00  0.00    +0.143 C 
BRANCH   3   2
ATOM      1  C   UNL     1      -5.543   1.728  25.046  0.00  0.00    +0.070 C 
ATOM      2  S   UNL     1      -4.779   1.978  25.228  0.00  0.00    -0.130 S 
ENDBRANCH   3   2
ENDBRANCH   4   3
TORSDOF 10
ENDMDL
MODEL 7
REMARK VINA RESULT:      -8.7      2.042      3.359
REMARK  Name = 
REMARK  10 active torsions:
REMARK  status: ('A' for Active; 'I' for Inactive)
REMARK    1  A    between atoms: S_2  and  C_3
REMARK    2  A    between atoms: C_3  and  C_4
REMARK    3  A    between atoms: C_9  and  N_10
REMARK    4  A    between atoms: N_13  and  C_14
REMARK    5  A    between atoms: C_14  and  C_15
REMARK    6  A    between atoms: C_17  and  C_18
REMARK    7  A    between atoms: N_20  and  C_21
REMARK    8  A    between atoms: C_21  and  C_22
REMARK    9  A    between atoms: C_21  and  C_29
REMARK   10  A    between atoms: C_22  and  C_23
REMARK                            x       y       z     vdW  Elec       q    Type
REMARK                         _______ _______ _______ _____ _____    ______ ____
ROOT
ATOM      4  C   UNL     1      -3.429  -0.268  25.301  0.00  0.00    +0.237 C 
ATOM      5  O   UNL     1      -3.751  -0.814  25.829  0.00  0.00    -0.274 OA
ATOM      6  N   UNL     1      -2.628  -0.306  25.108  0.00  0.00    -0.271 N 
ATOM      7  C   UNL     1      -2.084  -0.854  25.397  0.00  0.00    +0.096 C 
ATOM      8  C   UNL     1      -1.350  -0.688  25.060  0.00  0.00    +0.045 C 
ATOM      9  C   UNL     1      -1.440  -0.036  24.561  0.00  0.00    +0.126 C 
ATOM     17  C   UNL     1      -2.230   0.200  24.592  0.00  0.00    +0.174 C 
ENDROOT
BRANCH   9  10
ATOM     10  N   UNL     1      -0.846   0.317  24.112  0.00  0.00    -0.187 NA
ATOM     11  C   UNL     1      -0.179  -0.118  23.894  0.00  0.00    +0.340 C 
ATOM     12  O   UNL     1      -0.108  -0.907  24.125  0.00  0.00    -0.249 OA
ATOM     13  N   UNL     1       0.415   0.234  23.445  0.00  0.00    -0.182 NA
BRANCH  13  14
ATOM     14  C   UNL     1       1.082  -0.201  23.227  0.00  0.00    +0.143 C 
BRANCH  14  15
ATOM     15  C   UNL     1       1.537   0.037  22.582  0.00  0.00    -0.003 C 
ATOM     16  C   UNL     1       2.360   0.047  22.639  0.00  0.00    -0.003 C 
ENDBRANCH  14  15
ENDBRANCH  13  14
ENDBRANCH   9  10
BRANCH  17  18
ATOM     18  C   UNL     1      -2.564   0.831  24.177  0.00  0.00    +0.262 C 
ATOM     19  O   UNL     1      -3.201   0.701  23.669  0.00  0.00    -0.271 OA
ATOM     20  N   UNL     1      -2.259   1.592  24.270  0.00  0.00    -0.196 NA
BRANCH  20  21
ATOM     21  C   UNL     1      -2.593   2.223  23.854  0.00  0.00    +0.179 C 
BRANCH  21  29
ATOM     29  C   UNL     1      -2.529   2.257  23.033  0.00  0.00    +0.281 C 
ATOM     30  N   UNL     1      -3.205   2.333  22.569  0.00  0.00    -0.086 NA
ATOM     31  O   UNL     1      -1.785   2.215  22.676  0.00  0.00    -0.270 OA
ENDBRANCH  21  29
BRANCH  21  22
ATOM     22  C   UNL     1      -2.992   2.820  24.262  0.00  0.00    +0.057 C 
BRANCH  22  23
ATOM     23  C   UNL     1      -2.572   3.343  24.742  0.00  0.00    -0.020 A 
ATOM     24  C   UNL     1      -1.864   3.671  24.476  0.00  0.00    -0.004 A 
ATOM     25  C   UNL     1      -1.446   4.193  24.957  0.00  0.00    -0.000 A 
ATOM     26  C   UNL     1      -1.734   4.388  25.705  0.00  0.00    -0.000 A 
ATOM     27  C   UNL     1      -2.443   4.059  25.971  0.00  0.00    -0.000 A 
ATOM     28  C   UNL     1      -2.862   3.537  25.491  0.00  0.00    -0.004 A 
ENDBRANCH  22  23
ENDBRANCH  21  22
ENDBRANCH  20  21
ENDBRANCH  17  18
BRANCH   4   3
ATOM      3  C   UNL     1      -3.908   0.314  24.967  0.00  0.00    +0.143 C 
BRANCH   3   2
ATOM      1  C   UNL     1      -5.179   0.796  25.406  0.00  0.00    +0.070 C 
ATOM      2  S   UNL     1      -4.729   0.241  24.996  0.00  0.00    -0.130 S 
ENDBRANCH   3   2
ENDBRANCH   4   3
TORSDOF 10
ENDMDL
MODEL 8
REMARK VINA RESULT:      -8.7      1.342      3.597
REMARK  Name = 
REMARK  10 active torsions:
REMARK  status: ('A' for Active; 'I' for Inactive)
REMARK    1  A    between atoms: S_2  and  C_3
REMARK    2  A    between atoms: C_3  and  C_4
REMARK    3  A    between atoms: C_9  and  N_10
REMARK    4  A    between atoms: N_13  and  C_14
REMARK    5  A    between atoms: C_14  and  C_15
REMARK    6  A    between atoms: C_17  and  C_18
REMARK    7  A    between atoms: N_20  and  C_21
REMARK    8  A    between atoms: C_21  and  C_22
REMARK    9  A    between atoms: C_21  and  C_29
REMARK   10  A    between atoms: C_22  and  C_23
REMARK                            x       y       z     vdW  Elec       q    Type
REMARK                         _______ _______ _______ _____ _____    ______ ____
ROOT
ATOM      4  C   UNL     1      -0.337   2.424  24.486  0.00  0.00    +0.237 C 
ATOM      5  O   UNL     1       0.174   3.072  24.468  0.00  0.00    -0.274 OA
ATOM      6  N   UNL     1      -1.134   2.535  24.665  0.00  0.00    -0.271 N 
ATOM      7  C   UNL     1      -1.499   3.254  24.836  0.00  0.00    +0.096 C 
ATOM      8  C   UNL     1      -2.298   3.108  24.981  0.00  0.00    +0.045 C 
ATOM      9  C   UNL     1      -2.427   2.297  24.899  0.00  0.00    +0.126 C 
ATOM     17  C   UNL     1      -1.708   1.943  24.703  0.00  0.00    +0.174 C 
ENDROOT
BRANCH   9  10
ATOM     10  N   UNL     1      -3.149   1.910  24.995  0.00  0.00    -0.187 NA
ATOM     11  C   UNL     1      -3.851   2.343  25.020  0.00  0.00    +0.340 C 
ATOM     12  O   UNL     1      -3.830   3.165  24.949  0.00  0.00    -0.249 OA
ATOM     13  N   UNL     1      -4.572   1.956  25.117  0.00  0.00    -0.182 NA
BRANCH  13  14
ATOM     14  C   UNL     1      -5.274   2.389  25.142  0.00  0.00    +0.143 C 
BRANCH  14  15
ATOM     15  C   UNL     1      -5.958   2.049  25.449  0.00  0.00    -0.003 C 
ATOM     16  C   UNL     1      -6.499   1.680  24.946  0.00  0.00    -0.003 C 
ENDBRANCH  14  15
ENDBRANCH  13  14
ENDBRANCH   9  10
BRANCH  17  18
ATOM     18  C   UNL     1      -1.586   1.138  24.569  0.00  0.00    +0.262 C 
ATOM     19  O   UNL     1      -1.225   0.886  23.871  0.00  0.00    -0.271 OA
ATOM     20  N   UNL     1      -1.823   0.585  25.133  0.00  0.00    -0.196 NA
BRANCH  20  21
ATOM     21  C   UNL     1      -1.700  -0.220  24.999  0.00  0.00    +0.179 C 
BRANCH  21  29
ATOM     29  C   UNL     1      -1.202  -0.650  25.495  0.00  0.00    +0.281 C 
ATOM     30  N   UNL     1      -0.683  -1.206  25.178  0.00  0.00    -0.086 NA
ATOM     31  O   UNL     1      -1.222  -0.524  26.311  0.00  0.00    -0.270 OA
ENDBRANCH  21  29
BRANCH  21  22
ATOM     22  C   UNL     1      -2.077  -0.595  24.368  0.00  0.00    +0.057 C 
BRANCH  22  23
ATOM     23  C   UNL     1      -2.788  -0.994  24.489  0.00  0.00    -0.020 A 
ATOM     24  C   UNL     1      -2.964  -1.307  25.232  0.00  0.00    -0.004 A 
ATOM     25  C   UNL     1      -3.676  -1.706  25.352  0.00  0.00    -0.000 A 
ATOM     26  C   UNL     1      -4.212  -1.793  24.731  0.00  0.00    -0.000 A 
ATOM     27  C   UNL     1      -4.035  -1.479  23.988  0.00  0.00    -0.000 A 
ATOM     28  C   UNL     1      -3.324  -1.081  23.867  0.00  0.00    -0.004 A 
ENDBRANCH  22  23
ENDBRANCH  21  22
ENDBRANCH  20  21
ENDBRANCH  17  18
BRANCH   4   3
ATOM      3  C   UNL     1      -0.050   1.668  24.325  0.00  0.00    +0.143 C 
BRANCH   3   2
ATOM      1  C   UNL     1       1.089   1.271  23.559  0.00  0.00    +0.070 C 
ATOM      2  S   UNL     1       0.762   1.538  24.267  0.00  0.00    -0.130 S 
ENDBRANCH   3   2
ENDBRANCH   4   3
TORSDOF 10
ENDMDL
MODEL 9
REMARK VINA RESULT:      -8.5      1.555      3.184
REMARK  Name = 
REMARK  10 active torsions:
REMARK  status: ('A' for Active; 'I' for Inactive)
REMARK    1  A    between atoms: S_2  and  C_3
REMARK    2  A    between atoms: C_3  and  C_4
REMARK    3  A    between atoms: C_9  and  N_10
REMARK    4  A    between atoms: N_13  and  C_14
REMARK    5  A    between atoms: C_14  and  C_15
REMARK    6  A    between atoms: C_17  and  C_18
REMARK    7  A    between atoms: N_20  and  C_21
REMARK    8  A    between atoms: C_21  and  C_22
REMARK    9  A    between atoms: C_21  and  C_29
REMARK   10  A    between atoms: C_22  and  C_23
REMARK                            x       y       z     vdW  Elec       q    Type
REMARK                         _______ _______ _______ _____ _____    ______ ____
ROOT
ATOM      4  C   UNL     1      -4.989   2.208  25.279  0.00  0.00    +0.237 C 
ATOM      5  O   UNL     1      -5.671   2.357  25.720  0.00  0.00    -0.274 OA
ATOM      6  N   UNL     1      -4.707   1.437  25.205  0.00  0.00    -0.271 N 
ATOM      7  C   UNL     1      -5.044   0.762  25.539  0.00  0.00    +0.096 C 
ATOM      8  C   UNL     1      -4.583   0.112  25.324  0.00  0.00    +0.045 C 
ATOM      9  C   UNL     1      -3.959   0.386  24.858  0.00  0.00    +0.126 C 
ATOM     17  C   UNL     1      -4.036   1.204  24.785  0.00  0.00    +0.174 C 
ENDROOT
BRANCH   9  10
ATOM     10  N   UNL     1      -3.364  -0.077  24.524  0.00  0.00    -0.187 NA
ATOM     11  C   UNL     1      -3.269  -0.861  24.762  0.00  0.00    +0.340 C 
ATOM     12  O   UNL     1      -3.769  -1.182  25.334  0.00  0.00    -0.249 OA
ATOM     13  N   UNL     1      -2.674  -1.325  24.429  0.00  0.00    -0.182 NA
BRANCH  13  14
ATOM     14  C   UNL     1      -2.579  -2.109  24.667  0.00  0.00    +0.143 C 
BRANCH  14  15
ATOM     15  C   UNL     1      -2.008  -2.583  24.307  0.00  0.00    -0.003 C 
ATOM     16  C   UNL     1      -1.252  -2.640  24.634  0.00  0.00    -0.003 C 
ENDBRANCH  14  15
ENDBRANCH  13  14
ENDBRANCH   9  10
BRANCH  17  18
ATOM     18  C   UNL     1      -3.530   1.703  24.364  0.00  0.00    +0.262 C 
ATOM     19  O   UNL     1      -3.835   2.209  23.788  0.00  0.00    -0.271 OA
ATOM     20  N   UNL     1      -2.720   1.694  24.519  0.00  0.00    -0.196 NA
BRANCH  20  21
ATOM     21  C   UNL     1      -2.214   2.193  24.097  0.00  0.00    +0.179 C 
BRANCH  21  29
ATOM     29  C   UNL     1      -2.075   2.058  23.296  0.00  0.00    +0.281 C 
ATOM     30  N   UNL     1      -2.297   2.621  22.737  0.00  0.00    -0.086 NA
ATOM     31  O   UNL     1      -1.712   1.356  23.053  0.00  0.00    -0.270 OA
ENDBRANCH  21  29
BRANCH  21  22
ATOM     22  C   UNL     1      -1.849   2.827  24.478  0.00  0.00    +0.057 C 
BRANCH  22  23
ATOM     23  C   UNL     1      -1.222   2.691  24.996  0.00  0.00    -0.020 A 
ATOM     24  C   UNL     1      -0.531   2.332  24.723  0.00  0.00    -0.004 A 
ATOM     25  C   UNL     1       0.095   2.197  25.242  0.00  0.00    -0.000 A 
ATOM     26  C   UNL     1       0.032   2.420  26.034  0.00  0.00    -0.000 A 
ATOM     27  C   UNL     1      -0.660   2.779  26.306  0.00  0.00    -0.000 A 
ATOM     28  C   UNL     1      -1.286   2.915  25.788  0.00  0.00    -0.004 A 
ENDBRANCH  22  23
ENDBRANCH  21  22
ENDBRANCH  20  21
ENDBRANCH  17  18
BRANCH   4   3
ATOM      3  C   UNL     1      -4.591   2.831  24.913  0.00  0.00    +0.143 C 
BRANCH   3   2
ATOM      1  C   UNL     1      -4.693   4.176  25.384  0.00  0.00    +0.070 C 
ATOM      2  S   UNL     1      -4.939   3.577  24.873  0.00  0.00    -0.130 S 
ENDBRANCH   3   2
ENDBRANCH   4   3
TORSDOF 10
ENDMDL
