MODEL 1
REMARK VINA RESULT:     -12.1      0.000      0.000
REMARK  Name = 
REMARK  4 active torsions:
REMARK  status: ('A' for Active; 'I' for Inactive)
REMARK    1  A    between atoms: C_4  and  C_8
REMARK    2  A    between atoms: N_10  and  C_11
REMARK    3  A    between atoms: C_17  and  C_18
REMARK    4  A    between atoms: C_21  and  N_24
REMARK                            x       y       z     vdW  Elec       q    Type
REMARK                         _______ _______ _______ _____ _____    ______ ____
ROOT
ATOM     11  C   UNL     1      -4.432   2.119  24.898  0.00  0.00    +0.133 C 
ATOM     12  C   UNL     1      -5.124   2.564  24.957  0.00  0.00    +0.202 C 
ATOM     13  O   UNL     1      -5.170   3.386  25.001  0.00  0.00    -0.219 OA
ATOM     14  C   UNL     1      -5.762   2.041  24.963  0.00  0.00    +0.184 C 
ATOM     15  O   UNL     1      -6.559   2.249  25.015  0.00  0.00    -0.220 OA
ATOM     16  C   UNL     1      -5.465   1.274  24.909  0.00  0.00    +0.042 C 
ATOM     17  C   UNL     1      -4.643   1.322  24.869  0.00  0.00    +0.049 C 
ENDROOT
BRANCH  17  18
ATOM     18  C   UNL     1      -4.122   0.684  24.809  0.00  0.00    -0.001 A 
ATOM     19  C   UNL     1      -4.003   0.187  25.457  0.00  0.00    +0.000 A 
ATOM     20  C   UNL     1      -3.482  -0.450  25.397  0.00  0.00    +0.034 A 
ATOM     21  C   UNL     1      -3.080  -0.590  24.691  0.00  0.00    +0.132 A 
ATOM     22  N   UNL     1      -3.199  -0.092  24.042  0.00  0.00    -0.229 NA
ATOM     23  C   UNL     1      -3.720   0.545  24.103  0.00  0.00    +0.096 A 
BRANCH  21  24
ATOM     24  N   UNL     1      -2.559  -1.227  24.631  0.00  0.00    -0.288 N 
ATOM     25  C   UNL     1      -1.750  -1.107  24.734  0.00  0.00    +0.124 C 
ATOM     26  C   UNL     1      -1.228  -1.744  24.674  0.00  0.00    +0.164 C 
ATOM     27  O   UNL     1      -1.516  -2.499  24.511  0.00  0.00    -0.350 OA
ATOM     28  C   UNL     1      -2.326  -2.619  24.407  0.00  0.00    +0.164 C 
ATOM     29  C   UNL     1      -2.848  -1.982  24.467  0.00  0.00    +0.124 C 
ENDBRANCH  21  24
ENDBRANCH  17  18
BRANCH  11  10
ATOM      8  C   UNL     1      -3.426   2.991  25.418  0.00  0.00    +0.284 C 
ATOM      9  O   UNL     1      -3.958   3.264  25.987  0.00  0.00    -0.267 OA
ATOM     10  N   UNL     1      -3.664   2.419  24.874  0.00  0.00    -0.199 NA
BRANCH   8   4
ATOM      1  C   UNL     1      -0.539   3.213  25.640  0.00  0.00    +0.153 C 
ATOM      2  N   UNL     1      -1.331   3.393  25.496  0.00  0.00    -0.253 N 
ATOM      3  N   UNL     1      -1.972   2.885  25.605  0.00  0.00    -0.165 NA
ATOM      4  C   UNL     1      -2.658   3.292  25.394  0.00  0.00    +0.157 A 
ATOM      5  C   UNL     1      -2.441   4.051  25.154  0.00  0.00    +0.040 A 
ATOM      6  C   UNL     1      -1.622   4.114  25.217  0.00  0.00    +0.058 A 
ATOM      7  C   UNL     1      -1.171   4.780  25.034  0.00  0.00    +0.052 C 
ENDBRANCH   8   4
ENDBRANCH  11  10
TORSDOF 4
ENDMDL
MODEL 2
REMARK VINA RESULT:     -11.7      1.669      3.464
REMARK  Name = 
REMARK  4 active torsions:
REMARK  status: ('A' for Active; 'I' for Inactive)
REMARK    1  A    between atoms: C_4  and  C_8
REMARK    2  A    between atoms: N_10  and  C_11
REMARK    3  A    between atoms: C_17  and  C_18
REMARK    4  A    between atoms: C_21  and  N_24
REMARK                            x       y       z     vdW  Elec       q    Type
REMARK                         _______ _______ _______ _____ _____    ______ ____
ROOT
ATOM     11  C   UNL     1      -2.015   3.725  25.240  0.00  0.00    +0.133 C 
ATOM     12  C   UNL     1      -1.899   4.542  25.234  0.00  0.00    +0.202 C 
ATOM     13  O   UNL     1      -2.474   5.113  25.387  0.00  0.00    -0.219 OA
ATOM     14  C   UNL     1      -1.108   4.686  25.049  0.00  0.00    +0.184 C 
ATOM     15  O   UNL     1      -0.753   5.428  24.984  0.00  0.00    -0.220 OA
ATOM     16  C   UNL     1      -0.735   3.959  24.940  0.00  0.00    +0.042 C 
ATOM     17  C   UNL     1      -1.295   3.365  25.058  0.00  0.00    +0.049 C 
ENDROOT
BRANCH  17  18
ATOM     18  C   UNL     1      -1.159   2.553  25.004  0.00  0.00    -0.001 A 
ATOM     19  C   UNL     1      -1.010   2.112  25.686  0.00  0.00    +0.000 A 
ATOM     20  C   UNL     1      -0.875   1.301  25.631  0.00  0.00    +0.034 A 
ATOM     21  C   UNL     1      -0.888   0.929  24.896  0.00  0.00    +0.132 A 
ATOM     22  N   UNL     1      -1.037   1.368  24.213  0.00  0.00    -0.229 NA
ATOM     23  C   UNL     1      -1.173   2.180  24.268  0.00  0.00    +0.096 A 
BRANCH  21  24
ATOM     24  N   UNL     1      -0.752   0.117  24.840  0.00  0.00    -0.288 N 
ATOM     25  C   UNL     1      -1.117  -0.398  25.372  0.00  0.00    +0.124 C 
ATOM     26  C   UNL     1      -0.982  -1.210  25.317  0.00  0.00    +0.164 C 
ATOM     27  O   UNL     1      -0.483  -1.507  24.732  0.00  0.00    -0.350 OA
ATOM     28  C   UNL     1      -0.118  -0.992  24.200  0.00  0.00    +0.164 C 
ATOM     29  C   UNL     1      -0.253  -0.180  24.255  0.00  0.00    +0.124 C 
ENDBRANCH  21  24
ENDBRANCH  17  18
BRANCH  11  10
ATOM      8  C   UNL     1      -3.402   3.520  24.965  0.00  0.00    +0.284 C 
ATOM      9  O   UNL     1      -3.368   4.093  24.371  0.00  0.00    -0.267 OA
ATOM     10  N   UNL     1      -2.725   3.337  25.399  0.00  0.00    -0.199 NA
BRANCH   8   4
ATOM      1  C   UNL     1      -5.854   2.671  26.268  0.00  0.00    +0.153 C 
ATOM      2  N   UNL     1      -5.239   2.742  25.723  0.00  0.00    -0.253 N 
ATOM      3  N   UNL     1      -4.585   3.239  25.791  0.00  0.00    -0.165 NA
ATOM      4  C   UNL     1      -4.113   3.132  25.124  0.00  0.00    +0.157 A 
ATOM      5  C   UNL     1      -4.475   2.568  24.643  0.00  0.00    +0.040 A 
ATOM      6  C   UNL     1      -5.171   2.327  25.012  0.00  0.00    +0.058 A 
ATOM      7  C   UNL     1      -5.706   1.769  24.724  0.00  0.00    +0.052 C 
ENDBRANCH   8   4
ENDBRANCH  11  10
TORSDOF 4
ENDMDL
MODEL 3
REMARK VINA RESULT:     -11.6      1.608      4.319
REMARK  Name = 
REMARK  4 active torsions:
REMARK  status: ('A' for Active; 'I' for Inactive)
REMARK    1  A    between atoms: C_4  and  C_8
REMARK    2  A    between atoms: N_10  and  C_11
REMARK    3  A    between atoms: C_17  and  C_18
REMARK    4  A    between atoms: C_21  and  N_24
REMARK                            x       y       z     vdW  Elec       q    Type
REMARK                         _______ _______ _______ _____ _____    ______ ____
ROOT
ATOM     11  C   UNL     1      -2.687  -1.384  24.464  0.00  0.00    +0.133 C 
ATOM     12  C   UNL     1      -2.553  -2.197  24.424  0.00  0.00    +0.202 C 
ATOM     13  O   UNL     1      -1.842  -2.562  24.222  0.00  0.00    -0.219 OA
ATOM     14  C   UNL     1      -3.257  -2.580  24.622  0.00  0.00    +0.184 C 
ATOM     15  O   UNL     1      -3.372  -3.397  24.652  0.00  0.00    -0.220 OA
ATOM     16  C   UNL     1      -3.825  -2.004  24.784  0.00  0.00    +0.042 C 
ATOM     17  C   UNL     1      -3.472  -1.265  24.686  0.00  0.00    +0.049 C 
ENDROOT
BRANCH  17  18
ATOM     18  C   UNL     1      -3.841  -0.534  24.792  0.00  0.00    -0.001 A 
ATOM     19  C   UNL     1      -4.041  -0.074  24.137  0.00  0.00    +0.000 A 
ATOM     20  C   UNL     1      -4.410   0.656  24.244  0.00  0.00    +0.034 A 
ATOM     21  C   UNL     1      -4.579   0.926  25.004  0.00  0.00    +0.132 A 
ATOM     22  N   UNL     1      -4.379   0.466  25.660  0.00  0.00    -0.229 NA
ATOM     23  C   UNL     1      -4.010  -0.264  25.553  0.00  0.00    +0.096 A 
BRANCH  21  24
ATOM     24  N   UNL     1      -4.947   1.657  25.111  0.00  0.00    -0.288 N 
ATOM     25  C   UNL     1      -4.503   2.351  25.072  0.00  0.00    +0.124 C 
ATOM     26  C   UNL     1      -4.871   3.082  25.179  0.00  0.00    +0.164 C 
ATOM     27  O   UNL     1      -5.682   3.118  25.325  0.00  0.00    -0.350 OA
ATOM     28  C   UNL     1      -6.126   2.424  25.364  0.00  0.00    +0.164 C 
ATOM     29  C   UNL     1      -5.758   1.693  25.257  0.00  0.00    +0.124 C 
ENDBRANCH  21  24
ENDBRANCH  17  18
BRANCH  11  10
ATOM      8  C   UNL     1      -1.427  -0.767  24.735  0.00  0.00    +0.284 C 
ATOM      9  O   UNL     1      -1.276  -1.332  25.317  0.00  0.00    -0.267 OA
ATOM     10  N   UNL     1      -2.132  -0.793  24.308  0.00  0.00    -0.199 NA
BRANCH   8   4
ATOM      1  C   UNL     1       0.710   0.758  23.494  0.00  0.00    +0.153 C 
ATOM      2  N   UNL     1       0.110   0.525  24.009  0.00  0.00    -0.253 N 
ATOM      3  N   UNL     1      -0.338  -0.165  23.951  0.00  0.00    -0.165 NA
ATOM      4  C   UNL     1      -0.871  -0.176  24.580  0.00  0.00    +0.157 A 
ATOM      5  C   UNL     1      -0.753   0.507  25.027  0.00  0.00    +0.040 A 
ATOM      6  C   UNL     1      -0.147   0.940  24.675  0.00  0.00    +0.058 A 
ATOM      7  C   UNL     1       0.151   1.662  24.940  0.00  0.00    +0.052 C 
ENDBRANCH   8   4
ENDBRANCH  11  10
TORSDOF 4
ENDMDL
MODEL 4
REMARK VINA RESULT:     -11.3      1.743      3.982
REMARK  Name = 
REMARK  4 active torsions:
REMARK  status: ('A' for Active; 'I' for Inactive)
REMARK    1  A    between atoms: C_4  and  C_8
REMARK    2  A    between atoms: N_10  and  C_11
REMARK    3  A    between atoms: C_17  and  C_18
REMARK    4  A    between atoms: C_21  and  N_24
REMARK                            x       y       z     vdW  Elec       q    Type
REMARK                         _______ _______ _______ _____ _____    ______ ____
ROOT
ATOM     11  C   UNL     1      -4.432   1.599  24.717  0.00  0.00    +0.133 C 
ATOM     12  C   UNL     1      -5.187   1.886  24.886  0.00  0.00    +0.202 C 
ATOM     13  O   UNL     1      -5.884   1.447  24.879  0.00  0.00    -0.219 OA
ATOM     14  C   UNL     1      -5.119   2.689  25.063  0.00  0.00    +0.184 C 
ATOM     15  O   UNL     1      -5.740   3.194  25.265  0.00  0.00    -0.220 OA
ATOM     16  C   UNL     1      -4.324   2.899  25.003  0.00  0.00    +0.042 C 
ATOM     17  C   UNL     1      -3.899   2.225  24.790  0.00  0.00    +0.049 C 
ENDROOT
BRANCH  17  18
ATOM     18  C   UNL     1      -3.083   2.185  24.669  0.00  0.00    -0.001 A 
ATOM     19  C   UNL     1      -2.778   2.190  23.902  0.00  0.00    +0.000 A 
ATOM     20  C   UNL     1      -1.964   2.150  23.783  0.00  0.00    +0.034 A 
ATOM     21  C   UNL     1      -1.453   2.104  24.428  0.00  0.00    +0.132 A 
ATOM     22  N   UNL     1      -1.757   2.098  25.196  0.00  0.00    -0.229 NA
ATOM     23  C   UNL     1      -2.573   2.139  25.315  0.00  0.00    +0.096 A 
BRANCH  21  24
ATOM     24  N   UNL     1      -0.638   2.063  24.309  0.00  0.00    -0.288 N 
ATOM     25  C   UNL     1      -0.274   1.331  24.199  0.00  0.00    +0.124 C 
ATOM     26  C   UNL     1       0.541   1.289  24.079  0.00  0.00    +0.164 C 
ATOM     27  O   UNL     1       0.992   1.980  24.070  0.00  0.00    -0.350 OA
ATOM     28  C   UNL     1       0.629   2.712  24.180  0.00  0.00    +0.164 C 
ATOM     29  C   UNL     1      -0.187   2.754  24.299  0.00  0.00    +0.124 C 
ENDBRANCH  21  24
ENDBRANCH  17  18
BRANCH  11  10
ATOM      8  C   UNL     1      -4.420   0.205  25.028  0.00  0.00    +0.284 C 
ATOM      9  O   UNL     1      -4.787   0.363  25.750  0.00  0.00    -0.267 OA
ATOM     10  N   UNL     1      -4.242   0.823  24.512  0.00  0.00    -0.199 NA
BRANCH   8   4
ATOM      1  C   UNL     1      -4.260  -2.310  23.584  0.00  0.00    +0.153 C 
ATOM      2  N   UNL     1      -4.157  -1.728  24.159  0.00  0.00    -0.253 N 
ATOM      3  N   UNL     1      -4.471  -0.966  24.139  0.00  0.00    -0.165 NA
ATOM      4  C   UNL     1      -4.230  -0.572  24.823  0.00  0.00    +0.157 A 
ATOM      5  C   UNL     1      -3.767  -1.091  25.266  0.00  0.00    +0.040 A 
ATOM      6  C   UNL     1      -3.721  -1.806  24.856  0.00  0.00    +0.058 A 
ATOM      7  C   UNL     1      -3.312  -2.479  25.099  0.00  0.00    +0.052 C 
ENDBRANCH   8   4
ENDBRANCH  11  10
TORSDOF 4
ENDMDL
