MODEL 1
REMARK VINA RESULT:     -13.6      0.000      0.000
REMARK  Name = 
REMARK  5 active torsions:
REMARK  status: ('A' for Active; 'I' for Inactive)
REMARK    1  A    between atoms: C_4  and  C_28
REMARK    2  A    between atoms: C_6  and  C_7
REMARK    3  A    between atoms: C_14  and  C_15
REMARK    4  A    between atoms: C_15  and  N_16
REMARK    5  A    between atoms: C_17  and  C_19
REMARK                            x       y       z     vdW  Elec       q    Type
REMARK                         _______ _______ _______ _____ _____    ______ ____
ROOT
ATOM      7  C   UNL     1      -0.587   0.765  24.017  0.00  0.00    +0.056 C 
ATOM      8  C   UNL     1      -0.204   1.286  23.585  0.00  0.00    +0.078 C 
ATOM      9  N   UNL     1      -0.036   0.480  23.638  0.00  0.00    -0.272 NA
ATOM     10  C   UNL     1      -0.733   0.062  24.300  0.00  0.00    +0.072 C 
ATOM     11  C   UNL     1      -0.975  -0.456  24.617  0.00  0.00    +0.018 C 
ATOM     12  C   UNL     1      -0.416  -0.025  24.064  0.00  0.00    +0.010 C 
ATOM     13  C   UNL     1       0.202  -0.517  23.680  0.00  0.00    +0.018 C 
ATOM     14  C   UNL     1       0.603  -0.038  23.243  0.00  0.00    +0.079 C 
ENDROOT
BRANCH   7   6
ATOM      1  C   UNL     1      -0.472   1.721  25.531  0.00  0.00    +0.153 C 
ATOM      2  N   UNL     1      -1.169   1.481  25.161  0.00  0.00    -0.253 N 
ATOM      3  N   UNL     1      -1.935   1.637  25.423  0.00  0.00    -0.170 NA
ATOM      4  C   UNL     1      -2.462   1.295  24.889  0.00  0.00    +0.102 A 
ATOM      5  C   UNL     1      -2.021   0.926  24.298  0.00  0.00    +0.035 A 
ATOM      6  C   UNL     1      -1.222   1.041  24.466  0.00  0.00    +0.058 A 
BRANCH   4  28
ATOM     28  C   UNL     1      -3.285   1.316  24.938  0.00  0.00    +0.019 A 
ATOM     29  C   UNL     1      -3.675   2.040  25.014  0.00  0.00    +0.002 A 
ATOM     30  C   UNL     1      -4.499   2.062  25.063  0.00  0.00    +0.000 A 
ATOM     31  C   UNL     1      -4.932   1.360  25.036  0.00  0.00    +0.000 A 
ATOM     32  C   UNL     1      -5.755   1.382  25.085  0.00  0.00    +0.000 A 
ATOM     33  C   UNL     1      -6.145   2.106  25.161  0.00  0.00    +0.000 A 
ATOM     34  C   UNL     1      -5.711   2.807  25.189  0.00  0.00    +0.000 A 
ATOM     35  C   UNL     1      -4.888   2.785  25.140  0.00  0.00    +0.000 A 
ATOM     36  C   UNL     1      -4.543   0.636  24.960  0.00  0.00    +0.000 A 
ATOM     37  C   UNL     1      -3.719   0.615  24.911  0.00  0.00    +0.002 A 
ENDBRANCH   4  28
ENDBRANCH   7   6
BRANCH  14  15
ATOM     15  C   UNL     1       1.240  -0.007  22.721  0.00  0.00    +0.131 C 
BRANCH  15  16
ATOM     16  N   UNL     1       2.009   0.072  23.012  0.00  0.00    -0.200 NA
ATOM     17  C   UNL     1       2.648   0.085  22.490  0.00  0.00    +0.265 C 
ATOM     18  O   UNL     1       2.519   0.019  21.678  0.00  0.00    -0.268 OA
BRANCH  17  19
ATOM     19  C   UNL     1       3.416   0.164  22.781  0.00  0.00    +0.058 A 
ATOM     20  C   UNL     1       3.831   0.867  22.665  0.00  0.00    +0.008 A 
ATOM     21  C   UNL     1       4.599   0.946  22.956  0.00  0.00    +0.040 A 
ATOM     22  C   UNL     1       4.952   0.321  23.363  0.00  0.00    +0.176 A 
ATOM     23  O   UNL     1       5.696   0.240  23.710  0.00  0.00    -0.435 OA
ATOM     24  C   UNL     1       5.741  -0.515  24.039  0.00  0.00    +0.429 C 
ATOM     25  O   UNL     1       5.026  -0.899  23.897  0.00  0.00    -0.435 OA
ATOM     26  C   UNL     1       4.538  -0.382  23.478  0.00  0.00    +0.177 A 
ATOM     27  C   UNL     1       3.770  -0.461  23.187  0.00  0.00    +0.045 A 
ENDBRANCH  17  19
ENDBRANCH  15  16
ENDBRANCH  14  15
TORSDOF 5
ENDMDL
