MODEL 1
REMARK VINA RESULT:     -14.1      0.000      0.000
REMARK  Name = 
REMARK  7 active torsions:
REMARK  status: ('A' for Active; 'I' for Inactive)
REMARK    1  A    between atoms: C_2  and  C_4
REMARK    2  A    between atoms: C_7  and  N_10
REMARK    3  A    between atoms: C_14  and  C_15
REMARK    4  A    between atoms: C_17  and  N_18
REMARK    5  A    between atoms: N_18  and  C_19
REMARK    6  A    between atoms: C_19  and  C_20
REMARK    7  A    between atoms: C_24  and  C_26
REMARK                            x       y       z     vdW  Elec       q    Type
REMARK                         _______ _______ _______ _____ _____    ______ ____
ROOT
ATOM     10  N   UNL     1      -4.621   0.362  24.864  0.00  0.00    -0.234 N 
ATOM     11  N   UNL     1      -5.425   0.542  24.910  0.00  0.00    -0.170 NA
ATOM     12  C   UNL     1      -5.498   1.356  25.022  0.00  0.00    +0.077 A 
ATOM     13  C   UNL     1      -6.205   1.773  25.097  0.00  0.00    +0.054 C 
ATOM     14  C   UNL     1      -4.739   1.679  25.046  0.00  0.00    +0.010 A 
ATOM     30  C   UNL     1      -4.197   1.064  24.949  0.00  0.00    +0.058 A 
ATOM     31  C   UNL     1      -3.375   1.139  24.938  0.00  0.00    +0.052 C 
ENDROOT
BRANCH  10   7
ATOM      4  C   UNL     1      -3.651  -1.891  24.533  0.00  0.00    -0.022 A 
ATOM      5  C   UNL     1      -3.611  -1.529  25.273  0.00  0.00    -0.003 A 
ATOM      6  C   UNL     1      -3.934  -0.778  25.384  0.00  0.00    +0.019 A 
ATOM      7  C   UNL     1      -4.297  -0.389  24.754  0.00  0.00    +0.082 A 
ATOM      8  C   UNL     1      -4.338  -0.751  24.014  0.00  0.00    +0.019 A 
ATOM      9  C   UNL     1      -4.015  -1.502  23.904  0.00  0.00    -0.003 A 
BRANCH   4   2
ATOM      1  C   UNL     1      -3.812  -3.270  24.196  0.00  0.00    +0.005 C 
ATOM      2  C   UNL     1      -3.328  -2.642  24.423  0.00  0.00    +0.022 C 
ATOM      3  C   UNL     1      -2.521  -2.765  24.540  0.00  0.00    +0.005 C 
ENDBRANCH   4   2
ENDBRANCH  10   7
BRANCH  14  15
ATOM     15  C   UNL     1      -4.554   2.476  25.150  0.00  0.00    +0.048 C 
ATOM     16  C   UNL     1      -3.844   2.841  24.940  0.00  0.00    +0.031 C 
ATOM     17  C   UNL     1      -3.899   3.638  25.142  0.00  0.00    +0.095 C 
ATOM     28  C   UNL     1      -4.641   3.768  25.476  0.00  0.00    -0.013 C 
ATOM     29  C   UNL     1      -5.047   3.049  25.482  0.00  0.00    -0.025 C 
BRANCH  17  18
ATOM     18  N   UNL     1      -3.312   4.208  25.029  0.00  0.00    -0.210 NA
BRANCH  18  19
ATOM     19  C   UNL     1      -2.737   4.329  25.607  0.00  0.00    +0.115 C 
BRANCH  19  20
ATOM     20  C   UNL     1      -1.946   4.419  25.391  0.00  0.00    -0.004 A 
ATOM     21  C   UNL     1      -1.684   5.132  25.071  0.00  0.00    -0.003 A 
ATOM     22  C   UNL     1      -0.894   5.222  24.855  0.00  0.00    +0.000 A 
ATOM     23  C   UNL     1      -0.364   4.599  24.958  0.00  0.00    +0.010 A 
ATOM     24  C   UNL     1      -0.626   3.884  25.279  0.00  0.00    +0.068 A 
ATOM     25  C   UNL     1      -1.416   3.794  25.495  0.00  0.00    +0.007 A 
BRANCH  24  26
ATOM     26  C   UNL     1      -0.096   3.261  25.383  0.00  0.00    +0.100 C 
ATOM     27  N   UNL     1       0.435   2.637  25.486  0.00  0.00    -0.191 NA
ENDBRANCH  24  26
ENDBRANCH  19  20
ENDBRANCH  18  19
ENDBRANCH  17  18
ENDBRANCH  14  15
TORSDOF 7
ENDMDL
MODEL 2
REMARK VINA RESULT:     -13.0      1.079      5.520
REMARK  Name = 
REMARK  7 active torsions:
REMARK  status: ('A' for Active; 'I' for Inactive)
REMARK    1  A    between atoms: C_2  and  C_4
REMARK    2  A    between atoms: C_7  and  N_10
REMARK    3  A    between atoms: C_14  and  C_15
REMARK    4  A    between atoms: C_17  and  N_18
REMARK    5  A    between atoms: N_18  and  C_19
REMARK    6  A    between atoms: C_19  and  C_20
REMARK    7  A    between atoms: C_24  and  C_26
REMARK                            x       y       z     vdW  Elec       q    Type
REMARK                         _______ _______ _______ _____ _____    ______ ____
ROOT
ATOM     10  N   UNL     1      -3.648   3.290  25.278  0.00  0.00    -0.234 N 
ATOM     11  N   UNL     1      -4.346   3.459  25.685  0.00  0.00    -0.170 NA
ATOM     12  C   UNL     1      -4.839   2.799  25.632  0.00  0.00    +0.077 A 
ATOM     13  C   UNL     1      -5.592   2.729  25.961  0.00  0.00    +0.054 C 
ATOM     14  C   UNL     1      -4.446   2.222  25.193  0.00  0.00    +0.010 A 
ATOM     30  C   UNL     1      -3.710   2.526  24.974  0.00  0.00    +0.058 A 
ATOM     31  C   UNL     1      -3.137   2.133  24.529  0.00  0.00    +0.052 C 
ENDROOT
BRANCH  10   7
ATOM      4  C   UNL     1      -1.711   4.808  25.017  0.00  0.00    -0.022 A 
ATOM      5  C   UNL     1      -2.288   4.769  24.429  0.00  0.00    -0.003 A 
ATOM      6  C   UNL     1      -2.934   4.263  24.516  0.00  0.00    +0.019 A 
ATOM      7  C   UNL     1      -3.003   3.796  25.191  0.00  0.00    +0.082 A 
ATOM      8  C   UNL     1      -2.427   3.834  25.780  0.00  0.00    +0.019 A 
ATOM      9  C   UNL     1      -1.781   4.340  25.693  0.00  0.00    -0.003 A 
BRANCH   4   2
ATOM      1  C   UNL     1      -1.176   6.130  24.956  0.00  0.00    +0.005 C 
ATOM      2  C   UNL     1      -1.065   5.314  24.930  0.00  0.00    +0.022 C 
ATOM      3  C   UNL     1      -0.310   5.003  24.818  0.00  0.00    +0.005 C 
ENDBRANCH   4   2
ENDBRANCH  10   7
BRANCH  14  15
ATOM     15  C   UNL     1      -4.737   1.474  25.004  0.00  0.00    +0.048 C 
ATOM     16  C   UNL     1      -4.327   0.762  25.078  0.00  0.00    +0.031 C 
ATOM     17  C   UNL     1      -4.826   0.154  24.828  0.00  0.00    +0.095 C 
ATOM     28  C   UNL     1      -5.544   0.489  24.601  0.00  0.00    -0.013 C 
ATOM     29  C   UNL     1      -5.489   1.306  24.710  0.00  0.00    -0.025 C 
BRANCH  17  18
ATOM     18  N   UNL     1      -4.639  -0.649  24.810  0.00  0.00    -0.210 NA
BRANCH  18  19
ATOM     19  C   UNL     1      -4.239  -0.965  24.161  0.00  0.00    +0.115 C 
BRANCH  19  20
ATOM     20  C   UNL     1      -3.808  -1.664  24.242  0.00  0.00    -0.004 A 
ATOM     21  C   UNL     1      -4.177  -2.393  24.130  0.00  0.00    -0.003 A 
ATOM     22  C   UNL     1      -3.746  -3.090  24.211  0.00  0.00    +0.000 A 
ATOM     23  C   UNL     1      -2.945  -3.061  24.405  0.00  0.00    +0.010 A 
ATOM     24  C   UNL     1      -2.575  -2.331  24.517  0.00  0.00    +0.068 A 
ATOM     25  C   UNL     1      -3.005  -1.634  24.436  0.00  0.00    +0.007 A 
BRANCH  24  26
ATOM     26  C   UNL     1      -1.773  -2.302  24.710  0.00  0.00    +0.100 C 
ATOM     27  N   UNL     1      -0.971  -2.272  24.903  0.00  0.00    -0.191 NA
ENDBRANCH  24  26
ENDBRANCH  19  20
ENDBRANCH  18  19
ENDBRANCH  17  18
ENDBRANCH  14  15
TORSDOF 7
ENDMDL
MODEL 3
REMARK VINA RESULT:     -11.8      3.709      5.473
REMARK  Name = 
REMARK  7 active torsions:
REMARK  status: ('A' for Active; 'I' for Inactive)
REMARK    1  A    between atoms: C_2  and  C_4
REMARK    2  A    between atoms: C_7  and  N_10
REMARK    3  A    between atoms: C_14  and  C_15
REMARK    4  A    between atoms: C_17  and  N_18
REMARK    5  A    between atoms: N_18  and  C_19
REMARK    6  A    between atoms: C_19  and  C_20
REMARK    7  A    between atoms: C_24  and  C_26
REMARK                            x       y       z     vdW  Elec       q    Type
REMARK                         _______ _______ _______ _____ _____    ______ ____
ROOT
ATOM     10  N   UNL     1      -2.023   0.738  24.635  0.00  0.00    -0.234 N 
ATOM     11  N   UNL     1      -1.784   0.135  25.146  0.00  0.00    -0.170 NA
ATOM     12  C   UNL     1      -1.063  -0.159  24.874  0.00  0.00    +0.077 A 
ATOM     13  C   UNL     1      -0.625  -0.766  25.220  0.00  0.00    +0.054 C 
ATOM     14  C   UNL     1      -0.856   0.262  24.195  0.00  0.00    +0.010 A 
ATOM     30  C   UNL     1      -1.450   0.816  24.048  0.00  0.00    +0.058 A 
ATOM     31  C   UNL     1      -1.467   1.354  23.422  0.00  0.00    +0.052 C 
ENDROOT
BRANCH  10   7
ATOM      4  C   UNL     1      -4.097   2.074  24.832  0.00  0.00    -0.022 A 
ATOM      5  C   UNL     1      -4.129   1.302  24.545  0.00  0.00    -0.003 A 
ATOM      6  C   UNL     1      -3.438   0.856  24.479  0.00  0.00    +0.019 A 
ATOM      7  C   UNL     1      -2.715   1.183  24.701  0.00  0.00    +0.082 A 
ATOM      8  C   UNL     1      -2.682   1.955  24.988  0.00  0.00    +0.019 A 
ATOM      9  C   UNL     1      -3.373   2.401  25.054  0.00  0.00    -0.003 A 
BRANCH   4   2
ATOM      1  C   UNL     1      -5.519   2.141  24.955  0.00  0.00    +0.005 C 
ATOM      2  C   UNL     1      -4.789   2.520  24.898  0.00  0.00    +0.022 C 
ATOM      3  C   UNL     1      -4.749   3.343  24.906  0.00  0.00    +0.005 C 
ENDBRANCH   4   2
ENDBRANCH  10   7
BRANCH  14  15
ATOM     15  C   UNL     1      -0.176   0.150  23.743  0.00  0.00    +0.048 C 
ATOM     16  C   UNL     1       0.521   0.589  23.797  0.00  0.00    +0.031 C 
ATOM     17  C   UNL     1       1.055   0.288  23.245  0.00  0.00    +0.095 C 
ATOM     28  C   UNL     1       0.690  -0.336  22.849  0.00  0.00    -0.013 C 
ATOM     29  C   UNL     1      -0.071  -0.422  23.157  0.00  0.00    -0.025 C 
BRANCH  17  18
ATOM     18  N   UNL     1       1.821   0.564  23.111  0.00  0.00    -0.210 NA
BRANCH  18  19
ATOM     19  C   UNL     1       2.413   0.042  22.874  0.00  0.00    +0.115 C 
BRANCH  19  20
ATOM     20  C   UNL     1       3.205   0.268  22.914  0.00  0.00    -0.004 A 
ATOM     21  C   UNL     1       3.459   0.950  22.526  0.00  0.00    -0.003 A 
ATOM     22  C   UNL     1       4.251   1.177  22.567  0.00  0.00    +0.000 A 
ATOM     23  C   UNL     1       4.789   0.722  22.995  0.00  0.00    +0.010 A 
ATOM     24  C   UNL     1       4.535   0.039  23.383  0.00  0.00    +0.068 A 
ATOM     25  C   UNL     1       3.744  -0.187  23.343  0.00  0.00    +0.007 A 
BRANCH  24  26
ATOM     26  C   UNL     1       5.073  -0.416  23.811  0.00  0.00    +0.100 C 
ATOM     27  N   UNL     1       5.613  -0.871  24.240  0.00  0.00    -0.191 NA
ENDBRANCH  24  26
ENDBRANCH  19  20
ENDBRANCH  18  19
ENDBRANCH  17  18
ENDBRANCH  14  15
TORSDOF 7
ENDMDL
MODEL 4
REMARK VINA RESULT:     -11.6      2.997      4.858
REMARK  Name = 
REMARK  7 active torsions:
REMARK  status: ('A' for Active; 'I' for Inactive)
REMARK    1  A    between atoms: C_2  and  C_4
REMARK    2  A    between atoms: C_7  and  N_10
REMARK    3  A    between atoms: C_14  and  C_15
REMARK    4  A    between atoms: C_17  and  N_18
REMARK    5  A    between atoms: N_18  and  C_19
REMARK    6  A    between atoms: C_19  and  C_20
REMARK    7  A    between atoms: C_24  and  C_26
REMARK                            x       y       z     vdW  Elec       q    Type
REMARK                         _______ _______ _______ _____ _____    ______ ____
ROOT
ATOM     10  N   UNL     1      -3.466  -0.018  24.740  0.00  0.00    -0.234 N 
ATOM     11  N   UNL     1      -3.602  -0.817  24.582  0.00  0.00    -0.170 NA
ATOM     12  C   UNL     1      -2.870  -1.192  24.517  0.00  0.00    +0.077 A 
ATOM     13  C   UNL     1      -2.748  -1.993  24.362  0.00  0.00    +0.054 C 
ATOM     14  C   UNL     1      -2.282  -0.626  24.634  0.00  0.00    +0.010 A 
ATOM     30  C   UNL     1      -2.650   0.100  24.772  0.00  0.00    +0.058 A 
ATOM     31  C   UNL     1      -2.269   0.818  24.916  0.00  0.00    +0.052 C 
ENDROOT
BRANCH  10   7
ATOM      4  C   UNL     1      -5.200   1.718  25.059  0.00  0.00    -0.022 A 
ATOM      5  C   UNL     1      -5.195   1.046  25.538  0.00  0.00    -0.003 A 
ATOM      6  C   UNL     1      -4.617   0.468  25.431  0.00  0.00    +0.019 A 
ATOM      7  C   UNL     1      -4.044   0.561  24.846  0.00  0.00    +0.082 A 
ATOM      8  C   UNL     1      -4.048   1.232  24.368  0.00  0.00    +0.019 A 
ATOM      9  C   UNL     1      -4.626   1.811  24.474  0.00  0.00    -0.003 A 
BRANCH   4   2
ATOM      1  C   UNL     1      -6.571   2.118  25.028  0.00  0.00    +0.005 C 
ATOM      2  C   UNL     1      -5.778   2.297  25.166  0.00  0.00    +0.022 C 
ATOM      3  C   UNL     1      -5.563   3.055  25.410  0.00  0.00    +0.005 C 
ENDBRANCH   4   2
ENDBRANCH  10   7
BRANCH  14  15
ATOM     15  C   UNL     1      -1.468  -0.761  24.617  0.00  0.00    +0.048 C 
ATOM     16  C   UNL     1      -0.970  -0.638  23.971  0.00  0.00    +0.031 C 
ATOM     17  C   UNL     1      -0.204  -0.844  24.198  0.00  0.00    +0.095 C 
ATOM     28  C   UNL     1      -0.228  -1.094  24.983  0.00  0.00    -0.013 C 
ATOM     29  C   UNL     1      -1.010  -1.043  25.242  0.00  0.00    -0.025 C 
BRANCH  17  18
ATOM     18  N   UNL     1       0.469  -0.806  23.722  0.00  0.00    -0.210 NA
BRANCH  18  19
ATOM     19  C   UNL     1       0.715  -0.082  23.411  0.00  0.00    +0.115 C 
BRANCH  19  20
ATOM     20  C   UNL     1       1.352  -0.053  22.889  0.00  0.00    -0.004 A 
ATOM     21  C   UNL     1       1.279  -0.368  22.130  0.00  0.00    -0.003 A 
ATOM     22  C   UNL     1       1.916  -0.338  21.608  0.00  0.00    +0.000 A 
ATOM     23  C   UNL     1       2.628   0.007  21.843  0.00  0.00    +0.010 A 
ATOM     24  C   UNL     1       2.701   0.322  22.603  0.00  0.00    +0.068 A 
ATOM     25  C   UNL     1       2.064   0.293  23.125  0.00  0.00    +0.007 A 
BRANCH  24  26
ATOM     26  C   UNL     1       3.412   0.667  22.838  0.00  0.00    +0.100 C 
ATOM     27  N   UNL     1       4.124   1.013  23.074  0.00  0.00    -0.191 NA
ENDBRANCH  24  26
ENDBRANCH  19  20
ENDBRANCH  18  19
ENDBRANCH  17  18
ENDBRANCH  14  15
TORSDOF 7
ENDMDL
MODEL 5
REMARK VINA RESULT:     -11.4      2.584      4.762
REMARK  Name = 
REMARK  7 active torsions:
REMARK  status: ('A' for Active; 'I' for Inactive)
REMARK    1  A    between atoms: C_2  and  C_4
REMARK    2  A    between atoms: C_7  and  N_10
REMARK    3  A    between atoms: C_14  and  C_15
REMARK    4  A    between atoms: C_17  and  N_18
REMARK    5  A    between atoms: N_18  and  C_19
REMARK    6  A    between atoms: C_19  and  C_20
REMARK    7  A    between atoms: C_24  and  C_26
REMARK                            x       y       z     vdW  Elec       q    Type
REMARK                         _______ _______ _______ _____ _____    ______ ____
ROOT
ATOM     10  N   UNL     1      -2.969   2.969  25.092  0.00  0.00    -0.234 N 
ATOM     11  N   UNL     1      -2.681   3.740  25.035  0.00  0.00    -0.170 NA
ATOM     12  C   UNL     1      -1.859   3.702  24.972  0.00  0.00    +0.077 A 
ATOM     13  C   UNL     1      -1.348   4.346  24.904  0.00  0.00    +0.054 C 
ATOM     14  C   UNL     1      -1.639   2.908  24.990  0.00  0.00    +0.010 A 
ATOM     30  C   UNL     1      -2.325   2.454  25.064  0.00  0.00    +0.058 A 
ATOM     31  C   UNL     1      -2.360   1.631  25.103  0.00  0.00    +0.052 C 
ENDROOT
BRANCH  10   7
ATOM      4  C   UNL     1      -5.346   2.314  25.308  0.00  0.00    -0.022 A 
ATOM      5  C   UNL     1      -4.885   2.002  24.699  0.00  0.00    -0.003 A 
ATOM      6  C   UNL     1      -4.093   2.220  24.627  0.00  0.00    +0.019 A 
ATOM      7  C   UNL     1      -3.761   2.750  25.164  0.00  0.00    +0.082 A 
ATOM      8  C   UNL     1      -4.221   3.062  25.773  0.00  0.00    +0.019 A 
ATOM      9  C   UNL     1      -5.013   2.844  25.845  0.00  0.00    -0.003 A 
BRANCH   4   2
ATOM      1  C   UNL     1      -6.581   1.922  24.706  0.00  0.00    +0.005 C 
ATOM      2  C   UNL     1      -6.138   2.096  25.380  0.00  0.00    +0.022 C 
ATOM      3  C   UNL     1      -6.487   2.051  26.125  0.00  0.00    +0.005 C 
ENDBRANCH   4   2
ENDBRANCH  10   7
BRANCH  14  15
ATOM     15  C   UNL     1      -0.869   2.617  24.942  0.00  0.00    +0.048 C 
ATOM     16  C   UNL     1      -0.507   2.311  24.266  0.00  0.00    +0.031 C 
ATOM     17  C   UNL     1       0.261   2.086  24.469  0.00  0.00    +0.095 C 
ATOM     28  C   UNL     1       0.374   2.252  25.268  0.00  0.00    -0.013 C 
ATOM     29  C   UNL     1      -0.325   2.580  25.561  0.00  0.00    -0.025 C 
BRANCH  17  18
ATOM     18  N   UNL     1       0.818   1.753  23.960  0.00  0.00    -0.210 NA
BRANCH  18  19
ATOM     19  C   UNL     1       0.895   0.933  23.911  0.00  0.00    +0.115 C 
BRANCH  19  20
ATOM     20  C   UNL     1       1.383   0.597  23.337  0.00  0.00    -0.004 A 
ATOM     21  C   UNL     1       1.066   0.084  22.775  0.00  0.00    -0.003 A 
ATOM     22  C   UNL     1       1.554  -0.251  22.201  0.00  0.00    +0.000 A 
ATOM     23  C   UNL     1       2.359  -0.075  22.189  0.00  0.00    +0.010 A 
ATOM     24  C   UNL     1       2.677   0.439  22.753  0.00  0.00    +0.068 A 
ATOM     25  C   UNL     1       2.189   0.774  23.326  0.00  0.00    +0.007 A 
BRANCH  24  26
ATOM     26  C   UNL     1       3.483   0.616  22.741  0.00  0.00    +0.100 C 
ATOM     27  N   UNL     1       4.289   0.793  22.729  0.00  0.00    -0.191 NA
ENDBRANCH  24  26
ENDBRANCH  19  20
ENDBRANCH  18  19
ENDBRANCH  17  18
ENDBRANCH  14  15
TORSDOF 7
ENDMDL
MODEL 6
REMARK VINA RESULT:     -11.4      2.034      3.467
REMARK  Name = 
REMARK  7 active torsions:
REMARK  status: ('A' for Active; 'I' for Inactive)
REMARK    1  A    between atoms: C_2  and  C_4
REMARK    2  A    between atoms: C_7  and  N_10
REMARK    3  A    between atoms: C_14  and  C_15
REMARK    4  A    between atoms: C_17  and  N_18
REMARK    5  A    between atoms: N_18  and  C_19
REMARK    6  A    between atoms: C_19  and  C_20
REMARK    7  A    between atoms: C_24  and  C_26
REMARK                            x       y       z     vdW  Elec       q    Type
REMARK                         _______ _______ _______ _____ _____    ______ ____
ROOT
ATOM     10  N   UNL     1      -1.077  -0.685  24.067  0.00  0.00    -0.234 N 
ATOM     11  N   UNL     1      -0.439  -0.799  23.555  0.00  0.00    -0.170 NA
ATOM     12  C   UNL     1       0.008  -0.105  23.546  0.00  0.00    +0.077 A 
ATOM     13  C   UNL     1       0.695   0.023  23.109  0.00  0.00    +0.054 C 
ATOM     14  C   UNL     1      -0.354   0.437  24.052  0.00  0.00    +0.010 A 
ATOM     30  C   UNL     1      -1.024   0.079  24.373  0.00  0.00    +0.058 A 
ATOM     31  C   UNL     1      -1.550   0.425  24.908  0.00  0.00    +0.052 C 
ENDROOT
BRANCH  10   7
ATOM      4  C   UNL     1      -2.838  -2.344  24.589  0.00  0.00    -0.022 A 
ATOM      5  C   UNL     1      -2.047  -2.520  24.740  0.00  0.00    -0.003 A 
ATOM      6  C   UNL     1      -1.460  -1.967  24.566  0.00  0.00    +0.019 A 
ATOM      7  C   UNL     1      -1.664  -1.238  24.241  0.00  0.00    +0.082 A 
ATOM      8  C   UNL     1      -2.455  -1.061  24.089  0.00  0.00    +0.019 A 
ATOM      9  C   UNL     1      -3.042  -1.613  24.263  0.00  0.00    -0.003 A 
BRANCH   4   2
ATOM      1  C   UNL     1      -4.029  -3.041  24.220  0.00  0.00    +0.005 C 
ATOM      2  C   UNL     1      -3.426  -2.896  24.762  0.00  0.00    +0.022 C 
ATOM      3  C   UNL     1      -3.409  -3.304  25.479  0.00  0.00    +0.005 C 
ENDBRANCH   4   2
ENDBRANCH  10   7
BRANCH  14  15
ATOM     15  C   UNL     1      -0.092   1.204  24.208  0.00  0.00    +0.048 C 
ATOM     16  C   UNL     1      -0.539   1.894  24.134  0.00  0.00    +0.031 C 
ATOM     17  C   UNL     1      -0.059   2.530  24.347  0.00  0.00    +0.095 C 
ATOM     28  C   UNL     1       0.683   2.236  24.551  0.00  0.00    -0.013 C 
ATOM     29  C   UNL     1       0.663   1.415  24.466  0.00  0.00    -0.025 C 
BRANCH  17  18
ATOM     18  N   UNL     1      -0.284   3.324  24.353  0.00  0.00    -0.210 NA
BRANCH  18  19
ATOM     19  C   UNL     1      -0.374   3.722  25.070  0.00  0.00    +0.115 C 
BRANCH  19  20
ATOM     20  C   UNL     1      -0.988   4.264  25.167  0.00  0.00    -0.004 A 
ATOM     21  C   UNL     1      -0.905   5.037  24.890  0.00  0.00    -0.003 A 
ATOM     22  C   UNL     1      -1.519   5.578  24.988  0.00  0.00    +0.000 A 
ATOM     23  C   UNL     1      -2.217   5.348  25.361  0.00  0.00    +0.010 A 
ATOM     24  C   UNL     1      -2.301   4.575  25.638  0.00  0.00    +0.068 A 
ATOM     25  C   UNL     1      -1.687   4.034  25.541  0.00  0.00    +0.007 A 
BRANCH  24  26
ATOM     26  C   UNL     1      -2.999   4.345  26.012  0.00  0.00    +0.100 C 
ATOM     27  N   UNL     1      -3.698   4.114  26.386  0.00  0.00    -0.191 NA
ENDBRANCH  24  26
ENDBRANCH  19  20
ENDBRANCH  18  19
ENDBRANCH  17  18
ENDBRANCH  14  15
TORSDOF 7
ENDMDL
MODEL 7
REMARK VINA RESULT:     -11.2      1.884      6.364
REMARK  Name = 
REMARK  7 active torsions:
REMARK  status: ('A' for Active; 'I' for Inactive)
REMARK    1  A    between atoms: C_2  and  C_4
REMARK    2  A    between atoms: C_7  and  N_10
REMARK    3  A    between atoms: C_14  and  C_15
REMARK    4  A    between atoms: C_17  and  N_18
REMARK    5  A    between atoms: N_18  and  C_19
REMARK    6  A    between atoms: C_19  and  C_20
REMARK    7  A    between atoms: C_24  and  C_26
REMARK                            x       y       z     vdW  Elec       q    Type
REMARK                         _______ _______ _______ _____ _____    ______ ____
ROOT
ATOM     10  N   UNL     1      -0.370   1.646  24.421  0.00  0.00    -0.234 N 
ATOM     11  N   UNL     1       0.223   1.396  23.903  0.00  0.00    -0.170 NA
ATOM     12  C   UNL     1       0.236   0.571  23.910  0.00  0.00    +0.077 A 
ATOM     13  C   UNL     1       0.744   0.091  23.473  0.00  0.00    +0.054 C 
ATOM     14  C   UNL     1      -0.348   0.311  24.431  0.00  0.00    +0.010 A 
ATOM     30  C   UNL     1      -0.723   0.976  24.746  0.00  0.00    +0.058 A 
ATOM     31  C   UNL     1      -1.342   0.970  25.292  0.00  0.00    +0.052 C 
ENDROOT
BRANCH  10   7
ATOM      4  C   UNL     1      -0.980   3.995  24.907  0.00  0.00    -0.022 A 
ATOM      5  C   UNL     1      -0.425   3.606  25.378  0.00  0.00    -0.003 A 
ATOM      6  C   UNL     1      -0.221   2.823  25.215  0.00  0.00    +0.019 A 
ATOM      7  C   UNL     1      -0.573   2.429  24.583  0.00  0.00    +0.082 A 
ATOM      8  C   UNL     1      -1.128   2.816  24.112  0.00  0.00    +0.019 A 
ATOM      9  C   UNL     1      -1.332   3.599  24.275  0.00  0.00    -0.003 A 
BRANCH   4   2
ATOM      1  C   UNL     1      -0.681   5.390  24.842  0.00  0.00    +0.005 C 
ATOM      2  C   UNL     1      -1.184   4.778  25.070  0.00  0.00    +0.022 C 
ATOM      3  C   UNL     1      -1.890   4.947  25.459  0.00  0.00    +0.005 C 
ENDBRANCH   4   2
ENDBRANCH  10   7
BRANCH  14  15
ATOM     15  C   UNL     1      -0.528  -0.475  24.606  0.00  0.00    +0.048 C 
ATOM     16  C   UNL     1      -1.162  -0.906  24.303  0.00  0.00    +0.031 C 
ATOM     17  C   UNL     1      -1.130  -1.665  24.625  0.00  0.00    +0.095 C 
ATOM     28  C   UNL     1      -0.477  -1.703  25.126  0.00  0.00    -0.013 C 
ATOM     29  C   UNL     1      -0.104  -0.967  25.115  0.00  0.00    -0.025 C 
BRANCH  17  18
ATOM     18  N   UNL     1      -1.659  -2.279  24.471  0.00  0.00    -0.210 NA
BRANCH  18  19
ATOM     19  C   UNL     1      -2.339  -2.364  24.932  0.00  0.00    +0.115 C 
BRANCH  19  20
ATOM     20  C   UNL     1      -3.083  -2.345  24.577  0.00  0.00    -0.004 A 
ATOM     21  C   UNL     1      -3.386  -3.021  24.216  0.00  0.00    -0.003 A 
ATOM     22  C   UNL     1      -4.130  -3.002  23.862  0.00  0.00    +0.000 A 
ATOM     23  C   UNL     1      -4.572  -2.306  23.868  0.00  0.00    +0.010 A 
ATOM     24  C   UNL     1      -4.270  -1.629  24.229  0.00  0.00    +0.068 A 
ATOM     25  C   UNL     1      -3.526  -1.648  24.583  0.00  0.00    +0.007 A 
BRANCH  24  26
ATOM     26  C   UNL     1      -4.712  -0.933  24.235  0.00  0.00    +0.100 C 
ATOM     27  N   UNL     1      -5.156  -0.236  24.241  0.00  0.00    -0.191 NA
ENDBRANCH  24  26
ENDBRANCH  19  20
ENDBRANCH  18  19
ENDBRANCH  17  18
ENDBRANCH  14  15
TORSDOF 7
ENDMDL
MODEL 8
REMARK VINA RESULT:     -10.8      2.261      4.810
REMARK  Name = 
REMARK  7 active torsions:
REMARK  status: ('A' for Active; 'I' for Inactive)
REMARK    1  A    between atoms: C_2  and  C_4
REMARK    2  A    between atoms: C_7  and  N_10
REMARK    3  A    between atoms: C_14  and  C_15
REMARK    4  A    between atoms: C_17  and  N_18
REMARK    5  A    between atoms: N_18  and  C_19
REMARK    6  A    between atoms: C_19  and  C_20
REMARK    7  A    between atoms: C_24  and  C_26
REMARK                            x       y       z     vdW  Elec       q    Type
REMARK                         _______ _______ _______ _____ _____    ______ ____
ROOT
ATOM     10  N   UNL     1       0.256   1.864  24.643  0.00  0.00    -0.234 N 
ATOM     11  N   UNL     1       0.456   1.946  25.440  0.00  0.00    -0.170 NA
ATOM     12  C   UNL     1      -0.068   2.486  25.779  0.00  0.00    +0.077 A 
ATOM     13  C   UNL     1      -0.068   2.732  26.567  0.00  0.00    +0.054 C 
ATOM     14  C   UNL     1      -0.591   2.737  25.193  0.00  0.00    +0.010 A 
ATOM     30  C   UNL     1      -0.391   2.353  24.491  0.00  0.00    +0.058 A 
ATOM     31  C   UNL     1      -0.771   2.441  23.763  0.00  0.00    +0.052 C 
ENDROOT
BRANCH  10   7
ATOM      4  C   UNL     1       1.398   0.406  23.001  0.00  0.00    -0.022 A 
ATOM      5  C   UNL     1       0.671   0.180  23.319  0.00  0.00    -0.003 A 
ATOM      6  C   UNL     1       0.291   0.666  23.867  0.00  0.00    +0.019 A 
ATOM      7  C   UNL     1       0.637   1.378  24.096  0.00  0.00    +0.082 A 
ATOM      8  C   UNL     1       1.363   1.605  23.778  0.00  0.00    +0.019 A 
ATOM      9  C   UNL     1       1.743   1.119  23.231  0.00  0.00    -0.003 A 
BRANCH   4   2
ATOM      1  C   UNL     1       1.337  -0.502  21.901  0.00  0.00    +0.005 C 
ATOM      2  C   UNL     1       1.778  -0.080  22.454  0.00  0.00    +0.022 C 
ATOM      3  C   UNL     1       2.600  -0.143  22.460  0.00  0.00    +0.005 C 
ENDBRANCH   4   2
ENDBRANCH  10   7
BRANCH  14  15
ATOM     15  C   UNL     1      -1.206   3.278  25.291  0.00  0.00    +0.048 C 
ATOM     16  C   UNL     1      -1.995   3.092  25.450  0.00  0.00    +0.031 C 
ATOM     17  C   UNL     1      -2.416   3.799  25.504  0.00  0.00    +0.095 C 
ATOM     28  C   UNL     1      -1.891   4.421  25.378  0.00  0.00    -0.013 C 
ATOM     29  C   UNL     1      -1.142   4.099  25.247  0.00  0.00    -0.025 C 
BRANCH  17  18
ATOM     18  N   UNL     1      -3.224   3.870  25.657  0.00  0.00    -0.210 NA
BRANCH  18  19
ATOM     19  C   UNL     1      -3.771   3.751  25.051  0.00  0.00    +0.115 C 
BRANCH  19  20
ATOM     20  C   UNL     1      -4.489   3.377  25.211  0.00  0.00    -0.004 A 
ATOM     21  C   UNL     1      -5.108   3.801  25.554  0.00  0.00    -0.003 A 
ATOM     22  C   UNL     1      -5.825   3.427  25.713  0.00  0.00    +0.000 A 
ATOM     23  C   UNL     1      -5.925   2.629  25.530  0.00  0.00    +0.010 A 
ATOM     24  C   UNL     1      -5.306   2.205  25.186  0.00  0.00    +0.068 A 
ATOM     25  C   UNL     1      -4.588   2.578  25.027  0.00  0.00    +0.007 A 
BRANCH  24  26
ATOM     26  C   UNL     1      -5.405   1.407  25.003  0.00  0.00    +0.100 C 
ATOM     27  N   UNL     1      -5.505   0.608  24.819  0.00  0.00    -0.191 NA
ENDBRANCH  24  26
ENDBRANCH  19  20
ENDBRANCH  18  19
ENDBRANCH  17  18
ENDBRANCH  14  15
TORSDOF 7
ENDMDL
MODEL 9
REMARK VINA RESULT:     -10.5      2.645      4.886
REMARK  Name = 
REMARK  7 active torsions:
REMARK  status: ('A' for Active; 'I' for Inactive)
REMARK    1  A    between atoms: C_2  and  C_4
REMARK    2  A    between atoms: C_7  and  N_10
REMARK    3  A    between atoms: C_14  and  C_15
REMARK    4  A    between atoms: C_17  and  N_18
REMARK    5  A    between atoms: N_18  and  C_19
REMARK    6  A    between atoms: C_19  and  C_20
REMARK    7  A    between atoms: C_24  and  C_26
REMARK                            x       y       z     vdW  Elec       q    Type
REMARK                         _______ _______ _______ _____ _____    ______ ____
ROOT
ATOM     10  N   UNL     1      -0.548  -0.488  24.317  0.00  0.00    -0.234 N 
ATOM     11  N   UNL     1      -0.574  -0.966  24.989  0.00  0.00    -0.170 NA
ATOM     12  C   UNL     1      -1.364  -1.039  25.219  0.00  0.00    +0.077 A 
ATOM     13  C   UNL     1      -1.642  -1.469  25.865  0.00  0.00    +0.054 C 
ATOM     14  C   UNL     1      -1.825  -0.605  24.690  0.00  0.00    +0.010 A 
ATOM     30  C   UNL     1      -1.320  -0.265  24.132  0.00  0.00    +0.058 A 
ATOM     31  C   UNL     1      -1.549   0.215  23.501  0.00  0.00    +0.052 C 
ENDROOT
BRANCH  10   7
ATOM      4  C   UNL     1       1.491   0.163  23.074  0.00  0.00    -0.022 A 
ATOM      5  C   UNL     1       1.169  -0.590  22.973  0.00  0.00    -0.003 A 
ATOM      6  C   UNL     1       0.489  -0.807  23.387  0.00  0.00    +0.019 A 
ATOM      7  C   UNL     1       0.132  -0.271  23.902  0.00  0.00    +0.082 A 
ATOM      8  C   UNL     1       0.453   0.481  24.004  0.00  0.00    +0.019 A 
ATOM      9  C   UNL     1       1.133   0.698  23.589  0.00  0.00    -0.003 A 
BRANCH   4   2
ATOM      1  C   UNL     1       2.338   0.032  21.931  0.00  0.00    +0.005 C 
ATOM      2  C   UNL     1       2.171   0.380  22.660  0.00  0.00    +0.022 C 
ATOM      3  C   UNL     1       2.683   0.944  22.975  0.00  0.00    +0.005 C 
ENDBRANCH   4   2
ENDBRANCH  10   7
BRANCH  14  15
ATOM     15  C   UNL     1      -2.645  -0.526  24.714  0.00  0.00    +0.048 C 
ATOM     16  C   UNL     1      -3.062   0.095  25.064  0.00  0.00    +0.031 C 
ATOM     17  C   UNL     1      -3.868  -0.049  24.958  0.00  0.00    +0.095 C 
ATOM     28  C   UNL     1      -3.949  -0.757  24.543  0.00  0.00    -0.013 C 
ATOM     29  C   UNL     1      -3.193  -1.052  24.392  0.00  0.00    -0.025 C 
BRANCH  17  18
ATOM     18  N   UNL     1      -4.484   0.432  25.221  0.00  0.00    -0.210 NA
BRANCH  18  19
ATOM     19  C   UNL     1      -4.778   1.030  24.735  0.00  0.00    +0.115 C 
BRANCH  19  20
ATOM     20  C   UNL     1      -5.133   1.696  25.068  0.00  0.00    -0.004 A 
ATOM     21  C   UNL     1      -5.873   1.635  25.425  0.00  0.00    -0.003 A 
ATOM     22  C   UNL     1      -6.228   2.300  25.757  0.00  0.00    +0.000 A 
ATOM     23  C   UNL     1      -5.842   3.029  25.733  0.00  0.00    +0.010 A 
ATOM     24  C   UNL     1      -5.100   3.091  25.376  0.00  0.00    +0.068 A 
ATOM     25  C   UNL     1      -4.746   2.425  25.043  0.00  0.00    +0.007 A 
BRANCH  24  26
ATOM     26  C   UNL     1      -4.714   3.819  25.352  0.00  0.00    +0.100 C 
ATOM     27  N   UNL     1      -4.328   4.549  25.327  0.00  0.00    -0.191 NA
ENDBRANCH  24  26
ENDBRANCH  19  20
ENDBRANCH  18  19
ENDBRANCH  17  18
ENDBRANCH  14  15
TORSDOF 7
ENDMDL
