MODEL 1
REMARK VINA RESULT:     -10.2      0.000      0.000
REMARK  Name = 
REMARK  9 active torsions:
REMARK  status: ('A' for Active; 'I' for Inactive)
REMARK    1  A    between atoms: C_2  and  C_4
REMARK    2  A    between atoms: C_6  and  C_7
REMARK    3  A    between atoms: C_7  and  C_8
REMARK    4  A    between atoms: C_11  and  C_13
REMARK    5  A    between atoms: C_20  and  C_21
REMARK    6  A    between atoms: C_21  and  N_22
REMARK    7  A    between atoms: N_22  and  C_23
REMARK    8  A    between atoms: C_23  and  C_24
REMARK    9  A    between atoms: C_24  and  N_25
REMARK                            x       y       z     vdW  Elec       q    Type
REMARK                         _______ _______ _______ _____ _____    ______ ____
ROOT
ATOM      4  C   UNL     1      -3.396   1.895  23.905  0.00  0.00    +0.006 C 
ATOM      5  C   UNL     1      -3.383   2.676  24.169  0.00  0.00    +0.005 C 
ATOM      6  C   UNL     1      -3.922   2.928  24.741  0.00  0.00    +0.027 C 
ATOM     17  C   UNL     1      -4.474   2.398  25.048  0.00  0.00    -0.048 C 
ATOM     18  C   UNL     1      -5.014   2.650  25.620  0.00  0.00    +0.026 C 
ATOM     19  C   UNL     1      -4.488   1.616  24.784  0.00  0.00    -0.033 C 
ATOM     20  C   UNL     1      -3.948   1.365  24.213  0.00  0.00    +0.039 C 
ENDROOT
BRANCH   4   2
ATOM      1  C   UNL     1      -3.038   1.724  22.532  0.00  0.00    +0.000 C 
ATOM      2  C   UNL     1      -2.857   1.644  23.334  0.00  0.00    +0.000 C 
ATOM      3  C   UNL     1      -2.137   1.312  23.563  0.00  0.00    +0.000 C 
ENDBRANCH   4   2
BRANCH   6   7
ATOM      7  C   UNL     1      -3.909   3.709  25.004  0.00  0.00    +0.091 C 
BRANCH   7   8
ATOM      8  C   UNL     1      -3.203   4.040  25.277  0.00  0.00    +0.226 A 
ATOM      9  N   UNL     1      -2.949   4.060  26.061  0.00  0.00    -0.112 NA
ATOM     10  N   UNL     1      -2.217   4.442  26.082  0.00  0.00    -0.112 NA
ATOM     11  C   UNL     1      -2.021   4.658  25.311  0.00  0.00    +0.225 A 
ATOM     12  O   UNL     1      -2.630   4.409  24.813  0.00  0.00    -0.423 OA
BRANCH  11  13
ATOM     13  C   UNL     1      -1.335   5.052  25.077  0.00  0.00    +0.070 C 
ATOM     14  C   UNL     1      -0.649   5.447  24.844  0.00  0.00    +0.009 C 
ATOM     15  C   UNL     1      -0.910   4.348  25.134  0.00  0.00    +0.009 C 
ATOM     16  C   UNL     1      -1.759   5.757  25.020  0.00  0.00    +0.009 C 
ENDBRANCH  11  13
ENDBRANCH   7   8
ENDBRANCH   6   7
BRANCH  20  21
ATOM     21  C   UNL     1      -3.962   0.582  23.948  0.00  0.00    +0.093 C 
BRANCH  21  22
ATOM     22  N   UNL     1      -4.273  -0.010  24.431  0.00  0.00    -0.216 NA
BRANCH  22  23
ATOM     23  C   UNL     1      -4.159  -0.803  24.234  0.00  0.00    +0.106 C 
BRANCH  23  24
ATOM     24  C   UNL     1      -3.992  -1.355  24.824  0.00  0.00    +0.091 C 
BRANCH  24  25
ATOM     25  N   UNL     1      -3.527  -2.014  24.652  0.00  0.00    -0.267 NA
ATOM     26  C   UNL     1      -2.724  -2.014  24.847  0.00  0.00    +0.105 C 
ATOM     27  C   UNL     1      -2.260  -2.674  24.675  0.00  0.00    +0.159 C 
ATOM     28  O   UNL     1      -2.595  -3.331  24.309  0.00  0.00    -0.351 OA
ATOM     29  C   UNL     1      -3.397  -3.331  24.114  0.00  0.00    +0.159 C 
ATOM     30  C   UNL     1      -3.863  -2.671  24.286  0.00  0.00    +0.105 C 
ENDBRANCH  24  25
ENDBRANCH  23  24
ENDBRANCH  22  23
ENDBRANCH  21  22
ENDBRANCH  20  21
TORSDOF 9
ENDMDL
MODEL 2
REMARK VINA RESULT:      -9.9      3.655      6.068
REMARK  Name = 
REMARK  9 active torsions:
REMARK  status: ('A' for Active; 'I' for Inactive)
REMARK    1  A    between atoms: C_2  and  C_4
REMARK    2  A    between atoms: C_6  and  C_7
REMARK    3  A    between atoms: C_7  and  C_8
REMARK    4  A    between atoms: C_11  and  C_13
REMARK    5  A    between atoms: C_20  and  C_21
REMARK    6  A    between atoms: C_21  and  N_22
REMARK    7  A    between atoms: N_22  and  C_23
REMARK    8  A    between atoms: C_23  and  C_24
REMARK    9  A    between atoms: C_24  and  N_25
REMARK                            x       y       z     vdW  Elec       q    Type
REMARK                         _______ _______ _______ _____ _____    ______ ____
ROOT
ATOM      4  C   UNL     1      -0.853   0.552  24.303  0.00  0.00    +0.006 C 
ATOM      5  C   UNL     1      -1.387   0.194  24.820  0.00  0.00    +0.005 C 
ATOM      6  C   UNL     1      -1.228  -0.556  25.124  0.00  0.00    +0.027 C 
ATOM     17  C   UNL     1      -0.534  -0.948  24.911  0.00  0.00    -0.048 C 
ATOM     18  C   UNL     1      -0.375  -1.699  25.216  0.00  0.00    +0.026 C 
ATOM     19  C   UNL     1       0.000  -0.591  24.394  0.00  0.00    -0.033 C 
ATOM     20  C   UNL     1      -0.159   0.159  24.090  0.00  0.00    +0.039 C 
ENDROOT
BRANCH   4   2
ATOM      1  C   UNL     1      -0.727   1.973  24.385  0.00  0.00    +0.000 C 
ATOM      2  C   UNL     1      -1.012   1.302  23.999  0.00  0.00    +0.000 C 
ATOM      3  C   UNL     1      -1.456   1.381  23.308  0.00  0.00    +0.000 C 
ENDBRANCH   4   2
BRANCH   6   7
ATOM      7  C   UNL     1      -1.762  -0.913  25.640  0.00  0.00    +0.091 C 
BRANCH   7   8
ATOM      8  C   UNL     1      -2.532  -1.074  25.391  0.00  0.00    +0.226 A 
ATOM      9  N   UNL     1      -3.220  -0.731  25.690  0.00  0.00    -0.112 NA
ATOM     10  N   UNL     1      -3.862  -1.051  25.283  0.00  0.00    -0.112 NA
ATOM     11  C   UNL     1      -3.571  -1.592  24.733  0.00  0.00    +0.225 A 
ATOM     12  O   UNL     1      -2.748  -1.606  24.800  0.00  0.00    -0.423 OA
BRANCH  11  13
ATOM     13  C   UNL     1      -4.022  -2.041  24.208  0.00  0.00    +0.070 C 
ATOM     14  C   UNL     1      -4.473  -2.489  23.682  0.00  0.00    +0.009 C 
ATOM     15  C   UNL     1      -4.330  -1.349  23.882  0.00  0.00    +0.009 C 
ATOM     16  C   UNL     1      -3.714  -2.732  24.533  0.00  0.00    +0.009 C 
ENDBRANCH  11  13
ENDBRANCH   7   8
ENDBRANCH   6   7
BRANCH  20  21
ATOM     21  C   UNL     1       0.376   0.517  23.572  0.00  0.00    +0.093 C 
BRANCH  21  22
ATOM     22  N   UNL     1       0.989   0.074  23.243  0.00  0.00    -0.216 NA
BRANCH  22  23
ATOM     23  C   UNL     1       1.718   0.430  23.092  0.00  0.00    +0.106 C 
BRANCH  23  24
ATOM     24  C   UNL     1       2.282   0.036  22.635  0.00  0.00    +0.091 C 
BRANCH  24  25
ATOM     25  N   UNL     1       3.085   0.179  22.758  0.00  0.00    -0.267 NA
ATOM     26  C   UNL     1       3.558  -0.403  23.103  0.00  0.00    +0.105 C 
ATOM     27  C   UNL     1       4.361  -0.260  23.227  0.00  0.00    +0.159 C 
ATOM     28  O   UNL     1       4.691   0.462  23.007  0.00  0.00    -0.351 OA
ATOM     29  C   UNL     1       4.218   1.043  22.662  0.00  0.00    +0.159 C 
ATOM     30  C   UNL     1       3.414   0.901  22.538  0.00  0.00    +0.105 C 
ENDBRANCH  24  25
ENDBRANCH  23  24
ENDBRANCH  22  23
ENDBRANCH  21  22
ENDBRANCH  20  21
TORSDOF 9
ENDMDL
MODEL 3
REMARK VINA RESULT:      -9.8      2.785      4.328
REMARK  Name = 
REMARK  9 active torsions:
REMARK  status: ('A' for Active; 'I' for Inactive)
REMARK    1  A    between atoms: C_2  and  C_4
REMARK    2  A    between atoms: C_6  and  C_7
REMARK    3  A    between atoms: C_7  and  C_8
REMARK    4  A    between atoms: C_11  and  C_13
REMARK    5  A    between atoms: C_20  and  C_21
REMARK    6  A    between atoms: C_21  and  N_22
REMARK    7  A    between atoms: N_22  and  C_23
REMARK    8  A    between atoms: C_23  and  C_24
REMARK    9  A    between atoms: C_24  and  N_25
REMARK                            x       y       z     vdW  Elec       q    Type
REMARK                         _______ _______ _______ _____ _____    ______ ____
ROOT
ATOM      4  C   UNL     1      -1.643   2.686  24.560  0.00  0.00    +0.006 C 
ATOM      5  C   UNL     1      -2.392   2.996  24.408  0.00  0.00    +0.005 C 
ATOM      6  C   UNL     1      -2.839   2.707  23.778  0.00  0.00    +0.027 C 
ATOM     17  C   UNL     1      -2.537   2.107  23.300  0.00  0.00    -0.048 C 
ATOM     18  C   UNL     1      -2.984   1.817  22.669  0.00  0.00    +0.026 C 
ATOM     19  C   UNL     1      -1.787   1.796  23.451  0.00  0.00    -0.033 C 
ATOM     20  C   UNL     1      -1.341   2.085  24.081  0.00  0.00    +0.039 C 
ENDROOT
BRANCH   4   2
ATOM      1  C   UNL     1      -1.205   2.584  25.916  0.00  0.00    +0.000 C 
ATOM      2  C   UNL     1      -1.196   2.975  25.190  0.00  0.00    +0.000 C 
ATOM      3  C   UNL     1      -0.741   3.656  25.094  0.00  0.00    +0.000 C 
ENDBRANCH   4   2
BRANCH   6   7
ATOM      7  C   UNL     1      -3.587   3.017  23.627  0.00  0.00    +0.091 C 
BRANCH   7   8
ATOM      8  C   UNL     1      -4.146   3.062  24.234  0.00  0.00    +0.226 A 
ATOM      9  N   UNL     1      -4.331   3.735  24.673  0.00  0.00    -0.112 NA
ATOM     10  N   UNL     1      -4.917   3.530  25.217  0.00  0.00    -0.112 NA
ATOM     11  C   UNL     1      -5.092   2.731  25.114  0.00  0.00    +0.225 A 
ATOM     12  O   UNL     1      -4.616   2.441  24.506  0.00  0.00    -0.423 OA
BRANCH  11  13
ATOM     13  C   UNL     1      -5.647   2.297  25.543  0.00  0.00    +0.070 C 
ATOM     14  C   UNL     1      -6.202   1.862  25.973  0.00  0.00    +0.009 C 
ATOM     15  C   UNL     1      -5.454   2.722  26.223  0.00  0.00    +0.009 C 
ATOM     16  C   UNL     1      -5.841   1.871  24.864  0.00  0.00    +0.009 C 
ENDBRANCH  11  13
ENDBRANCH   7   8
ENDBRANCH   6   7
BRANCH  20  21
ATOM     21  C   UNL     1      -0.591   1.775  24.233  0.00  0.00    +0.093 C 
BRANCH  21  22
ATOM     22  N   UNL     1      -0.344   1.088  23.849  0.00  0.00    -0.216 NA
BRANCH  22  23
ATOM     23  C   UNL     1       0.457   0.966  23.697  0.00  0.00    +0.106 C 
BRANCH  23  24
ATOM     24  C   UNL     1       0.723   0.223  23.456  0.00  0.00    +0.091 C 
BRANCH  24  25
ATOM     25  N   UNL     1       1.393   0.159  22.979  0.00  0.00    -0.267 NA
ATOM     26  C   UNL     1       1.346  -0.230  22.252  0.00  0.00    +0.105 C 
ATOM     27  C   UNL     1       2.015  -0.293  21.775  0.00  0.00    +0.159 C 
ATOM     28  O   UNL     1       2.731   0.032  22.022  0.00  0.00    -0.351 OA
ATOM     29  C   UNL     1       2.778   0.421  22.748  0.00  0.00    +0.159 C 
ATOM     30  C   UNL     1       2.108   0.485  23.226  0.00  0.00    +0.105 C 
ENDBRANCH  24  25
ENDBRANCH  23  24
ENDBRANCH  22  23
ENDBRANCH  21  22
ENDBRANCH  20  21
TORSDOF 9
ENDMDL
MODEL 4
REMARK VINA RESULT:      -9.7      0.916      5.612
REMARK  Name = 
REMARK  9 active torsions:
REMARK  status: ('A' for Active; 'I' for Inactive)
REMARK    1  A    between atoms: C_2  and  C_4
REMARK    2  A    between atoms: C_6  and  C_7
REMARK    3  A    between atoms: C_7  and  C_8
REMARK    4  A    between atoms: C_11  and  C_13
REMARK    5  A    between atoms: C_20  and  C_21
REMARK    6  A    between atoms: C_21  and  N_22
REMARK    7  A    between atoms: N_22  and  C_23
REMARK    8  A    between atoms: C_23  and  C_24
REMARK    9  A    between atoms: C_24  and  N_25
REMARK                            x       y       z     vdW  Elec       q    Type
REMARK                         _______ _______ _______ _____ _____    ______ ____
ROOT
ATOM      4  C   UNL     1      -3.445   1.407  23.874  0.00  0.00    +0.006 C 
ATOM      5  C   UNL     1      -3.762   0.652  23.976  0.00  0.00    +0.005 C 
ATOM      6  C   UNL     1      -4.381   0.532  24.508  0.00  0.00    +0.027 C 
ATOM     17  C   UNL     1      -4.684   1.167  24.938  0.00  0.00    -0.048 C 
ATOM     18  C   UNL     1      -5.304   1.046  25.470  0.00  0.00    +0.026 C 
ATOM     19  C   UNL     1      -4.368   1.922  24.837  0.00  0.00    -0.033 C 
ATOM     20  C   UNL     1      -3.749   2.043  24.305  0.00  0.00    +0.039 C 
ENDROOT
BRANCH   4   2
ATOM      1  C   UNL     1      -2.057   1.314  23.551  0.00  0.00    +0.000 C 
ATOM      2  C   UNL     1      -2.827   1.527  23.344  0.00  0.00    +0.000 C 
ATOM      3  C   UNL     1      -2.976   1.861  22.604  0.00  0.00    +0.000 C 
ENDBRANCH   4   2
BRANCH   6   7
ATOM      7  C   UNL     1      -4.697  -0.223  24.608  0.00  0.00    +0.091 C 
BRANCH   7   8
ATOM      8  C   UNL     1      -4.204  -0.851  24.820  0.00  0.00    +0.226 A 
ATOM      9  N   UNL     1      -3.894  -0.991  25.572  0.00  0.00    -0.112 NA
ATOM     10  N   UNL     1      -3.435  -1.676  25.534  0.00  0.00    -0.112 NA
ATOM     11  C   UNL     1      -3.461  -1.958  24.759  0.00  0.00    +0.225 A 
ATOM     12  O   UNL     1      -3.938  -1.448  24.318  0.00  0.00    -0.423 OA
BRANCH  11  13
ATOM     13  C   UNL     1      -3.080  -2.631  24.474  0.00  0.00    +0.070 C 
ATOM     14  C   UNL     1      -2.697  -3.305  24.190  0.00  0.00    +0.009 C 
ATOM     15  C   UNL     1      -2.354  -2.319  24.710  0.00  0.00    +0.009 C 
ATOM     16  C   UNL     1      -3.805  -2.944  24.239  0.00  0.00    +0.009 C 
ENDBRANCH  11  13
ENDBRANCH   7   8
ENDBRANCH   6   7
BRANCH  20  21
ATOM     21  C   UNL     1      -3.432   2.798  24.204  0.00  0.00    +0.093 C 
BRANCH  21  22
ATOM     22  N   UNL     1      -3.443   3.336  24.829  0.00  0.00    -0.216 NA
BRANCH  22  23
ATOM     23  C   UNL     1      -3.017   4.040  24.773  0.00  0.00    +0.106 C 
BRANCH  23  24
ATOM     24  C   UNL     1      -2.503   4.261  25.381  0.00  0.00    +0.091 C 
BRANCH  24  25
ATOM     25  N   UNL     1      -1.796   4.646  25.202  0.00  0.00    -0.267 NA
ATOM     26  C   UNL     1      -1.090   4.218  25.173  0.00  0.00    +0.105 C 
ATOM     27  C   UNL     1      -0.382   4.604  24.995  0.00  0.00    +0.159 C 
ATOM     28  O   UNL     1      -0.380   5.414  24.845  0.00  0.00    -0.351 OA
ATOM     29  C   UNL     1      -1.085   5.841  24.874  0.00  0.00    +0.159 C 
ATOM     30  C   UNL     1      -1.793   5.456  25.053  0.00  0.00    +0.105 C 
ENDBRANCH  24  25
ENDBRANCH  23  24
ENDBRANCH  22  23
ENDBRANCH  21  22
ENDBRANCH  20  21
TORSDOF 9
ENDMDL
MODEL 5
REMARK VINA RESULT:      -9.2      2.006      6.157
REMARK  Name = 
REMARK  9 active torsions:
REMARK  status: ('A' for Active; 'I' for Inactive)
REMARK    1  A    between atoms: C_2  and  C_4
REMARK    2  A    between atoms: C_6  and  C_7
REMARK    3  A    between atoms: C_7  and  C_8
REMARK    4  A    between atoms: C_11  and  C_13
REMARK    5  A    between atoms: C_20  and  C_21
REMARK    6  A    between atoms: C_21  and  N_22
REMARK    7  A    between atoms: N_22  and  C_23
REMARK    8  A    between atoms: C_23  and  C_24
REMARK    9  A    between atoms: C_24  and  N_25
REMARK                            x       y       z     vdW  Elec       q    Type
REMARK                         _______ _______ _______ _____ _____    ______ ____
ROOT
ATOM      4  C   UNL     1      -0.402   0.078  24.266  0.00  0.00    +0.006 C 
ATOM      5  C   UNL     1      -0.640  -0.699  24.406  0.00  0.00    +0.005 C 
ATOM      6  C   UNL     1      -0.954  -0.910  25.139  0.00  0.00    +0.027 C 
ATOM     17  C   UNL     1      -1.030  -0.343  25.732  0.00  0.00    -0.048 C 
ATOM     18  C   UNL     1      -1.345  -0.553  26.467  0.00  0.00    +0.026 C 
ATOM     19  C   UNL     1      -0.793   0.435  25.594  0.00  0.00    -0.033 C 
ATOM     20  C   UNL     1      -0.479   0.646  24.860  0.00  0.00    +0.039 C 
ENDROOT
BRANCH   4   2
ATOM      1  C   UNL     1      -0.570   0.642  22.964  0.00  0.00    +0.000 C 
ATOM      2  C   UNL     1      -0.088   0.288  23.533  0.00  0.00    +0.000 C 
ATOM      3  C   UNL     1       0.707   0.146  23.369  0.00  0.00    +0.000 C 
ENDBRANCH   4   2
BRANCH   6   7
ATOM      7  C   UNL     1      -1.191  -1.687  25.278  0.00  0.00    +0.091 C 
BRANCH   7   8
ATOM      8  C   UNL     1      -1.782  -2.027  24.812  0.00  0.00    +0.226 A 
ATOM      9  N   UNL     1      -1.672  -2.613  24.242  0.00  0.00    -0.112 NA
ATOM     10  N   UNL     1      -2.408  -2.790  23.913  0.00  0.00    -0.112 NA
ATOM     11  C   UNL     1      -2.972  -2.313  24.281  0.00  0.00    +0.225 A 
ATOM     12  O   UNL     1      -2.585  -1.841  24.837  0.00  0.00    -0.423 OA
BRANCH  11  13
ATOM     13  C   UNL     1      -3.781  -2.307  24.121  0.00  0.00    +0.070 C 
ATOM     14  C   UNL     1      -4.591  -2.303  23.961  0.00  0.00    +0.009 C 
ATOM     15  C   UNL     1      -3.839  -3.086  24.387  0.00  0.00    +0.009 C 
ATOM     16  C   UNL     1      -3.725  -1.529  23.855  0.00  0.00    +0.009 C 
ENDBRANCH  11  13
ENDBRANCH   7   8
ENDBRANCH   6   7
BRANCH  20  21
ATOM     21  C   UNL     1      -0.241   1.424  24.721  0.00  0.00    +0.093 C 
BRANCH  21  22
ATOM     22  N   UNL     1      -0.360   2.001  25.299  0.00  0.00    -0.216 NA
BRANCH  22  23
ATOM     23  C   UNL     1      -0.485   2.786  25.077  0.00  0.00    +0.106 C 
BRANCH  23  24
ATOM     24  C   UNL     1      -0.652   3.355  25.651  0.00  0.00    +0.091 C 
BRANCH  24  25
ATOM     25  N   UNL     1      -1.074   4.034  25.447  0.00  0.00    -0.267 NA
ATOM     26  C   UNL     1      -0.699   4.642  25.034  0.00  0.00    +0.105 C 
ATOM     27  C   UNL     1      -1.120   5.322  24.830  0.00  0.00    +0.159 C 
ATOM     28  O   UNL     1      -1.914   5.393  25.039  0.00  0.00    -0.351 OA
ATOM     29  C   UNL     1      -2.289   4.785  25.452  0.00  0.00    +0.159 C 
ATOM     30  C   UNL     1      -1.867   4.105  25.657  0.00  0.00    +0.105 C 
ENDBRANCH  24  25
ENDBRANCH  23  24
ENDBRANCH  22  23
ENDBRANCH  21  22
ENDBRANCH  20  21
TORSDOF 9
ENDMDL
MODEL 6
REMARK VINA RESULT:      -9.2      3.353      4.689
REMARK  Name = 
REMARK  9 active torsions:
REMARK  status: ('A' for Active; 'I' for Inactive)
REMARK    1  A    between atoms: C_2  and  C_4
REMARK    2  A    between atoms: C_6  and  C_7
REMARK    3  A    between atoms: C_7  and  C_8
REMARK    4  A    between atoms: C_11  and  C_13
REMARK    5  A    between atoms: C_20  and  C_21
REMARK    6  A    between atoms: C_21  and  N_22
REMARK    7  A    between atoms: N_22  and  C_23
REMARK    8  A    between atoms: C_23  and  C_24
REMARK    9  A    between atoms: C_24  and  N_25
REMARK                            x       y       z     vdW  Elec       q    Type
REMARK                         _______ _______ _______ _____ _____    ______ ____
ROOT
ATOM      4  C   UNL     1      -1.348   0.749  24.731  0.00  0.00    +0.006 C 
ATOM      5  C   UNL     1      -1.888   1.324  24.971  0.00  0.00    +0.005 C 
ATOM      6  C   UNL     1      -1.754   2.118  24.793  0.00  0.00    +0.027 C 
ATOM     17  C   UNL     1      -1.078   2.337  24.374  0.00  0.00    -0.048 C 
ATOM     18  C   UNL     1      -0.943   3.132  24.195  0.00  0.00    +0.026 C 
ATOM     19  C   UNL     1      -0.537   1.763  24.132  0.00  0.00    -0.033 C 
ATOM     20  C   UNL     1      -0.672   0.968  24.311  0.00  0.00    +0.039 C 
ENDROOT
BRANCH   4   2
ATOM      1  C   UNL     1      -1.898  -0.522  24.379  0.00  0.00    +0.000 C 
ATOM      2  C   UNL     1      -1.483  -0.044  24.909  0.00  0.00    +0.000 C 
ATOM      3  C   UNL     1      -1.204  -0.362  25.618  0.00  0.00    +0.000 C 
ENDBRANCH   4   2
BRANCH   6   7
ATOM      7  C   UNL     1      -2.294   2.692  25.033  0.00  0.00    +0.091 C 
BRANCH   7   8
ATOM      8  C   UNL     1      -3.091   2.619  24.831  0.00  0.00    +0.226 A 
ATOM      9  N   UNL     1      -3.416   2.757  24.086  0.00  0.00    -0.112 NA
ATOM     10  N   UNL     1      -4.229   2.618  24.133  0.00  0.00    -0.112 NA
ATOM     11  C   UNL     1      -4.404   2.394  24.907  0.00  0.00    +0.225 A 
ATOM     12  O   UNL     1      -3.701   2.395  25.339  0.00  0.00    -0.423 OA
BRANCH  11  13
ATOM     13  C   UNL     1      -5.152   2.203  25.199  0.00  0.00    +0.070 C 
ATOM     14  C   UNL     1      -5.900   2.012  25.491  0.00  0.00    +0.009 C 
ATOM     15  C   UNL     1      -5.111   1.470  24.824  0.00  0.00    +0.009 C 
ATOM     16  C   UNL     1      -5.193   2.936  25.574  0.00  0.00    +0.009 C 
ENDBRANCH  11  13
ENDBRANCH   7   8
ENDBRANCH   6   7
BRANCH  20  21
ATOM     21  C   UNL     1      -0.131   0.393  24.070  0.00  0.00    +0.093 C 
BRANCH  21  22
ATOM     22  N   UNL     1       0.405   0.560  23.466  0.00  0.00    -0.216 NA
BRANCH  22  23
ATOM     23  C   UNL     1       1.140   0.185  23.453  0.00  0.00    +0.106 C 
BRANCH  23  24
ATOM     24  C   UNL     1       1.594   0.193  22.763  0.00  0.00    +0.091 C 
BRANCH  24  25
ATOM     25  N   UNL     1       2.418   0.189  22.813  0.00  0.00    -0.267 NA
ATOM     26  C   UNL     1       2.842   0.885  22.684  0.00  0.00    +0.105 C 
ATOM     27  C   UNL     1       3.665   0.881  22.734  0.00  0.00    +0.159 C 
ATOM     28  O   UNL     1       4.064   0.183  22.913  0.00  0.00    -0.351 OA
ATOM     29  C   UNL     1       3.641  -0.513  23.041  0.00  0.00    +0.159 C 
ATOM     30  C   UNL     1       2.817  -0.510  22.992  0.00  0.00    +0.105 C 
ENDBRANCH  24  25
ENDBRANCH  23  24
ENDBRANCH  22  23
ENDBRANCH  21  22
ENDBRANCH  20  21
TORSDOF 9
ENDMDL
MODEL 7
REMARK VINA RESULT:      -6.4     14.762     17.713
REMARK  Name = 
REMARK  9 active torsions:
REMARK  status: ('A' for Active; 'I' for Inactive)
REMARK    1  A    between atoms: C_2  and  C_4
REMARK    2  A    between atoms: C_6  and  C_7
REMARK    3  A    between atoms: C_7  and  C_8
REMARK    4  A    between atoms: C_11  and  C_13
REMARK    5  A    between atoms: C_20  and  C_21
REMARK    6  A    between atoms: C_21  and  N_22
REMARK    7  A    between atoms: N_22  and  C_23
REMARK    8  A    between atoms: C_23  and  C_24
REMARK    9  A    between atoms: C_24  and  N_25
REMARK                            x       y       z     vdW  Elec       q    Type
REMARK                         _______ _______ _______ _____ _____    ______ ____
ROOT
ATOM      4  C   UNL     1      -6.210  -9.113  10.873  0.00  0.00    +0.006 C 
ATOM      5  C   UNL     1      -6.691  -9.078  10.204  0.00  0.00    +0.005 C 
ATOM      6  C   UNL     1      -7.495  -9.253  10.264  0.00  0.00    +0.027 C 
ATOM     17  C   UNL     1      -7.818  -9.462  10.993  0.00  0.00    -0.048 C 
ATOM     18  C   UNL     1      -8.623  -9.637  11.053  0.00  0.00    +0.026 C 
ATOM     19  C   UNL     1      -7.338  -9.497  11.663  0.00  0.00    -0.033 C 
ATOM     20  C   UNL     1      -6.534  -9.322  11.603  0.00  0.00    +0.039 C 
ENDROOT
BRANCH   4   2
ATOM      1  C   UNL     1      -4.865  -9.538  10.647  0.00  0.00    +0.000 C 
ATOM      2  C   UNL     1      -5.407  -8.938  10.814  0.00  0.00    +0.000 C 
ATOM      3  C   UNL     1      -5.143  -8.164  10.920  0.00  0.00    +0.000 C 
ENDBRANCH   4   2
BRANCH   6   7
ATOM      7  C   UNL     1      -7.975  -9.219   9.595  0.00  0.00    +0.091 C 
BRANCH   7   8
ATOM      8  C   UNL     1      -7.958  -8.551   9.109  0.00  0.00    +0.226 A 
ATOM      9  N   UNL     1      -7.487  -8.452   8.439  0.00  0.00    -0.112 NA
ATOM     10  N   UNL     1      -7.647  -7.706   8.124  0.00  0.00    -0.112 NA
ATOM     11  C   UNL     1      -8.217  -7.345   8.599  0.00  0.00    +0.225 A 
ATOM     12  O   UNL     1      -8.409  -7.868   9.208  0.00  0.00    -0.423 OA
BRANCH  11  13
ATOM     13  C   UNL     1      -8.538  -6.594   8.486  0.00  0.00    +0.070 C 
ATOM     14  C   UNL     1      -8.860  -5.843   8.374  0.00  0.00    +0.009 C 
ATOM     15  C   UNL     1      -9.289  -6.889   8.658  0.00  0.00    +0.009 C 
ATOM     16  C   UNL     1      -7.788  -6.299   8.315  0.00  0.00    +0.009 C 
ENDBRANCH  11  13
ENDBRANCH   7   8
ENDBRANCH   6   7
BRANCH  20  21
ATOM     21  C   UNL     1      -6.052  -9.357  12.274  0.00  0.00    +0.093 C 
BRANCH  21  22
ATOM     22  N   UNL     1      -6.348  -9.669  12.977  0.00  0.00    -0.216 NA
BRANCH  22  23
ATOM     23  C   UNL     1      -5.860  -9.727  13.639  0.00  0.00    +0.106 C 
BRANCH  23  24
ATOM     24  C   UNL     1      -6.127 -10.117  14.316  0.00  0.00    +0.091 C 
BRANCH  24  25
ATOM     25  N   UNL     1      -5.668 -10.113  15.002  0.00  0.00    -0.267 NA
ATOM     26  C   UNL     1      -5.944  -9.730  15.679  0.00  0.00    +0.105 C 
ATOM     27  C   UNL     1      -5.485  -9.726  16.365  0.00  0.00    +0.159 C 
ATOM     28  O   UNL     1      -4.753 -10.104  16.374  0.00  0.00    -0.351 OA
ATOM     29  C   UNL     1      -4.478 -10.487  15.697  0.00  0.00    +0.159 C 
ATOM     30  C   UNL     1      -4.936 -10.491  15.011  0.00  0.00    +0.105 C 
ENDBRANCH  24  25
ENDBRANCH  23  24
ENDBRANCH  22  23
ENDBRANCH  21  22
ENDBRANCH  20  21
TORSDOF 9
ENDMDL
