MODEL 1
REMARK VINA RESULT:     -14.9      0.000      0.000
REMARK  Name = 
REMARK  2 active torsions:
REMARK  status: ('A' for Active; 'I' for Inactive)
REMARK    1  A    between atoms: C_13  and  C_16
REMARK    2  A    between atoms: C_18  and  C_22
REMARK                            x       y       z     vdW  Elec       q    Type
REMARK                         _______ _______ _______ _____ _____    ______ ____
ROOT
ATOM      1  N   UNL     1      -4.939   4.261  25.168  0.00  0.00    -0.131 NA
ATOM      2  C   UNL     1      -5.082   3.466  25.337  0.00  0.00    +0.121 C 
ATOM      3  C   UNL     1      -5.628   3.178  25.884  0.00  0.00    +0.043 C 
ATOM      4  C   UNL     1      -5.588   2.354  25.874  0.00  0.00    +0.096 C 
ATOM      5  N   UNL     1      -5.016   2.133  25.321  0.00  0.00    -0.268 N 
ATOM      6  C   UNL     1      -4.704   2.822  24.989  0.00  0.00    +0.172 C 
ATOM      7  C   UNL     1      -4.119   2.894  24.412  0.00  0.00    +0.265 C 
ATOM      8  O   UNL     1      -3.926   3.666  24.195  0.00  0.00    -0.271 OA
ATOM      9  N   UNL     1      -3.702   2.297  24.025  0.00  0.00    -0.178 NA
ATOM     10  C   UNL     1      -3.767   1.480  24.118  0.00  0.00    +0.078 A 
ATOM     11  C   UNL     1      -4.265   1.058  24.622  0.00  0.00    +0.069 A 
ATOM     12  C   UNL     1      -4.242   0.233  24.629  0.00  0.00    +0.006 A 
ATOM     13  C   UNL     1      -3.721  -0.169  24.132  0.00  0.00    +0.000 A 
ATOM     14  C   UNL     1      -3.222   0.253  23.627  0.00  0.00    +0.001 A 
ATOM     15  C   UNL     1      -3.245   1.077  23.620  0.00  0.00    +0.017 A 
ATOM     26  C   UNL     1      -4.821   1.349  25.157  0.00  0.00    +0.251 C 
ATOM     27  O   UNL     1      -5.236   0.780  25.586  0.00  0.00    -0.270 OA
ENDROOT
BRANCH  13  16
ATOM     16  C   UNL     1      -3.697  -0.994  24.139  0.00  0.00    -0.000 A 
ATOM     17  C   UNL     1      -3.028  -1.386  24.422  0.00  0.00    +0.004 A 
ATOM     18  C   UNL     1      -3.005  -2.210  24.429  0.00  0.00    +0.071 A 
ATOM     19  C   UNL     1      -3.651  -2.643  24.153  0.00  0.00    +0.004 A 
ATOM     20  C   UNL     1      -4.320  -2.251  23.871  0.00  0.00    -0.000 A 
ATOM     21  C   UNL     1      -4.343  -1.426  23.864  0.00  0.00    -0.000 A 
BRANCH  18  22
ATOM     22  C   UNL     1      -2.336  -2.601  24.711  0.00  0.00    +0.419 C 
ATOM     23  F   UNL     1      -1.667  -2.993  24.994  0.00  0.00    -0.166 F 
ATOM     24  F   UNL     1      -2.033  -2.637  23.944  0.00  0.00    -0.166 F 
ATOM     25  F   UNL     1      -2.639  -2.566  25.477  0.00  0.00    -0.166 F 
ENDBRANCH  18  22
ENDBRANCH  13  16
TORSDOF 2
ENDMDL
MODEL 2
REMARK VINA RESULT:     -14.6      1.441      1.967
REMARK  Name = 
REMARK  2 active torsions:
REMARK  status: ('A' for Active; 'I' for Inactive)
REMARK    1  A    between atoms: C_13  and  C_16
REMARK    2  A    between atoms: C_18  and  C_22
REMARK                            x       y       z     vdW  Elec       q    Type
REMARK                         _______ _______ _______ _____ _____    ______ ____
ROOT
ATOM      1  N   UNL     1      -2.451   4.548  25.390  0.00  0.00    -0.131 NA
ATOM      2  C   UNL     1      -2.221   3.786  25.172  0.00  0.00    +0.121 C 
ATOM      3  C   UNL     1      -1.457   3.548  24.973  0.00  0.00    +0.043 C 
ATOM      4  C   UNL     1      -1.479   2.744  24.792  0.00  0.00    +0.096 C 
ATOM      5  N   UNL     1      -2.258   2.484  24.879  0.00  0.00    -0.268 N 
ATOM      6  C   UNL     1      -2.716   3.129  25.114  0.00  0.00    +0.172 C 
ATOM      7  C   UNL     1      -3.526   3.153  25.273  0.00  0.00    +0.265 C 
ATOM      8  O   UNL     1      -3.823   3.889  25.498  0.00  0.00    -0.271 OA
ATOM      9  N   UNL     1      -4.076   2.540  25.236  0.00  0.00    -0.178 NA
ATOM     10  C   UNL     1      -3.953   1.750  25.031  0.00  0.00    +0.078 A 
ATOM     11  C   UNL     1      -3.250   1.379  24.813  0.00  0.00    +0.069 A 
ATOM     12  C   UNL     1      -3.247   0.575  24.628  0.00  0.00    +0.006 A 
ATOM     13  C   UNL     1      -3.949   0.142  24.661  0.00  0.00    +0.000 A 
ATOM     14  C   UNL     1      -4.654   0.514  24.879  0.00  0.00    +0.001 A 
ATOM     15  C   UNL     1      -4.655   1.318  25.064  0.00  0.00    +0.017 A 
ATOM     26  C   UNL     1      -2.495   1.706  24.746  0.00  0.00    +0.251 C 
ATOM     27  O   UNL     1      -1.899   1.185  24.513  0.00  0.00    -0.270 OA
ENDROOT
BRANCH  13  16
ATOM     16  C   UNL     1      -3.948  -0.661  24.476  0.00  0.00    -0.000 A 
ATOM     17  C   UNL     1      -3.548  -1.196  24.961  0.00  0.00    +0.004 A 
ATOM     18  C   UNL     1      -3.546  -2.000  24.776  0.00  0.00    +0.071 A 
ATOM     19  C   UNL     1      -3.945  -2.269  24.105  0.00  0.00    +0.004 A 
ATOM     20  C   UNL     1      -4.345  -1.734  23.620  0.00  0.00    -0.000 A 
ATOM     21  C   UNL     1      -4.346  -0.930  23.806  0.00  0.00    -0.000 A 
BRANCH  18  22
ATOM     22  C   UNL     1      -3.146  -2.534  25.260  0.00  0.00    +0.419 C 
ATOM     23  F   UNL     1      -2.746  -3.068  25.745  0.00  0.00    -0.166 F 
ATOM     24  F   UNL     1      -2.525  -2.561  24.718  0.00  0.00    -0.166 F 
ATOM     25  F   UNL     1      -3.767  -2.507  25.802  0.00  0.00    -0.166 F 
ENDBRANCH  18  22
ENDBRANCH  13  16
TORSDOF 2
ENDMDL
MODEL 3
REMARK VINA RESULT:     -14.4      1.064      1.310
REMARK  Name = 
REMARK  2 active torsions:
REMARK  status: ('A' for Active; 'I' for Inactive)
REMARK    1  A    between atoms: C_13  and  C_16
REMARK    2  A    between atoms: C_18  and  C_22
REMARK                            x       y       z     vdW  Elec       q    Type
REMARK                         _______ _______ _______ _____ _____    ______ ____
ROOT
ATOM      1  N   UNL     1      -4.390   4.506  25.045  0.00  0.00    -0.131 NA
ATOM      2  C   UNL     1      -4.678   3.745  25.184  0.00  0.00    +0.121 C 
ATOM      3  C   UNL     1      -5.426   3.555  25.474  0.00  0.00    +0.043 C 
ATOM      4  C   UNL     1      -5.478   2.733  25.526  0.00  0.00    +0.096 C 
ATOM      5  N   UNL     1      -4.762   2.415  25.268  0.00  0.00    -0.268 N 
ATOM      6  C   UNL     1      -4.267   3.041  25.057  0.00  0.00    +0.172 C 
ATOM      7  C   UNL     1      -3.495   3.010  24.767  0.00  0.00    +0.265 C 
ATOM      8  O   UNL     1      -3.145   3.740  24.606  0.00  0.00    -0.271 OA
ATOM      9  N   UNL     1      -3.028   2.348  24.617  0.00  0.00    -0.178 NA
ATOM     10  C   UNL     1      -3.216   1.551  24.720  0.00  0.00    +0.078 A 
ATOM     11  C   UNL     1      -3.919   1.221  24.998  0.00  0.00    +0.069 A 
ATOM     12  C   UNL     1      -3.994   0.402  25.059  0.00  0.00    +0.006 A 
ATOM     13  C   UNL     1      -3.366  -0.088  24.841  0.00  0.00    +0.000 A 
ATOM     14  C   UNL     1      -2.662   0.243  24.563  0.00  0.00    +0.001 A 
ATOM     15  C   UNL     1      -2.588   1.062  24.502  0.00  0.00    +0.017 A 
ATOM     26  C   UNL     1      -4.606   1.606  25.242  0.00  0.00    +0.251 C 
ATOM     27  O   UNL     1      -5.221   1.116  25.493  0.00  0.00    -0.270 OA
ENDROOT
BRANCH  13  16
ATOM     16  C   UNL     1      -3.441  -0.907  24.902  0.00  0.00    -0.000 A 
ATOM     17  C   UNL     1      -3.783  -1.337  24.286  0.00  0.00    +0.004 A 
ATOM     18  C   UNL     1      -3.857  -2.156  24.347  0.00  0.00    +0.071 A 
ATOM     19  C   UNL     1      -3.590  -2.546  25.024  0.00  0.00    +0.004 A 
ATOM     20  C   UNL     1      -3.248  -2.115  25.639  0.00  0.00    -0.000 A 
ATOM     21  C   UNL     1      -3.173  -1.295  25.578  0.00  0.00    -0.000 A 
BRANCH  18  22
ATOM     22  C   UNL     1      -4.199  -2.586  23.732  0.00  0.00    +0.419 C 
ATOM     23  F   UNL     1      -4.541  -3.016  23.116  0.00  0.00    -0.166 F 
ATOM     24  F   UNL     1      -3.509  -3.032  23.661  0.00  0.00    -0.166 F 
ATOM     25  F   UNL     1      -4.888  -2.139  23.803  0.00  0.00    -0.166 F 
ENDBRANCH  18  22
ENDBRANCH  13  16
TORSDOF 2
ENDMDL
MODEL 4
REMARK VINA RESULT:     -14.0      1.666      1.921
REMARK  Name = 
REMARK  2 active torsions:
REMARK  status: ('A' for Active; 'I' for Inactive)
REMARK    1  A    between atoms: C_13  and  C_16
REMARK    2  A    between atoms: C_18  and  C_22
REMARK                            x       y       z     vdW  Elec       q    Type
REMARK                         _______ _______ _______ _____ _____    ______ ____
ROOT
ATOM      1  N   UNL     1      -1.689   4.679  25.411  0.00  0.00    -0.131 NA
ATOM      2  C   UNL     1      -2.307   4.133  25.395  0.00  0.00    +0.121 C 
ATOM      3  C   UNL     1      -3.091   4.282  25.602  0.00  0.00    +0.043 C 
ATOM      4  C   UNL     1      -3.518   3.583  25.504  0.00  0.00    +0.096 C 
ATOM      5  N   UNL     1      -2.997   3.001  25.235  0.00  0.00    -0.268 N 
ATOM      6  C   UNL     1      -2.248   3.342  25.168  0.00  0.00    +0.172 C 
ATOM      7  C   UNL     1      -1.544   2.990  24.922  0.00  0.00    +0.265 C 
ATOM      8  O   UNL     1      -0.882   3.483  24.915  0.00  0.00    -0.271 OA
ATOM      9  N   UNL     1      -1.414   2.212  24.684  0.00  0.00    -0.178 NA
ATOM     10  C   UNL     1      -1.956   1.592  24.631  0.00  0.00    +0.078 A 
ATOM     11  C   UNL     1      -2.762   1.598  24.805  0.00  0.00    +0.069 A 
ATOM     12  C   UNL     1      -3.209   0.911  24.714  0.00  0.00    +0.006 A 
ATOM     13  C   UNL     1      -2.850   0.217  24.449  0.00  0.00    +0.000 A 
ATOM     14  C   UNL     1      -2.043   0.210  24.275  0.00  0.00    +0.001 A 
ATOM     15  C   UNL     1      -1.596   0.898  24.366  0.00  0.00    +0.017 A 
ATOM     26  C   UNL     1      -3.225   2.226  25.074  0.00  0.00    +0.251 C 
ATOM     27  O   UNL     1      -4.023   2.054  25.197  0.00  0.00    -0.270 OA
ENDROOT
BRANCH  13  16
ATOM     16  C   UNL     1      -3.296  -0.471  24.358  0.00  0.00    -0.000 A 
ATOM     17  C   UNL     1      -3.162  -1.119  24.851  0.00  0.00    +0.004 A 
ATOM     18  C   UNL     1      -3.608  -1.806  24.760  0.00  0.00    +0.071 A 
ATOM     19  C   UNL     1      -4.190  -1.846  24.175  0.00  0.00    +0.004 A 
ATOM     20  C   UNL     1      -4.324  -1.197  23.683  0.00  0.00    -0.000 A 
ATOM     21  C   UNL     1      -3.878  -0.510  23.774  0.00  0.00    -0.000 A 
BRANCH  18  22
ATOM     22  C   UNL     1      -3.473  -2.454  25.252  0.00  0.00    +0.419 C 
ATOM     23  F   UNL     1      -3.338  -3.102  25.745  0.00  0.00    -0.166 F 
ATOM     24  F   UNL     1      -3.190  -2.885  24.608  0.00  0.00    -0.166 F 
ATOM     25  F   UNL     1      -3.756  -2.023  25.896  0.00  0.00    -0.166 F 
ENDBRANCH  18  22
ENDBRANCH  13  16
TORSDOF 2
ENDMDL
MODEL 5
REMARK VINA RESULT:     -13.8      2.976      5.032
REMARK  Name = 
REMARK  2 active torsions:
REMARK  status: ('A' for Active; 'I' for Inactive)
REMARK    1  A    between atoms: C_13  and  C_16
REMARK    2  A    between atoms: C_18  and  C_22
REMARK                            x       y       z     vdW  Elec       q    Type
REMARK                         _______ _______ _______ _____ _____    ______ ____
ROOT
ATOM      1  N   UNL     1      -2.590  -3.052  24.602  0.00  0.00    -0.131 NA
ATOM      2  C   UNL     1      -2.302  -2.279  24.588  0.00  0.00    +0.121 C 
ATOM      3  C   UNL     1      -1.507  -2.059  24.560  0.00  0.00    +0.043 C 
ATOM      4  C   UNL     1      -1.471  -1.235  24.554  0.00  0.00    +0.096 C 
ATOM      5  N   UNL     1      -2.244  -0.946  24.579  0.00  0.00    -0.268 N 
ATOM      6  C   UNL     1      -2.757  -1.592  24.600  0.00  0.00    +0.172 C 
ATOM      7  C   UNL     1      -3.582  -1.592  24.629  0.00  0.00    +0.265 C 
ATOM      8  O   UNL     1      -3.938  -2.337  24.645  0.00  0.00    -0.271 OA
ATOM      9  N   UNL     1      -4.096  -0.949  24.643  0.00  0.00    -0.178 NA
ATOM     10  C   UNL     1      -3.915  -0.144  24.632  0.00  0.00    +0.078 A 
ATOM     11  C   UNL     1      -3.172   0.214  24.605  0.00  0.00    +0.069 A 
ATOM     12  C   UNL     1      -3.112   1.038  24.598  0.00  0.00    +0.006 A 
ATOM     13  C   UNL     1      -3.794   1.502  24.619  0.00  0.00    +0.000 A 
ATOM     14  C   UNL     1      -4.537   1.142  24.647  0.00  0.00    +0.001 A 
ATOM     15  C   UNL     1      -4.597   0.320  24.653  0.00  0.00    +0.017 A 
ATOM     26  C   UNL     1      -2.429  -0.142  24.581  0.00  0.00    +0.251 C 
ATOM     27  O   UNL     1      -1.785   0.373  24.556  0.00  0.00    -0.270 OA
ENDROOT
BRANCH  13  16
ATOM     16  C   UNL     1      -3.734   2.324  24.613  0.00  0.00    -0.000 A 
ATOM     17  C   UNL     1      -3.518   2.728  25.300  0.00  0.00    +0.004 A 
ATOM     18  C   UNL     1      -3.459   3.551  25.293  0.00  0.00    +0.071 A 
ATOM     19  C   UNL     1      -3.615   3.970  24.599  0.00  0.00    +0.004 A 
ATOM     20  C   UNL     1      -3.830   3.566  23.913  0.00  0.00    -0.000 A 
ATOM     21  C   UNL     1      -3.890   2.743  23.920  0.00  0.00    -0.000 A 
BRANCH  18  22
ATOM     22  C   UNL     1      -3.243   3.954  25.980  0.00  0.00    +0.419 C 
ATOM     23  F   UNL     1      -3.028   4.357  26.667  0.00  0.00    -0.166 F 
ATOM     24  F   UNL     1      -4.028   3.939  26.234  0.00  0.00    -0.166 F 
ATOM     25  F   UNL     1      -2.459   3.968  25.725  0.00  0.00    -0.166 F 
ENDBRANCH  18  22
ENDBRANCH  13  16
TORSDOF 2
ENDMDL
