MODEL 1
REMARK VINA RESULT:      -8.6      0.000      0.000
REMARK  Name = 
REMARK  11 active torsions:
REMARK  status: ('A' for Active; 'I' for Inactive)
REMARK    1  A    between atoms: C_2  and  O_3
REMARK    2  A    between atoms: O_3  and  C_4
REMARK    3  A    between atoms: C_4  and  C_6
REMARK    4  A    between atoms: C_10  and  N_11
REMARK    5  A    between atoms: C_17  and  C_18
REMARK    6  A    between atoms: C_18  and  C_19
REMARK    7  A    between atoms: N_21  and  C_22
REMARK    8  A    between atoms: C_22  and  C_23
REMARK    9  A    between atoms: C_25  and  O_26
REMARK   10  A    between atoms: C_28  and  O_29
REMARK   11  A    between atoms: C_33  and  C_34
REMARK                            x       y       z     vdW  Elec       q    Type
REMARK                         _______ _______ _______ _____ _____    ______ ____
ROOT
ATOM     11  N   UNL     1      -1.986   2.139  25.157  0.00  0.00    -0.162 NA
ATOM     12  C   UNL     1      -1.498   2.223  24.496  0.00  0.00    +0.327 C 
ATOM     13  O   UNL     1      -1.497   2.932  24.072  0.00  0.00    -0.250 OA
ATOM     14  N   UNL     1      -1.011   1.601  24.261  0.00  0.00    -0.263 N 
ATOM     15  C   UNL     1      -0.524   1.686  23.601  0.00  0.00    +0.095 C 
ATOM     16  C   UNL     1      -0.037   1.064  23.364  0.00  0.00    +0.022 C 
ATOM     17  C   UNL     1      -0.037   0.356  23.788  0.00  0.00    +0.012 C 
ATOM     33  C   UNL     1      -0.525   0.271  24.449  0.00  0.00    +0.020 C 
ATOM     36  C   UNL     1      -1.012   0.894  24.685  0.00  0.00    +0.095 C 
ENDROOT
BRANCH  11  10
ATOM      6  C   UNL     1      -3.776   3.332  25.524  0.00  0.00    +0.077 A 
ATOM      7  C   UNL     1      -3.446   4.007  25.866  0.00  0.00    +0.007 A 
ATOM      8  C   UNL     1      -2.630   4.059  25.970  0.00  0.00    +0.002 A 
ATOM      9  C   UNL     1      -2.142   3.437  25.734  0.00  0.00    +0.017 A 
ATOM     10  C   UNL     1      -2.473   2.761  25.393  0.00  0.00    +0.075 A 
ATOM     37  C   UNL     1      -3.289   2.710  25.288  0.00  0.00    +0.023 A 
BRANCH   6   4
ATOM      4  C   UNL     1      -4.593   3.280  25.419  0.00  0.00    +0.341 C 
ATOM      5  O   UNL     1      -5.042   3.967  25.341  0.00  0.00    -0.245 OA
BRANCH   4   3
ATOM      3  O   UNL     1      -4.960   2.542  25.393  0.00  0.00    -0.445 OA
BRANCH   3   2
ATOM      1  C   UNL     1      -6.143   1.774  25.165  0.00  0.00    +0.051 C 
ATOM      2  C   UNL     1      -5.783   2.491  25.352  0.00  0.00    +0.209 C 
ENDBRANCH   3   2
ENDBRANCH   4   3
ENDBRANCH   6   4
ENDBRANCH  11  10
BRANCH  33  34
ATOM     34  C   UNL     1      -0.526  -0.436  24.873  0.00  0.00    +0.002 C 
ATOM     35  C   UNL     1      -1.178  -0.640  25.334  0.00  0.00    +0.000 C 
ENDBRANCH  33  34
BRANCH  17  18
ATOM     18  C   UNL     1       0.450  -0.267  23.552  0.00  0.00    +0.087 C 
BRANCH  18  19
ATOM     19  C   UNL     1       1.025  -0.144  22.974  0.00  0.00    +0.242 C 
ATOM     20  O   UNL     1       0.805  -0.073  22.182  0.00  0.00    -0.273 OA
ATOM     21  N   UNL     1       1.820  -0.093  23.188  0.00  0.00    -0.201 NA
BRANCH  21  22
ATOM     22  C   UNL     1       2.395   0.030  22.609  0.00  0.00    +0.142 C 
BRANCH  22  23
ATOM     23  C   UNL     1       3.188   0.102  22.825  0.00  0.00    +0.003 A 
ATOM     24  C   UNL     1       3.590  -0.547  23.141  0.00  0.00    +0.037 A 
ATOM     25  C   UNL     1       4.382  -0.475  23.357  0.00  0.00    +0.172 A 
ATOM     28  C   UNL     1       4.773   0.244  23.259  0.00  0.00    +0.172 A 
ATOM     31  C   UNL     1       4.373   0.892  22.944  0.00  0.00    +0.040 A 
ATOM     32  C   UNL     1       3.579   0.821  22.727  0.00  0.00    +0.001 A 
BRANCH  25  26
ATOM     26  O   UNL     1       4.784  -1.124  23.672  0.00  0.00    -0.468 OA
ATOM     27  C   UNL     1       4.363  -1.793  23.909  0.00  0.00    +0.253 C 
ENDBRANCH  25  26
BRANCH  28  29
ATOM     29  O   UNL     1       5.567   0.315  23.475  0.00  0.00    -0.468 OA
ATOM     30  C   UNL     1       5.818   0.970  23.910  0.00  0.00    +0.253 C 
ENDBRANCH  28  29
ENDBRANCH  22  23
ENDBRANCH  21  22
ENDBRANCH  18  19
ENDBRANCH  17  18
TORSDOF 11
ENDMDL
MODEL 2
REMARK VINA RESULT:      -8.6      1.284      7.471
REMARK  Name = 
REMARK  11 active torsions:
REMARK  status: ('A' for Active; 'I' for Inactive)
REMARK    1  A    between atoms: C_2  and  O_3
REMARK    2  A    between atoms: O_3  and  C_4
REMARK    3  A    between atoms: C_4  and  C_6
REMARK    4  A    between atoms: C_10  and  N_11
REMARK    5  A    between atoms: C_17  and  C_18
REMARK    6  A    between atoms: C_18  and  C_19
REMARK    7  A    between atoms: N_21  and  C_22
REMARK    8  A    between atoms: C_22  and  C_23
REMARK    9  A    between atoms: C_25  and  O_26
REMARK   10  A    between atoms: C_28  and  O_29
REMARK   11  A    between atoms: C_33  and  C_34
REMARK                            x       y       z     vdW  Elec       q    Type
REMARK                         _______ _______ _______ _____ _____    ______ ____
ROOT
ATOM     11  N   UNL     1       0.950  -0.274  23.256  0.00  0.00    -0.162 NA
ATOM     12  C   UNL     1       0.337   0.280  23.250  0.00  0.00    +0.327 C 
ATOM     13  O   UNL     1       0.394   0.951  22.772  0.00  0.00    -0.250 OA
ATOM     14  N   UNL     1      -0.330   0.162  23.719  0.00  0.00    -0.263 N 
ATOM     15  C   UNL     1      -0.942   0.715  23.712  0.00  0.00    +0.095 C 
ATOM     16  C   UNL     1      -1.610   0.598  24.182  0.00  0.00    +0.022 C 
ATOM     17  C   UNL     1      -1.666  -0.073  24.659  0.00  0.00    +0.012 C 
ATOM     33  C   UNL     1      -1.054  -0.627  24.666  0.00  0.00    +0.020 C 
ATOM     36  C   UNL     1      -0.386  -0.509  24.196  0.00  0.00    +0.095 C 
ENDROOT
BRANCH  11  10
ATOM      6  C   UNL     1       2.973   0.274  22.649  0.00  0.00    +0.077 A 
ATOM      7  C   UNL     1       2.953   0.078  21.846  0.00  0.00    +0.007 A 
ATOM      8  C   UNL     1       2.266  -0.235  21.516  0.00  0.00    +0.002 A 
ATOM      9  C   UNL     1       1.598  -0.353  21.985  0.00  0.00    +0.017 A 
ATOM     10  C   UNL     1       1.617  -0.156  22.787  0.00  0.00    +0.075 A 
ATOM     37  C   UNL     1       2.305   0.157  23.118  0.00  0.00    +0.023 A 
BRANCH   6   4
ATOM      4  C   UNL     1       3.661   0.588  22.979  0.00  0.00    +0.341 C 
ATOM      5  O   UNL     1       3.727   1.402  23.098  0.00  0.00    -0.245 OA
BRANCH   4   3
ATOM      3  O   UNL     1       4.281   0.089  23.192  0.00  0.00    -0.445 OA
BRANCH   3   2
ATOM      1  C   UNL     1       5.589  -0.092  23.740  0.00  0.00    +0.051 C 
ATOM      2  C   UNL     1       4.993   0.406  23.463  0.00  0.00    +0.209 C 
ENDBRANCH   3   2
ENDBRANCH   4   3
ENDBRANCH   6   4
ENDBRANCH  11  10
BRANCH  33  34
ATOM     34  C   UNL     1      -1.110  -1.297  25.142  0.00  0.00    +0.002 C 
ATOM     35  C   UNL     1      -0.426  -1.673  25.407  0.00  0.00    +0.000 C 
ENDBRANCH  33  34
BRANCH  17  18
ATOM     18  C   UNL     1      -2.335  -0.190  25.129  0.00  0.00    +0.087 C 
BRANCH  18  19
ATOM     19  C   UNL     1      -3.081   0.014  24.842  0.00  0.00    +0.242 C 
ATOM     20  O   UNL     1      -3.462  -0.473  24.297  0.00  0.00    -0.273 OA
ATOM     21  N   UNL     1      -3.445   0.707  25.102  0.00  0.00    -0.201 NA
BRANCH  21  22
ATOM     22  C   UNL     1      -4.192   0.913  24.816  0.00  0.00    +0.142 C 
BRANCH  22  23
ATOM     23  C   UNL     1      -4.518   1.646  25.005  0.00  0.00    +0.003 A 
ATOM     24  C   UNL     1      -4.167   2.338  24.724  0.00  0.00    +0.037 A 
ATOM     25  C   UNL     1      -4.494   3.072  24.914  0.00  0.00    +0.172 A 
ATOM     28  C   UNL     1      -5.169   3.114  25.384  0.00  0.00    +0.172 A 
ATOM     31  C   UNL     1      -5.520   2.422  25.665  0.00  0.00    +0.040 A 
ATOM     32  C   UNL     1      -5.194   1.688  25.475  0.00  0.00    +0.001 A 
BRANCH  25  26
ATOM     26  O   UNL     1      -4.142   3.764  24.633  0.00  0.00    -0.468 OA
ATOM     27  C   UNL     1      -3.336   3.777  24.462  0.00  0.00    +0.253 C 
ENDBRANCH  25  26
BRANCH  28  29
ATOM     29  O   UNL     1      -5.496   3.848  25.573  0.00  0.00    -0.468 OA
ATOM     30  C   UNL     1      -6.292   3.903  25.782  0.00  0.00    +0.253 C 
ENDBRANCH  28  29
ENDBRANCH  22  23
ENDBRANCH  21  22
ENDBRANCH  18  19
ENDBRANCH  17  18
TORSDOF 11
ENDMDL
MODEL 3
REMARK VINA RESULT:      -8.0      3.650      6.242
REMARK  Name = 
REMARK  11 active torsions:
REMARK  status: ('A' for Active; 'I' for Inactive)
REMARK    1  A    between atoms: C_2  and  O_3
REMARK    2  A    between atoms: O_3  and  C_4
REMARK    3  A    between atoms: C_4  and  C_6
REMARK    4  A    between atoms: C_10  and  N_11
REMARK    5  A    between atoms: C_17  and  C_18
REMARK    6  A    between atoms: C_18  and  C_19
REMARK    7  A    between atoms: N_21  and  C_22
REMARK    8  A    between atoms: C_22  and  C_23
REMARK    9  A    between atoms: C_25  and  O_26
REMARK   10  A    between atoms: C_28  and  O_29
REMARK   11  A    between atoms: C_33  and  C_34
REMARK                            x       y       z     vdW  Elec       q    Type
REMARK                         _______ _______ _______ _____ _____    ______ ____
ROOT
ATOM     11  N   UNL     1      -4.372  -0.486  24.560  0.00  0.00    -0.162 NA
ATOM     12  C   UNL     1      -4.075   0.157  24.136  0.00  0.00    +0.327 C 
ATOM     13  O   UNL     1      -3.561   0.031  23.503  0.00  0.00    -0.250 OA
ATOM     14  N   UNL     1      -4.292   0.924  24.344  0.00  0.00    -0.263 N 
ATOM     15  C   UNL     1      -3.995   1.566  23.920  0.00  0.00    +0.095 C 
ATOM     16  C   UNL     1      -4.212   2.335  24.128  0.00  0.00    +0.022 C 
ATOM     17  C   UNL     1      -4.726   2.461  24.761  0.00  0.00    +0.012 C 
ATOM     33  C   UNL     1      -5.024   1.818  25.186  0.00  0.00    +0.020 C 
ATOM     36  C   UNL     1      -4.806   1.050  24.977  0.00  0.00    +0.095 C 
ENDROOT
BRANCH  11  10
ATOM      6  C   UNL     1      -3.248  -2.353  24.451  0.00  0.00    +0.077 A 
ATOM      7  C   UNL     1      -3.722  -2.791  23.935  0.00  0.00    +0.007 A 
ATOM      8  C   UNL     1      -4.411  -2.459  23.628  0.00  0.00    +0.002 A 
ATOM      9  C   UNL     1      -4.629  -1.691  23.836  0.00  0.00    +0.017 A 
ATOM     10  C   UNL     1      -4.155  -1.253  24.352  0.00  0.00    +0.075 A 
ATOM     37  C   UNL     1      -3.465  -1.586  24.659  0.00  0.00    +0.023 A 
BRANCH   6   4
ATOM      4  C   UNL     1      -2.558  -2.686  24.758  0.00  0.00    +0.341 C 
ATOM      5  O   UNL     1      -2.605  -3.305  25.301  0.00  0.00    -0.245 OA
BRANCH   4   3
ATOM      3  O   UNL     1      -1.821  -2.399  24.524  0.00  0.00    -0.445 OA
BRANCH   3   2
ATOM      1  C   UNL     1      -0.545  -1.942  24.976  0.00  0.00    +0.051 C 
ATOM      2  C   UNL     1      -1.168  -2.480  25.021  0.00  0.00    +0.209 C 
ENDBRANCH   3   2
ENDBRANCH   4   3
ENDBRANCH   6   4
ENDBRANCH  11  10
BRANCH  33  34
ATOM     34  C   UNL     1      -5.537   1.944  25.818  0.00  0.00    +0.002 C 
ATOM     35  C   UNL     1      -6.232   1.505  25.879  0.00  0.00    +0.000 C 
ENDBRANCH  33  34
BRANCH  17  18
ATOM     18  C   UNL     1      -4.944   3.230  24.970  0.00  0.00    +0.087 C 
BRANCH  18  19
ATOM     19  C   UNL     1      -4.370   3.821  25.019  0.00  0.00    +0.242 C 
ATOM     20  O   UNL     1      -4.437   4.500  24.556  0.00  0.00    -0.273 OA
ATOM     21  N   UNL     1      -3.730   3.731  25.531  0.00  0.00    -0.201 NA
BRANCH  21  22
ATOM     22  C   UNL     1      -3.156   4.323  25.581  0.00  0.00    +0.142 C 
BRANCH  22  23
ATOM     23  C   UNL     1      -2.359   4.119  25.637  0.00  0.00    +0.003 A 
ATOM     24  C   UNL     1      -1.797   4.523  25.186  0.00  0.00    +0.037 A 
ATOM     25  C   UNL     1      -1.000   4.319  25.243  0.00  0.00    +0.172 A 
ATOM     28  C   UNL     1      -0.764   3.713  25.748  0.00  0.00    +0.172 A 
ATOM     31  C   UNL     1      -1.325   3.308  26.198  0.00  0.00    +0.040 A 
ATOM     32  C   UNL     1      -2.123   3.512  26.142  0.00  0.00    +0.001 A 
BRANCH  25  26
ATOM     26  O   UNL     1      -0.439   4.724  24.792  0.00  0.00    -0.468 OA
ATOM     27  C   UNL     1      -0.634   5.443  24.439  0.00  0.00    +0.253 C 
ENDBRANCH  25  26
BRANCH  28  29
ATOM     29  O   UNL     1       0.034   3.509  25.803  0.00  0.00    -0.468 OA
ATOM     30  C   UNL     1       0.250   2.759  26.072  0.00  0.00    +0.253 C 
ENDBRANCH  28  29
ENDBRANCH  22  23
ENDBRANCH  21  22
ENDBRANCH  18  19
ENDBRANCH  17  18
TORSDOF 11
ENDMDL
MODEL 4
REMARK VINA RESULT:      -7.9      1.370      7.509
REMARK  Name = 
REMARK  11 active torsions:
REMARK  status: ('A' for Active; 'I' for Inactive)
REMARK    1  A    between atoms: C_2  and  O_3
REMARK    2  A    between atoms: O_3  and  C_4
REMARK    3  A    between atoms: C_4  and  C_6
REMARK    4  A    between atoms: C_10  and  N_11
REMARK    5  A    between atoms: C_17  and  C_18
REMARK    6  A    between atoms: C_18  and  C_19
REMARK    7  A    between atoms: N_21  and  C_22
REMARK    8  A    between atoms: C_22  and  C_23
REMARK    9  A    between atoms: C_25  and  O_26
REMARK   10  A    between atoms: C_28  and  O_29
REMARK   11  A    between atoms: C_33  and  C_34
REMARK                            x       y       z     vdW  Elec       q    Type
REMARK                         _______ _______ _______ _____ _____    ______ ____
ROOT
ATOM     11  N   UNL     1       0.894   1.192  24.036  0.00  0.00    -0.162 NA
ATOM     12  C   UNL     1       0.339   1.720  23.730  0.00  0.00    +0.327 C 
ATOM     13  O   UNL     1       0.221   1.767  22.914  0.00  0.00    -0.250 OA
ATOM     14  N   UNL     1      -0.097   2.201  24.238  0.00  0.00    -0.263 N 
ATOM     15  C   UNL     1      -0.652   2.729  23.931  0.00  0.00    +0.095 C 
ATOM     16  C   UNL     1      -1.089   3.211  24.439  0.00  0.00    +0.022 C 
ATOM     17  C   UNL     1      -0.970   3.164  25.254  0.00  0.00    +0.012 C 
ATOM     33  C   UNL     1      -0.415   2.636  25.561  0.00  0.00    +0.020 C 
ATOM     36  C   UNL     1       0.021   2.155  25.053  0.00  0.00    +0.095 C 
ENDROOT
BRANCH  11  10
ATOM      6  C   UNL     1       2.564   0.392  22.881  0.00  0.00    +0.077 A 
ATOM      7  C   UNL     1       2.203  -0.253  22.512  0.00  0.00    +0.007 A 
ATOM      8  C   UNL     1       1.407  -0.415  22.652  0.00  0.00    +0.002 A 
ATOM      9  C   UNL     1       0.970   0.066  23.160  0.00  0.00    +0.017 A 
ATOM     10  C   UNL     1       1.331   0.711  23.529  0.00  0.00    +0.075 A 
ATOM     37  C   UNL     1       2.128   0.873  23.389  0.00  0.00    +0.023 A 
BRANCH   6   4
ATOM      4  C   UNL     1       3.361   0.554  22.741  0.00  0.00    +0.341 C 
ATOM      5  O   UNL     1       3.586   0.948  22.052  0.00  0.00    -0.245 OA
BRANCH   4   3
ATOM      3  O   UNL     1       3.932   0.323  23.289  0.00  0.00    -0.445 OA
BRANCH   3   2
ATOM      1  C   UNL     1       5.307   0.151  23.635  0.00  0.00    +0.051 C 
ATOM      2  C   UNL     1       4.730   0.471  23.142  0.00  0.00    +0.209 C 
ENDBRANCH   3   2
ENDBRANCH   4   3
ENDBRANCH   6   4
ENDBRANCH  11  10
BRANCH  33  34
ATOM     34  C   UNL     1      -0.297   2.590  26.376  0.00  0.00    +0.002 C 
ATOM     35  C   UNL     1       0.449   2.405  26.675  0.00  0.00    +0.000 C 
ENDBRANCH  33  34
BRANCH  17  18
ATOM     18  C   UNL     1      -1.407   3.646  25.763  0.00  0.00    +0.087 C 
BRANCH  18  19
ATOM     19  C   UNL     1      -2.146   3.929  25.529  0.00  0.00    +0.242 C 
ATOM     20  O   UNL     1      -2.208   4.663  25.158  0.00  0.00    -0.273 OA
ATOM     21  N   UNL     1      -2.822   3.477  25.667  0.00  0.00    -0.201 NA
BRANCH  21  22
ATOM     22  C   UNL     1      -3.561   3.760  25.432  0.00  0.00    +0.142 C 
BRANCH  22  23
ATOM     23  C   UNL     1      -4.222   3.267  25.473  0.00  0.00    +0.003 A 
ATOM     24  C   UNL     1      -4.249   2.576  25.021  0.00  0.00    +0.037 A 
ATOM     25  C   UNL     1      -4.909   2.084  25.062  0.00  0.00    +0.172 A 
ATOM     28  C   UNL     1      -5.542   2.281  25.551  0.00  0.00    +0.172 A 
ATOM     31  C   UNL     1      -5.516   2.972  26.002  0.00  0.00    +0.040 A 
ATOM     32  C   UNL     1      -4.855   3.465  25.962  0.00  0.00    +0.001 A 
BRANCH  25  26
ATOM     26  O   UNL     1      -4.936   1.393  24.610  0.00  0.00    -0.468 OA
ATOM     27  C   UNL     1      -4.236   1.042  24.352  0.00  0.00    +0.253 C 
ENDBRANCH  25  26
BRANCH  28  29
ATOM     29  O   UNL     1      -6.203   1.788  25.591  0.00  0.00    -0.468 OA
ATOM     30  C   UNL     1      -6.656   1.761  26.280  0.00  0.00    +0.253 C 
ENDBRANCH  28  29
ENDBRANCH  22  23
ENDBRANCH  21  22
ENDBRANCH  18  19
ENDBRANCH  17  18
TORSDOF 11
ENDMDL
MODEL 5
REMARK VINA RESULT:      -7.4      3.075      6.488
REMARK  Name = 
REMARK  11 active torsions:
REMARK  status: ('A' for Active; 'I' for Inactive)
REMARK    1  A    between atoms: C_2  and  O_3
REMARK    2  A    between atoms: O_3  and  C_4
REMARK    3  A    between atoms: C_4  and  C_6
REMARK    4  A    between atoms: C_10  and  N_11
REMARK    5  A    between atoms: C_17  and  C_18
REMARK    6  A    between atoms: C_18  and  C_19
REMARK    7  A    between atoms: N_21  and  C_22
REMARK    8  A    between atoms: C_22  and  C_23
REMARK    9  A    between atoms: C_25  and  O_26
REMARK   10  A    between atoms: C_28  and  O_29
REMARK   11  A    between atoms: C_33  and  C_34
REMARK                            x       y       z     vdW  Elec       q    Type
REMARK                         _______ _______ _______ _____ _____    ______ ____
ROOT
ATOM     11  N   UNL     1      -0.783  -0.190  25.251  0.00  0.00    -0.162 NA
ATOM     12  C   UNL     1      -0.785   0.362  24.638  0.00  0.00    +0.327 C 
ATOM     13  O   UNL     1      -0.914   0.115  23.861  0.00  0.00    -0.250 OA
ATOM     14  N   UNL     1      -0.658   1.160  24.801  0.00  0.00    -0.263 N 
ATOM     15  C   UNL     1      -0.660   1.711  24.188  0.00  0.00    +0.095 C 
ATOM     16  C   UNL     1      -0.533   2.510  24.350  0.00  0.00    +0.022 C 
ATOM     17  C   UNL     1      -0.404   2.758  25.127  0.00  0.00    +0.012 C 
ATOM     33  C   UNL     1      -0.403   2.206  25.741  0.00  0.00    +0.020 C 
ATOM     36  C   UNL     1      -0.530   1.407  25.577  0.00  0.00    +0.095 C 
ENDROOT
BRANCH  11  10
ATOM      6  C   UNL     1      -1.806  -2.084  24.891  0.00  0.00    +0.077 A 
ATOM      7  C   UNL     1      -1.163  -2.587  24.763  0.00  0.00    +0.007 A 
ATOM      8  C   UNL     1      -0.395  -2.290  24.798  0.00  0.00    +0.002 A 
ATOM      9  C   UNL     1      -0.267  -1.491  24.961  0.00  0.00    +0.017 A 
ATOM     10  C   UNL     1      -0.910  -0.988  25.089  0.00  0.00    +0.075 A 
ATOM     37  C   UNL     1      -1.679  -1.286  25.054  0.00  0.00    +0.023 A 
BRANCH   6   4
ATOM      4  C   UNL     1      -2.575  -2.382  24.856  0.00  0.00    +0.341 C 
ATOM      5  O   UNL     1      -2.862  -2.855  25.468  0.00  0.00    -0.245 OA
BRANCH   4   3
ATOM      3  O   UNL     1      -3.056  -2.207  24.210  0.00  0.00    -0.445 OA
BRANCH   3   2
ATOM      1  C   UNL     1      -4.367  -2.121  23.648  0.00  0.00    +0.051 C 
ATOM      2  C   UNL     1      -3.853  -2.421  24.218  0.00  0.00    +0.209 C 
ENDBRANCH   3   2
ENDBRANCH   4   3
ENDBRANCH   6   4
ENDBRANCH  11  10
BRANCH  33  34
ATOM     34  C   UNL     1      -0.274   2.452  26.517  0.00  0.00    +0.002 C 
ATOM     35  C   UNL     1       0.258   2.045  26.997  0.00  0.00    +0.000 C 
ENDBRANCH  33  34
BRANCH  17  18
ATOM     18  C   UNL     1      -0.277   3.557  25.290  0.00  0.00    +0.087 C 
BRANCH  18  19
ATOM     19  C   UNL     1      -0.878   4.105  25.155  0.00  0.00    +0.242 C 
ATOM     20  O   UNL     1      -0.714   4.808  24.756  0.00  0.00    -0.273 OA
ATOM     21  N   UNL     1      -1.644   3.950  25.419  0.00  0.00    -0.201 NA
BRANCH  21  22
ATOM     22  C   UNL     1      -2.246   4.499  25.284  0.00  0.00    +0.142 C 
BRANCH  22  23
ATOM     23  C   UNL     1      -3.035   4.257  25.302  0.00  0.00    +0.003 A 
ATOM     24  C   UNL     1      -3.400   3.992  24.611  0.00  0.00    +0.037 A 
ATOM     25  C   UNL     1      -4.189   3.751  24.628  0.00  0.00    +0.172 A 
ATOM     28  C   UNL     1      -4.612   3.775  25.335  0.00  0.00    +0.172 A 
ATOM     31  C   UNL     1      -4.247   4.040  26.026  0.00  0.00    +0.040 A 
ATOM     32  C   UNL     1      -3.458   4.281  26.009  0.00  0.00    +0.001 A 
BRANCH  25  26
ATOM     26  O   UNL     1      -4.554   3.485  23.937  0.00  0.00    -0.468 OA
ATOM     27  C   UNL     1      -4.099   3.168  23.327  0.00  0.00    +0.253 C 
ENDBRANCH  25  26
BRANCH  28  29
ATOM     29  O   UNL     1      -5.401   3.533  25.353  0.00  0.00    -0.468 OA
ATOM     30  C   UNL     1      -5.690   3.118  26.004  0.00  0.00    +0.253 C 
ENDBRANCH  28  29
ENDBRANCH  22  23
ENDBRANCH  21  22
ENDBRANCH  18  19
ENDBRANCH  17  18
TORSDOF 11
ENDMDL
MODEL 6
REMARK VINA RESULT:      -5.6     14.887     16.075
REMARK  Name = 
REMARK  11 active torsions:
REMARK  status: ('A' for Active; 'I' for Inactive)
REMARK    1  A    between atoms: C_2  and  O_3
REMARK    2  A    between atoms: O_3  and  C_4
REMARK    3  A    between atoms: C_4  and  C_6
REMARK    4  A    between atoms: C_10  and  N_11
REMARK    5  A    between atoms: C_17  and  C_18
REMARK    6  A    between atoms: C_18  and  C_19
REMARK    7  A    between atoms: N_21  and  C_22
REMARK    8  A    between atoms: C_22  and  C_23
REMARK    9  A    between atoms: C_25  and  O_26
REMARK   10  A    between atoms: C_28  and  O_29
REMARK   11  A    between atoms: C_33  and  C_34
REMARK                            x       y       z     vdW  Elec       q    Type
REMARK                         _______ _______ _______ _____ _____    ______ ____
ROOT
ATOM     11  N   UNL     1      -8.173  -9.757  16.611  0.00  0.00    -0.162 NA
ATOM     12  C   UNL     1      -8.163  -9.977  15.816  0.00  0.00    +0.327 C 
ATOM     13  O   UNL     1      -8.870 -10.026  15.392  0.00  0.00    -0.250 OA
ATOM     14  N   UNL     1      -7.447 -10.147  15.444  0.00  0.00    -0.263 N 
ATOM     15  C   UNL     1      -7.437 -10.366  14.649  0.00  0.00    +0.095 C 
ATOM     16  C   UNL     1      -6.720 -10.536  14.277  0.00  0.00    +0.022 C 
ATOM     17  C   UNL     1      -6.014 -10.487  14.700  0.00  0.00    +0.012 C 
ATOM     33  C   UNL     1      -6.024 -10.267  15.496  0.00  0.00    +0.020 C 
ATOM     36  C   UNL     1      -6.740 -10.098  15.867  0.00  0.00    +0.095 C 
ENDROOT
BRANCH  11  10
ATOM      6  C   UNL     1      -9.920  -8.655  17.317  0.00  0.00    +0.077 A 
ATOM      7  C   UNL     1     -10.323  -9.248  17.728  0.00  0.00    +0.007 A 
ATOM      8  C   UNL     1     -10.009 -10.010  17.765  0.00  0.00    +0.002 A 
ATOM      9  C   UNL     1      -9.292 -10.180  17.393  0.00  0.00    +0.017 A 
ATOM     10  C   UNL     1      -8.889  -9.587  16.983  0.00  0.00    +0.075 A 
ATOM     37  C   UNL     1      -9.204  -8.825  16.946  0.00  0.00    +0.023 A 
BRANCH   6   4
ATOM      4  C   UNL     1     -10.234  -7.893  17.280  0.00  0.00    +0.341 C 
ATOM      5  O   UNL     1     -10.233  -7.414  17.951  0.00  0.00    -0.245 OA
BRANCH   4   3
ATOM      3  O   UNL     1     -10.549  -7.611  16.573  0.00  0.00    -0.445 OA
BRANCH   3   2
ATOM      1  C   UNL     1     -10.720  -6.475  15.723  0.00  0.00    +0.051 C 
ATOM      2  C   UNL     1     -10.695  -6.804  16.478  0.00  0.00    +0.209 C 
ENDBRANCH   3   2
ENDBRANCH   4   3
ENDBRANCH   6   4
ENDBRANCH  11  10
BRANCH  33  34
ATOM     34  C   UNL     1      -5.318 -10.218  15.919  0.00  0.00    +0.002 C 
ATOM     35  C   UNL     1      -5.236  -9.662  16.522  0.00  0.00    +0.000 C 
ENDBRANCH  33  34
BRANCH  17  18
ATOM     18  C   UNL     1      -5.297 -10.657  14.328  0.00  0.00    +0.087 C 
BRANCH  18  19
ATOM     19  C   UNL     1      -5.250 -10.658  13.504  0.00  0.00    +0.242 C 
ATOM     20  O   UNL     1      -5.929 -10.781  13.052  0.00  0.00    -0.273 OA
ATOM     21  N   UNL     1      -4.524 -10.534  13.133  0.00  0.00    -0.201 NA
BRANCH  21  22
ATOM     22  C   UNL     1      -4.477 -10.535  12.309  0.00  0.00    +0.142 C 
BRANCH  22  23
ATOM     23  C   UNL     1      -3.818 -10.210  11.934  0.00  0.00    +0.003 A 
ATOM     24  C   UNL     1      -3.908  -9.802  11.222  0.00  0.00    +0.037 A 
ATOM     25  C   UNL     1      -3.250  -9.476  10.847  0.00  0.00    +0.172 A 
ATOM     28  C   UNL     1      -2.502  -9.558  11.183  0.00  0.00    +0.172 A 
ATOM     31  C   UNL     1      -2.411  -9.965  11.894  0.00  0.00    +0.040 A 
ATOM     32  C   UNL     1      -3.070 -10.291  12.270  0.00  0.00    +0.001 A 
BRANCH  25  26
ATOM     26  O   UNL     1      -3.340  -9.069  10.135  0.00  0.00    -0.468 OA
ATOM     27  C   UNL     1      -3.703  -9.438   9.492  0.00  0.00    +0.253 C 
ENDBRANCH  25  26
BRANCH  28  29
ATOM     29  O   UNL     1      -1.843  -9.232  10.807  0.00  0.00    -0.468 OA
ATOM     30  C   UNL     1      -1.083  -9.447  11.048  0.00  0.00    +0.253 C 
ENDBRANCH  28  29
ENDBRANCH  22  23
ENDBRANCH  21  22
ENDBRANCH  18  19
ENDBRANCH  17  18
TORSDOF 11
ENDMDL
MODEL 7
REMARK VINA RESULT:      -4.7     16.798     19.091
REMARK  Name = 
REMARK  11 active torsions:
REMARK  status: ('A' for Active; 'I' for Inactive)
REMARK    1  A    between atoms: C_2  and  O_3
REMARK    2  A    between atoms: O_3  and  C_4
REMARK    3  A    between atoms: C_4  and  C_6
REMARK    4  A    between atoms: C_10  and  N_11
REMARK    5  A    between atoms: C_17  and  C_18
REMARK    6  A    between atoms: C_18  and  C_19
REMARK    7  A    between atoms: N_21  and  C_22
REMARK    8  A    between atoms: C_22  and  C_23
REMARK    9  A    between atoms: C_25  and  O_26
REMARK   10  A    between atoms: C_28  and  O_29
REMARK   11  A    between atoms: C_33  and  C_34
REMARK                            x       y       z     vdW  Elec       q    Type
REMARK                         _______ _______ _______ _____ _____    ______ ____
ROOT
ATOM     11  N   UNL     1      -3.732 -10.092  11.506  0.00  0.00    -0.162 NA
ATOM     12  C   UNL     1      -3.848  -9.503  10.940  0.00  0.00    +0.327 C 
ATOM     13  O   UNL     1      -3.202  -9.083  10.643  0.00  0.00    -0.250 OA
ATOM     14  N   UNL     1      -4.609  -9.333  10.670  0.00  0.00    -0.263 N 
ATOM     15  C   UNL     1      -4.724  -8.744  10.105  0.00  0.00    +0.095 C 
ATOM     16  C   UNL     1      -5.485  -8.574   9.835  0.00  0.00    +0.022 C 
ATOM     17  C   UNL     1      -6.131  -8.993  10.132  0.00  0.00    +0.012 C 
ATOM     33  C   UNL     1      -6.015  -9.583  10.698  0.00  0.00    +0.020 C 
ATOM     36  C   UNL     1      -5.254  -9.752  10.967  0.00  0.00    +0.095 C 
ENDROOT
BRANCH  11  10
ATOM      6  C   UNL     1      -2.010 -10.289  12.831  0.00  0.00    +0.077 A 
ATOM      7  C   UNL     1      -1.449 -10.602  12.313  0.00  0.00    +0.007 A 
ATOM      8  C   UNL     1      -1.649 -10.745  11.526  0.00  0.00    +0.002 A 
ATOM      9  C   UNL     1      -2.410 -10.575  11.256  0.00  0.00    +0.017 A 
ATOM     10  C   UNL     1      -2.972 -10.262  11.775  0.00  0.00    +0.075 A 
ATOM     37  C   UNL     1      -2.770 -10.119  12.562  0.00  0.00    +0.023 A 
BRANCH   6   4
ATOM      4  C   UNL     1      -1.809 -10.146  13.619  0.00  0.00    +0.341 C 
ATOM      5  O   UNL     1      -1.798 -10.768  14.161  0.00  0.00    -0.245 OA
BRANCH   4   3
ATOM      3  O   UNL     1      -1.618  -9.383  13.864  0.00  0.00    -0.445 OA
BRANCH   3   2
ATOM      1  C   UNL     1      -0.636  -8.730  14.672  0.00  0.00    +0.051 C 
ATOM      2  C   UNL     1      -1.262  -9.261  14.599  0.00  0.00    +0.209 C 
ENDBRANCH   3   2
ENDBRANCH   4   3
ENDBRANCH   6   4
ENDBRANCH  11  10
BRANCH  33  34
ATOM     34  C   UNL     1      -6.660 -10.002  10.994  0.00  0.00    +0.002 C 
ATOM     35  C   UNL     1      -6.547 -10.736  11.352  0.00  0.00    +0.000 C 
ENDBRANCH  33  34
BRANCH  17  18
ATOM     18  C   UNL     1      -6.893  -8.823   9.862  0.00  0.00    +0.087 C 
BRANCH  18  19
ATOM     19  C   UNL     1      -6.997  -8.360   9.188  0.00  0.00    +0.242 C 
ATOM     20  O   UNL     1      -6.490  -8.448   8.543  0.00  0.00    -0.273 OA
ATOM     21  N   UNL     1      -7.609  -7.807   9.160  0.00  0.00    -0.201 NA
BRANCH  21  22
ATOM     22  C   UNL     1      -7.714  -7.343   8.485  0.00  0.00    +0.142 C 
BRANCH  22  23
ATOM     23  C   UNL     1      -8.346  -6.814   8.443  0.00  0.00    +0.003 A 
ATOM     24  C   UNL     1      -9.120  -7.092   8.510  0.00  0.00    +0.037 A 
ATOM     25  C   UNL     1      -9.752  -6.563   8.468  0.00  0.00    +0.172 A 
ATOM     28  C   UNL     1      -9.611  -5.759   8.359  0.00  0.00    +0.172 A 
ATOM     31  C   UNL     1      -8.837  -5.481   8.292  0.00  0.00    +0.040 A 
ATOM     32  C   UNL     1      -8.204  -6.010   8.334  0.00  0.00    +0.001 A 
BRANCH  25  26
ATOM     26  O   UNL     1     -10.527  -6.841   8.536  0.00  0.00    -0.468 OA
ATOM     27  C   UNL     1     -10.696  -7.470   9.042  0.00  0.00    +0.253 C 
ENDBRANCH  25  26
BRANCH  28  29
ATOM     29  O   UNL     1     -10.243  -5.230   8.318  0.00  0.00    -0.468 OA
ATOM     30  C   UNL     1     -10.128  -4.434   8.501  0.00  0.00    +0.253 C 
ENDBRANCH  28  29
ENDBRANCH  22  23
ENDBRANCH  21  22
ENDBRANCH  18  19
ENDBRANCH  17  18
TORSDOF 11
ENDMDL
