MODEL 1
REMARK VINA RESULT:     -12.0      0.000      0.000
REMARK  Name = 
REMARK  6 active torsions:
REMARK  status: ('A' for Active; 'I' for Inactive)
REMARK    1  A    between atoms: O_2  and  C_3
REMARK    2  A    between atoms: C_8  and  C_9
REMARK    3  A    between atoms: C_12  and  C_14
REMARK    4  A    between atoms: N_17  and  C_18
REMARK    5  A    between atoms: C_18  and  C_19
REMARK    6  A    between atoms: C_22  and  C_25
REMARK                            x       y       z     vdW  Elec       q    Type
REMARK                         _______ _______ _______ _____ _____    ______ ____
ROOT
ATOM     14  C   UNL     1      -0.707   0.961  25.278  0.00  0.00    +0.096 C 
ATOM     15  C   UNL     1      -0.432   0.644  24.567  0.00  0.00    +0.028 C 
ATOM     16  C   UNL     1      -0.592  -0.166  24.571  0.00  0.00    +0.073 C 
ATOM     17  N   UNL     1      -0.966  -0.349  25.283  0.00  0.00    -0.268 NA
ATOM     28  C   UNL     1      -1.037   0.348  25.720  0.00  0.00    +0.082 C 
ENDROOT
BRANCH  14  12
ATOM      9  C   UNL     1      -0.821   3.078  25.531  0.00  0.00    +0.252 A 
ATOM     10  N   UNL     1      -0.358   2.864  26.179  0.00  0.00    -0.107 NA
ATOM     11  N   UNL     1      -0.259   2.045  26.164  0.00  0.00    -0.111 NA
ATOM     12  C   UNL     1      -0.661   1.753  25.505  0.00  0.00    +0.227 A 
ATOM     13  O   UNL     1      -1.008   2.391  25.114  0.00  0.00    -0.419 OA
BRANCH   9   8
ATOM      3  C   UNL     1      -1.794   4.122  25.569  0.00  0.00    +0.143 A 
ATOM      4  C   UNL     1      -2.029   4.888  25.372  0.00  0.00    +0.037 A 
ATOM      5  C   UNL     1      -1.523   5.376  24.939  0.00  0.00    +0.003 A 
ATOM      6  C   UNL     1      -0.783   5.097  24.704  0.00  0.00    +0.000 A 
ATOM      7  C   UNL     1      -0.549   4.331  24.901  0.00  0.00    +0.008 A 
ATOM      8  C   UNL     1      -1.055   3.844  25.334  0.00  0.00    +0.089 A 
BRANCH   3   2
ATOM      1  C   UNL     1      -3.049   3.905  26.217  0.00  0.00    +0.252 C 
ATOM      2  O   UNL     1      -2.301   3.635  26.002  0.00  0.00    -0.471 OA
ENDBRANCH   3   2
ENDBRANCH   9   8
ENDBRANCH  14  12
BRANCH  17  18
ATOM     18  C   UNL     1      -1.224  -1.097  25.517  0.00  0.00    +0.099 C 
BRANCH  18  19
ATOM     19  C   UNL     1      -1.903  -1.423  25.181  0.00  0.00    -0.006 A 
ATOM     20  C   UNL     1      -1.837  -1.989  24.583  0.00  0.00    -0.003 A 
ATOM     21  C   UNL     1      -2.516  -2.315  24.248  0.00  0.00    +0.006 A 
ATOM     22  C   UNL     1      -3.261  -2.076  24.509  0.00  0.00    +0.080 A 
ATOM     23  C   UNL     1      -3.327  -1.511  25.106  0.00  0.00    +0.006 A 
ATOM     24  C   UNL     1      -2.648  -1.184  25.443  0.00  0.00    -0.003 A 
BRANCH  22  25
ATOM     25  C   UNL     1      -3.940  -2.402  24.173  0.00  0.00    +0.388 C 
ATOM     26  O   UNL     1      -4.499  -1.912  23.814  0.00  0.00    -0.241 OA
ATOM     27  O   UNL     1      -4.062  -3.217  24.197  0.00  0.00    -0.241 OA
ENDBRANCH  22  25
ENDBRANCH  18  19
ENDBRANCH  17  18
TORSDOF 6
ENDMDL
MODEL 2
REMARK VINA RESULT:     -11.8      1.974      6.025
REMARK  Name = 
REMARK  6 active torsions:
REMARK  status: ('A' for Active; 'I' for Inactive)
REMARK    1  A    between atoms: O_2  and  C_3
REMARK    2  A    between atoms: C_8  and  C_9
REMARK    3  A    between atoms: C_12  and  C_14
REMARK    4  A    between atoms: N_17  and  C_18
REMARK    5  A    between atoms: C_18  and  C_19
REMARK    6  A    between atoms: C_22  and  C_25
REMARK                            x       y       z     vdW  Elec       q    Type
REMARK                         _______ _______ _______ _____ _____    ______ ____
ROOT
ATOM     14  C   UNL     1      -4.292   1.538  24.678  0.00  0.00    +0.096 C 
ATOM     15  C   UNL     1      -5.076   1.799  24.677  0.00  0.00    +0.028 C 
ATOM     16  C   UNL     1      -5.106   2.518  25.081  0.00  0.00    +0.073 C 
ATOM     17  N   UNL     1      -4.342   2.702  25.332  0.00  0.00    -0.268 NA
ATOM     28  C   UNL     1      -3.839   2.096  25.083  0.00  0.00    +0.082 C 
ENDROOT
BRANCH  14  12
ATOM      9  C   UNL     1      -3.726  -0.445  24.130  0.00  0.00    +0.252 A 
ATOM     10  N   UNL     1      -3.439  -0.014  23.488  0.00  0.00    -0.107 NA
ATOM     11  N   UNL     1      -3.616   0.782  23.615  0.00  0.00    -0.111 NA
ATOM     12  C   UNL     1      -4.013   0.842  24.336  0.00  0.00    +0.227 A 
ATOM     13  O   UNL     1      -4.081   0.084  24.654  0.00  0.00    -0.419 OA
BRANCH   9   8
ATOM      3  C   UNL     1      -3.003  -1.587  24.591  0.00  0.00    +0.143 A 
ATOM      4  C   UNL     1      -2.945  -2.404  24.691  0.00  0.00    +0.037 A 
ATOM      5  C   UNL     1      -3.553  -2.896  24.430  0.00  0.00    +0.003 A 
ATOM      6  C   UNL     1      -4.220  -2.570  24.068  0.00  0.00    +0.000 A 
ATOM      7  C   UNL     1      -4.278  -1.753  23.968  0.00  0.00    +0.008 A 
ATOM      8  C   UNL     1      -3.668  -1.262  24.230  0.00  0.00    +0.089 A 
BRANCH   3   2
ATOM      1  C   UNL     1      -1.713  -1.423  25.185  0.00  0.00    +0.252 C 
ATOM      2  O   UNL     1      -2.393  -1.096  24.853  0.00  0.00    -0.471 OA
ENDBRANCH   3   2
ENDBRANCH   9   8
ENDBRANCH  14  12
BRANCH  17  18
ATOM     18  C   UNL     1      -4.119   3.373  25.757  0.00  0.00    +0.099 C 
BRANCH  18  19
ATOM     19  C   UNL     1      -3.401   3.745  25.594  0.00  0.00    -0.006 A 
ATOM     20  C   UNL     1      -3.320   4.207  24.915  0.00  0.00    -0.003 A 
ATOM     21  C   UNL     1      -2.601   4.579  24.753  0.00  0.00    +0.006 A 
ATOM     22  C   UNL     1      -1.964   4.488  25.269  0.00  0.00    +0.080 A 
ATOM     23  C   UNL     1      -2.045   4.027  25.948  0.00  0.00    +0.006 A 
ATOM     24  C   UNL     1      -2.764   3.654  26.111  0.00  0.00    -0.003 A 
BRANCH  22  25
ATOM     25  C   UNL     1      -1.246   4.860  25.107  0.00  0.00    +0.388 C 
ATOM     26  O   UNL     1      -1.210   5.683  25.055  0.00  0.00    -0.241 OA
ATOM     27  O   UNL     1      -0.564   4.409  24.996  0.00  0.00    -0.241 OA
ENDBRANCH  22  25
ENDBRANCH  18  19
ENDBRANCH  17  18
TORSDOF 6
ENDMDL
MODEL 3
REMARK VINA RESULT:     -11.6      1.855      2.595
REMARK  Name = 
REMARK  6 active torsions:
REMARK  status: ('A' for Active; 'I' for Inactive)
REMARK    1  A    between atoms: O_2  and  C_3
REMARK    2  A    between atoms: C_8  and  C_9
REMARK    3  A    between atoms: C_12  and  C_14
REMARK    4  A    between atoms: N_17  and  C_18
REMARK    5  A    between atoms: C_18  and  C_19
REMARK    6  A    between atoms: C_22  and  C_25
REMARK                            x       y       z     vdW  Elec       q    Type
REMARK                         _______ _______ _______ _____ _____    ______ ____
ROOT
ATOM     14  C   UNL     1      -4.044   2.300  25.010  0.00  0.00    +0.096 C 
ATOM     15  C   UNL     1      -4.502   2.295  24.324  0.00  0.00    +0.028 C 
ATOM     16  C   UNL     1      -4.884   1.565  24.278  0.00  0.00    +0.073 C 
ATOM     17  N   UNL     1      -4.662   1.119  24.935  0.00  0.00    -0.268 NA
ATOM     28  C   UNL     1      -4.143   1.574  25.388  0.00  0.00    +0.082 C 
ENDROOT
BRANCH  14  12
ATOM      9  C   UNL     1      -2.576   3.808  25.368  0.00  0.00    +0.252 A 
ATOM     10  N   UNL     1      -3.108   3.954  25.981  0.00  0.00    -0.107 NA
ATOM     11  N   UNL     1      -3.723   3.408  25.922  0.00  0.00    -0.111 NA
ATOM     12  C   UNL     1      -3.571   2.923  25.272  0.00  0.00    +0.227 A 
ATOM     13  O   UNL     1      -2.862   3.170  24.930  0.00  0.00    -0.419 OA
BRANCH   9   8
ATOM      3  C   UNL     1      -1.149   3.864  25.340  0.00  0.00    +0.143 A 
ATOM      4  C   UNL     1      -0.453   4.282  25.191  0.00  0.00    +0.037 A 
ATOM      5  C   UNL     1      -0.488   5.060  24.922  0.00  0.00    +0.003 A 
ATOM      6  C   UNL     1      -1.221   5.422  24.800  0.00  0.00    +0.000 A 
ATOM      7  C   UNL     1      -1.917   5.004  24.949  0.00  0.00    +0.008 A 
ATOM      8  C   UNL     1      -1.880   4.225  25.219  0.00  0.00    +0.089 A 
BRANCH   3   2
ATOM      1  C   UNL     1      -0.382   2.739  25.775  0.00  0.00    +0.252 C 
ATOM      2  O   UNL     1      -1.112   3.085  25.610  0.00  0.00    -0.471 OA
ENDBRANCH   3   2
ENDBRANCH   9   8
ENDBRANCH  14  12
BRANCH  17  18
ATOM     18  C   UNL     1      -4.915   0.353  25.110  0.00  0.00    +0.099 C 
BRANCH  18  19
ATOM     19  C   UNL     1      -4.427  -0.290  24.943  0.00  0.00    -0.006 A 
ATOM     20  C   UNL     1      -3.941  -0.603  25.533  0.00  0.00    -0.003 A 
ATOM     21  C   UNL     1      -3.452  -1.247  25.366  0.00  0.00    +0.006 A 
ATOM     22  C   UNL     1      -3.450  -1.577  24.610  0.00  0.00    +0.080 A 
ATOM     23  C   UNL     1      -3.935  -1.265  24.022  0.00  0.00    +0.006 A 
ATOM     24  C   UNL     1      -4.424  -0.621  24.188  0.00  0.00    -0.003 A 
BRANCH  22  25
ATOM     25  C   UNL     1      -2.961  -2.221  24.444  0.00  0.00    +0.388 C 
ATOM     26  O   UNL     1      -2.151  -2.107  24.335  0.00  0.00    -0.241 OA
ATOM     27  O   UNL     1      -3.282  -2.979  24.386  0.00  0.00    -0.241 OA
ENDBRANCH  22  25
ENDBRANCH  18  19
ENDBRANCH  17  18
TORSDOF 6
ENDMDL
MODEL 4
REMARK VINA RESULT:     -11.3      1.158      5.471
REMARK  Name = 
REMARK  6 active torsions:
REMARK  status: ('A' for Active; 'I' for Inactive)
REMARK    1  A    between atoms: O_2  and  C_3
REMARK    2  A    between atoms: C_8  and  C_9
REMARK    3  A    between atoms: C_12  and  C_14
REMARK    4  A    between atoms: N_17  and  C_18
REMARK    5  A    between atoms: C_18  and  C_19
REMARK    6  A    between atoms: C_22  and  C_25
REMARK                            x       y       z     vdW  Elec       q    Type
REMARK                         _______ _______ _______ _____ _____    ______ ____
ROOT
ATOM     14  C   UNL     1      -0.970   0.330  25.053  0.00  0.00    +0.096 C 
ATOM     15  C   UNL     1      -0.438   0.386  24.424  0.00  0.00    +0.028 C 
ATOM     16  C   UNL     1      -0.004   1.081  24.520  0.00  0.00    +0.073 C 
ATOM     17  N   UNL     1      -0.267   1.454  25.207  0.00  0.00    -0.268 NA
ATOM     28  C   UNL     1      -0.864   0.990  25.537  0.00  0.00    +0.082 C 
ENDROOT
BRANCH  14  12
ATOM      9  C   UNL     1      -2.479  -1.178  24.976  0.00  0.00    +0.252 A 
ATOM     10  N   UNL     1      -2.215  -1.257  25.753  0.00  0.00    -0.107 NA
ATOM     11  N   UNL     1      -1.617  -0.702  25.877  0.00  0.00    -0.111 NA
ATOM     12  C   UNL     1      -1.512  -0.280  25.176  0.00  0.00    +0.227 A 
ATOM     13  O   UNL     1      -2.045  -0.574  24.619  0.00  0.00    -0.419 OA
BRANCH   9   8
ATOM      3  C   UNL     1      -3.792  -1.271  24.419  0.00  0.00    +0.143 A 
ATOM      4  C   UNL     1      -4.386  -1.718  24.062  0.00  0.00    +0.037 A 
ATOM      5  C   UNL     1      -4.263  -2.518  23.903  0.00  0.00    +0.003 A 
ATOM      6  C   UNL     1      -3.543  -2.871  24.102  0.00  0.00    +0.000 A 
ATOM      7  C   UNL     1      -2.949  -2.425  24.459  0.00  0.00    +0.008 A 
ATOM      8  C   UNL     1      -3.074  -1.625  24.618  0.00  0.00    +0.089 A 
BRANCH   3   2
ATOM      1  C   UNL     1      -4.654  -0.131  24.434  0.00  0.00    +0.252 C 
ATOM      2  O   UNL     1      -3.916  -0.471  24.578  0.00  0.00    -0.471 OA
ENDBRANCH   3   2
ENDBRANCH   9   8
ENDBRANCH  14  12
BRANCH  17  18
ATOM     18  C   UNL     1       0.018   2.167  25.511  0.00  0.00    +0.099 C 
BRANCH  18  19
ATOM     19  C   UNL     1      -0.423   2.858  25.421  0.00  0.00    -0.006 A 
ATOM     20  C   UNL     1      -1.002   3.054  25.976  0.00  0.00    -0.003 A 
ATOM     21  C   UNL     1      -1.442   3.746  25.886  0.00  0.00    +0.006 A 
ATOM     22  C   UNL     1      -1.303   4.242  25.241  0.00  0.00    +0.080 A 
ATOM     23  C   UNL     1      -0.724   4.047  24.687  0.00  0.00    +0.006 A 
ATOM     24  C   UNL     1      -0.283   3.354  24.777  0.00  0.00    -0.003 A 
BRANCH  22  25
ATOM     25  C   UNL     1      -1.743   4.934  25.151  0.00  0.00    +0.388 C 
ATOM     26  O   UNL     1      -1.361   5.665  25.118  0.00  0.00    -0.241 OA
ATOM     27  O   UNL     1      -2.565   4.896  25.094  0.00  0.00    -0.241 OA
ENDBRANCH  22  25
ENDBRANCH  18  19
ENDBRANCH  17  18
TORSDOF 6
ENDMDL
