MODEL 1
REMARK VINA RESULT:     -10.2      0.000      0.000
REMARK  Name = 
REMARK  7 active torsions:
REMARK  status: ('A' for Active; 'I' for Inactive)
REMARK    1  A    between atoms: O_2  and  C_3
REMARK    2  A    between atoms: C_3  and  C_4
REMARK    3  A    between atoms: C_9  and  C_10
REMARK    4  A    between atoms: C_10  and  C_11
REMARK    5  A    between atoms: C_14  and  C_15
REMARK    6  A    between atoms: C_15  and  C_16
REMARK    7  A    between atoms: C_24  and  O_25
REMARK                            x       y       z     vdW  Elec       q    Type
REMARK                         _______ _______ _______ _____ _____    ______ ____
ROOT
ATOM      4  C   UNL     1      -2.145   2.764  24.542  0.00  0.00    +0.256 C 
ATOM      5  O   UNL     1      -1.559   2.269  24.237  0.00  0.00    -0.272 OA
ATOM      6  N   UNL     1      -2.895   2.462  24.710  0.00  0.00    -0.277 N 
ATOM      7  C   UNL     1      -3.480   2.956  25.014  0.00  0.00    +0.093 C 
ATOM      8  C   UNL     1      -4.229   2.655  25.182  0.00  0.00    +0.022 C 
ATOM      9  C   UNL     1      -4.392   1.858  25.044  0.00  0.00    +0.015 C 
ATOM     14  C   UNL     1      -3.808   1.364  24.739  0.00  0.00    +0.026 C 
ATOM     28  C   UNL     1      -3.058   1.665  24.572  0.00  0.00    +0.094 C 
ENDROOT
BRANCH   4   3
ATOM      3  C   UNL     1      -1.981   3.560  24.680  0.00  0.00    +0.227 C 
BRANCH   3   2
ATOM      1  C   UNL     1      -1.024   4.593  24.922  0.00  0.00    +0.175 C 
ATOM      2  O   UNL     1      -1.201   3.829  24.666  0.00  0.00    -0.342 OA
ENDBRANCH   3   2
ENDBRANCH   4   3
BRANCH   9  10
ATOM     10  C   UNL     1      -5.143   1.557  25.211  0.00  0.00    +0.114 C 
BRANCH  10  11
ATOM     11  C   UNL     1      -5.760   2.069  25.404  0.00  0.00    +0.365 C 
ATOM     12  O   UNL     1      -6.274   2.334  24.816  0.00  0.00    -0.246 OA
ATOM     13  O   UNL     1      -5.862   2.316  26.185  0.00  0.00    -0.246 OA
ENDBRANCH  10  11
ENDBRANCH   9  10
BRANCH  14  15
ATOM     15  C   UNL     1      -3.972   0.567  24.601  0.00  0.00    +0.047 C 
BRANCH  15  16
ATOM     16  C   UNL     1      -3.525  -0.017  24.976  0.00  0.00    +0.053 C 
ATOM     17  N   UNL     1      -3.010   0.187  25.587  0.00  0.00    -0.274 NA
ATOM     18  C   UNL     1      -2.563  -0.398  25.962  0.00  0.00    +0.130 C 
ATOM     19  C   UNL     1      -2.632  -1.185  25.724  0.00  0.00    +0.053 C 
ATOM     20  C   UNL     1      -3.147  -1.389  25.113  0.00  0.00    -0.016 A 
ATOM     21  C   UNL     1      -3.594  -0.805  24.738  0.00  0.00    +0.009 A 
ATOM     22  C   UNL     1      -4.109  -1.008  24.128  0.00  0.00    +0.004 A 
ATOM     23  C   UNL     1      -4.178  -1.795  23.891  0.00  0.00    +0.037 A 
ATOM     24  C   UNL     1      -3.731  -2.379  24.266  0.00  0.00    +0.138 A 
ATOM     27  C   UNL     1      -3.216  -2.176  24.876  0.00  0.00    +0.033 A 
BRANCH  24  25
ATOM     25  O   UNL     1      -3.800  -3.166  24.028  0.00  0.00    -0.471 OA
ATOM     26  C   UNL     1      -4.390  -3.387  23.497  0.00  0.00    +0.252 C 
ENDBRANCH  24  25
ENDBRANCH  15  16
ENDBRANCH  14  15
TORSDOF 7
ENDMDL
MODEL 2
REMARK VINA RESULT:      -9.8      1.159      2.559
REMARK  Name = 
REMARK  7 active torsions:
REMARK  status: ('A' for Active; 'I' for Inactive)
REMARK    1  A    between atoms: O_2  and  C_3
REMARK    2  A    between atoms: C_3  and  C_4
REMARK    3  A    between atoms: C_9  and  C_10
REMARK    4  A    between atoms: C_10  and  C_11
REMARK    5  A    between atoms: C_14  and  C_15
REMARK    6  A    between atoms: C_15  and  C_16
REMARK    7  A    between atoms: C_24  and  O_25
REMARK                            x       y       z     vdW  Elec       q    Type
REMARK                         _______ _______ _______ _____ _____    ______ ____
ROOT
ATOM      4  C   UNL     1      -5.006   2.551  25.240  0.00  0.00    +0.256 C 
ATOM      5  O   UNL     1      -5.433   1.993  25.672  0.00  0.00    -0.272 OA
ATOM      6  N   UNL     1      -4.442   2.304  24.690  0.00  0.00    -0.277 N 
ATOM      7  C   UNL     1      -4.015   2.861  24.258  0.00  0.00    +0.093 C 
ATOM      8  C   UNL     1      -3.451   2.614  23.709  0.00  0.00    +0.022 C 
ATOM      9  C   UNL     1      -3.316   1.809  23.592  0.00  0.00    +0.015 C 
ATOM     14  C   UNL     1      -3.742   1.252  24.024  0.00  0.00    +0.026 C 
ATOM     28  C   UNL     1      -4.306   1.498  24.573  0.00  0.00    +0.094 C 
ENDROOT
BRANCH   4   3
ATOM      3  C   UNL     1      -5.141   3.356  25.357  0.00  0.00    +0.227 C 
BRANCH   3   2
ATOM      1  C   UNL     1      -6.028   4.401  25.762  0.00  0.00    +0.175 C 
ATOM      2  O   UNL     1      -5.810   3.605  25.772  0.00  0.00    -0.342 OA
ENDBRANCH   3   2
ENDBRANCH   4   3
BRANCH   9  10
ATOM     10  C   UNL     1      -2.752   1.562  23.042  0.00  0.00    +0.114 C 
BRANCH  10  11
ATOM     11  C   UNL     1      -2.371   2.116  22.563  0.00  0.00    +0.365 C 
ATOM     12  O   UNL     1      -1.684   2.487  22.829  0.00  0.00    -0.246 OA
ATOM     13  O   UNL     1      -2.679   2.298  21.820  0.00  0.00    -0.246 OA
ENDBRANCH  10  11
ENDBRANCH   9  10
BRANCH  14  15
ATOM     15  C   UNL     1      -3.606   0.446  23.906  0.00  0.00    +0.047 C 
BRANCH  15  16
ATOM     16  C   UNL     1      -3.330  -0.021  24.528  0.00  0.00    +0.053 C 
ATOM     17  N   UNL     1      -2.895   0.323  25.139  0.00  0.00    -0.274 NA
ATOM     18  C   UNL     1      -2.619  -0.144  25.762  0.00  0.00    +0.130 C 
ATOM     19  C   UNL     1      -2.779  -0.954  25.772  0.00  0.00    +0.053 C 
ATOM     20  C   UNL     1      -3.214  -1.298  25.161  0.00  0.00    -0.016 A 
ATOM     21  C   UNL     1      -3.490  -0.830  24.538  0.00  0.00    +0.009 A 
ATOM     22  C   UNL     1      -3.925  -1.173  23.927  0.00  0.00    +0.004 A 
ATOM     23  C   UNL     1      -4.084  -1.982  23.938  0.00  0.00    +0.037 A 
ATOM     24  C   UNL     1      -3.808  -2.449  24.560  0.00  0.00    +0.138 A 
ATOM     27  C   UNL     1      -3.373  -2.106  25.171  0.00  0.00    +0.033 A 
BRANCH  24  25
ATOM     25  O   UNL     1      -3.968  -3.258  24.570  0.00  0.00    -0.471 OA
ATOM     26  C   UNL     1      -3.627  -3.753  24.006  0.00  0.00    +0.252 C 
ENDBRANCH  24  25
ENDBRANCH  15  16
ENDBRANCH  14  15
TORSDOF 7
ENDMDL
MODEL 3
REMARK VINA RESULT:      -9.8      2.484      3.595
REMARK  Name = 
REMARK  7 active torsions:
REMARK  status: ('A' for Active; 'I' for Inactive)
REMARK    1  A    between atoms: O_2  and  C_3
REMARK    2  A    between atoms: C_3  and  C_4
REMARK    3  A    between atoms: C_9  and  C_10
REMARK    4  A    between atoms: C_10  and  C_11
REMARK    5  A    between atoms: C_14  and  C_15
REMARK    6  A    between atoms: C_15  and  C_16
REMARK    7  A    between atoms: C_24  and  O_25
REMARK                            x       y       z     vdW  Elec       q    Type
REMARK                         _______ _______ _______ _____ _____    ______ ____
ROOT
ATOM      4  C   UNL     1       0.562   0.231  23.416  0.00  0.00    +0.256 C 
ATOM      5  O   UNL     1       0.220  -0.484  23.186  0.00  0.00    -0.272 OA
ATOM      6  N   UNL     1       0.186   0.708  23.976  0.00  0.00    -0.277 N 
ATOM      7  C   UNL     1       0.528   1.422  24.205  0.00  0.00    +0.093 C 
ATOM      8  C   UNL     1       0.152   1.898  24.764  0.00  0.00    +0.022 C 
ATOM      9  C   UNL     1      -0.565   1.659  25.093  0.00  0.00    +0.015 C 
ATOM     14  C   UNL     1      -0.907   0.945  24.864  0.00  0.00    +0.026 C 
ATOM     28  C   UNL     1      -0.531   0.468  24.305  0.00  0.00    +0.094 C 
ENDROOT
BRANCH   4   3
ATOM      3  C   UNL     1       1.280   0.471  23.087  0.00  0.00    +0.227 C 
BRANCH   3   2
ATOM      1  C   UNL     1       2.484   0.129  22.397  0.00  0.00    +0.175 C 
ATOM      2  O   UNL     1       1.705  -0.048  22.605  0.00  0.00    -0.342 OA
ENDBRANCH   3   2
ENDBRANCH   4   3
BRANCH   9  10
ATOM     10  C   UNL     1      -0.941   2.135  25.653  0.00  0.00    +0.114 C 
BRANCH  10  11
ATOM     11  C   UNL     1      -0.533   2.760  26.004  0.00  0.00    +0.365 C 
ATOM     12  O   UNL     1      -0.054   2.621  26.662  0.00  0.00    -0.246 OA
ATOM     13  O   UNL     1      -0.604   3.523  25.698  0.00  0.00    -0.246 OA
ENDBRANCH  10  11
ENDBRANCH   9  10
BRANCH  14  15
ATOM     15  C   UNL     1      -1.625   0.706  25.193  0.00  0.00    +0.047 C 
BRANCH  15  16
ATOM     16  C   UNL     1      -2.268   0.538  24.704  0.00  0.00    +0.053 C 
ATOM     17  N   UNL     1      -2.491   1.075  24.118  0.00  0.00    -0.274 NA
ATOM     18  C   UNL     1      -3.135   0.907  23.629  0.00  0.00    +0.130 C 
ATOM     19  C   UNL     1      -3.554   0.203  23.726  0.00  0.00    +0.053 C 
ATOM     20  C   UNL     1      -3.331  -0.334  24.312  0.00  0.00    -0.016 A 
ATOM     21  C   UNL     1      -2.687  -0.166  24.801  0.00  0.00    +0.009 A 
ATOM     22  C   UNL     1      -2.464  -0.702  25.387  0.00  0.00    +0.004 A 
ATOM     23  C   UNL     1      -2.883  -1.405  25.484  0.00  0.00    +0.037 A 
ATOM     24  C   UNL     1      -3.527  -1.573  24.994  0.00  0.00    +0.138 A 
ATOM     27  C   UNL     1      -3.750  -1.037  24.409  0.00  0.00    +0.033 A 
BRANCH  24  25
ATOM     25  O   UNL     1      -3.946  -2.277  25.091  0.00  0.00    -0.471 OA
ATOM     26  C   UNL     1      -3.604  -2.995  24.873  0.00  0.00    +0.252 C 
ENDBRANCH  24  25
ENDBRANCH  15  16
ENDBRANCH  14  15
TORSDOF 7
ENDMDL
MODEL 4
REMARK VINA RESULT:      -9.8      1.020      4.530
REMARK  Name = 
REMARK  7 active torsions:
REMARK  status: ('A' for Active; 'I' for Inactive)
REMARK    1  A    between atoms: O_2  and  C_3
REMARK    2  A    between atoms: C_3  and  C_4
REMARK    3  A    between atoms: C_9  and  C_10
REMARK    4  A    between atoms: C_10  and  C_11
REMARK    5  A    between atoms: C_14  and  C_15
REMARK    6  A    between atoms: C_15  and  C_16
REMARK    7  A    between atoms: C_24  and  O_25
REMARK                            x       y       z     vdW  Elec       q    Type
REMARK                         _______ _______ _______ _____ _____    ______ ____
ROOT
ATOM      4  C   UNL     1      -3.209  -0.824  25.068  0.00  0.00    +0.256 C 
ATOM      5  O   UNL     1      -2.388  -0.748  25.081  0.00  0.00    -0.272 OA
ATOM      6  N   UNL     1      -3.685  -0.150  25.030  0.00  0.00    -0.277 N 
ATOM      7  C   UNL     1      -4.506  -0.226  25.017  0.00  0.00    +0.093 C 
ATOM      8  C   UNL     1      -4.982   0.446  24.979  0.00  0.00    +0.022 C 
ATOM      9  C   UNL     1      -4.636   1.194  24.953  0.00  0.00    +0.015 C 
ATOM     14  C   UNL     1      -3.816   1.270  24.966  0.00  0.00    +0.026 C 
ATOM     28  C   UNL     1      -3.339   0.598  25.004  0.00  0.00    +0.094 C 
ENDROOT
BRANCH   4   3
ATOM      3  C   UNL     1      -3.555  -1.572  25.093  0.00  0.00    +0.227 C 
BRANCH   3   2
ATOM      1  C   UNL     1      -3.427  -2.975  24.851  0.00  0.00    +0.175 C 
ATOM      2  O   UNL     1      -3.083  -2.247  25.030  0.00  0.00    -0.342 OA
ENDBRANCH   3   2
ENDBRANCH   4   3
BRANCH   9  10
ATOM     10  C   UNL     1      -5.113   1.868  24.915  0.00  0.00    +0.114 C 
BRANCH  10  11
ATOM     11  C   UNL     1      -5.888   1.840  25.195  0.00  0.00    +0.365 C 
ATOM     12  O   UNL     1      -6.043   1.971  25.995  0.00  0.00    -0.246 OA
ATOM     13  O   UNL     1      -6.509   1.683  24.674  0.00  0.00    -0.246 OA
ENDBRANCH  10  11
ENDBRANCH   9  10
BRANCH  14  15
ATOM     15  C   UNL     1      -3.470   2.020  24.941  0.00  0.00    +0.047 C 
BRANCH  15  16
ATOM     16  C   UNL     1      -2.869   2.179  24.398  0.00  0.00    +0.053 C 
ATOM     17  N   UNL     1      -2.849   1.779  23.677  0.00  0.00    -0.274 NA
ATOM     18  C   UNL     1      -2.248   1.938  23.133  0.00  0.00    +0.130 C 
ATOM     19  C   UNL     1      -1.668   2.497  23.313  0.00  0.00    +0.053 C 
ATOM     20  C   UNL     1      -1.688   2.897  24.035  0.00  0.00    -0.016 A 
ATOM     21  C   UNL     1      -2.289   2.737  24.578  0.00  0.00    +0.009 A 
ATOM     22  C   UNL     1      -2.309   3.136  25.299  0.00  0.00    +0.004 A 
ATOM     23  C   UNL     1      -1.729   3.694  25.478  0.00  0.00    +0.037 A 
ATOM     24  C   UNL     1      -1.128   3.853  24.935  0.00  0.00    +0.138 A 
ATOM     27  C   UNL     1      -1.108   3.454  24.214  0.00  0.00    +0.033 A 
BRANCH  24  25
ATOM     25  O   UNL     1      -0.548   4.412  25.115  0.00  0.00    -0.471 OA
ATOM     26  C   UNL     1      -0.676   5.209  24.948  0.00  0.00    +0.252 C 
ENDBRANCH  24  25
ENDBRANCH  15  16
ENDBRANCH  14  15
TORSDOF 7
ENDMDL
MODEL 5
REMARK VINA RESULT:      -9.6      1.769      4.934
REMARK  Name = 
REMARK  7 active torsions:
REMARK  status: ('A' for Active; 'I' for Inactive)
REMARK    1  A    between atoms: O_2  and  C_3
REMARK    2  A    between atoms: C_3  and  C_4
REMARK    3  A    between atoms: C_9  and  C_10
REMARK    4  A    between atoms: C_10  and  C_11
REMARK    5  A    between atoms: C_14  and  C_15
REMARK    6  A    between atoms: C_15  and  C_16
REMARK    7  A    between atoms: C_24  and  O_25
REMARK                            x       y       z     vdW  Elec       q    Type
REMARK                         _______ _______ _______ _____ _____    ______ ____
ROOT
ATOM      4  C   UNL     1      -2.162  -0.666  24.760  0.00  0.00    +0.256 C 
ATOM      5  O   UNL     1      -2.983  -0.631  24.833  0.00  0.00    -0.272 OA
ATOM      6  N   UNL     1      -1.719   0.031  24.748  0.00  0.00    -0.277 N 
ATOM      7  C   UNL     1      -0.899  -0.003  24.675  0.00  0.00    +0.093 C 
ATOM      8  C   UNL     1      -0.456   0.692  24.664  0.00  0.00    +0.022 C 
ATOM      9  C   UNL     1      -0.835   1.422  24.726  0.00  0.00    +0.015 C 
ATOM     14  C   UNL     1      -1.655   1.457  24.799  0.00  0.00    +0.026 C 
ATOM     28  C   UNL     1      -2.098   0.761  24.811  0.00  0.00    +0.094 C 
ENDROOT
BRANCH   4   3
ATOM      3  C   UNL     1      -1.784  -1.396  24.698  0.00  0.00    +0.227 C 
BRANCH   3   2
ATOM      1  C   UNL     1      -1.870  -2.798  24.438  0.00  0.00    +0.175 C 
ATOM      2  O   UNL     1      -2.230  -2.089  24.659  0.00  0.00    -0.342 OA
ENDBRANCH   3   2
ENDBRANCH   4   3
BRANCH   9  10
ATOM     10  C   UNL     1      -0.392   2.119  24.714  0.00  0.00    +0.114 C 
BRANCH  10  11
ATOM     11  C   UNL     1       0.415   2.097  24.885  0.00  0.00    +0.365 C 
ATOM     12  O   UNL     1       0.959   1.944  24.284  0.00  0.00    -0.246 OA
ATOM     13  O   UNL     1       0.677   2.229  25.656  0.00  0.00    -0.246 OA
ENDBRANCH  10  11
ENDBRANCH   9  10
BRANCH  14  15
ATOM     15  C   UNL     1      -2.034   2.188  24.862  0.00  0.00    +0.047 C 
BRANCH  15  16
ATOM     16  C   UNL     1      -2.633   2.388  24.331  0.00  0.00    +0.053 C 
ATOM     17  N   UNL     1      -2.560   2.193  23.533  0.00  0.00    -0.274 NA
ATOM     18  C   UNL     1      -3.160   2.394  23.002  0.00  0.00    +0.130 C 
ATOM     19  C   UNL     1      -3.832   2.789  23.271  0.00  0.00    +0.053 C 
ATOM     20  C   UNL     1      -3.906   2.985  24.069  0.00  0.00    -0.016 A 
ATOM     21  C   UNL     1      -3.305   2.784  24.600  0.00  0.00    +0.009 A 
ATOM     22  C   UNL     1      -3.378   2.979  25.398  0.00  0.00    +0.004 A 
ATOM     23  C   UNL     1      -4.050   3.375  25.666  0.00  0.00    +0.037 A 
ATOM     24  C   UNL     1      -4.650   3.575  25.135  0.00  0.00    +0.138 A 
ATOM     27  C   UNL     1      -4.577   3.380  24.338  0.00  0.00    +0.033 A 
BRANCH  24  25
ATOM     25  O   UNL     1      -5.323   3.971  25.404  0.00  0.00    -0.471 OA
ATOM     26  C   UNL     1      -5.920   3.555  25.791  0.00  0.00    +0.252 C 
ENDBRANCH  24  25
ENDBRANCH  15  16
ENDBRANCH  14  15
TORSDOF 7
ENDMDL
MODEL 6
REMARK VINA RESULT:      -9.6      1.820      4.270
REMARK  Name = 
REMARK  7 active torsions:
REMARK  status: ('A' for Active; 'I' for Inactive)
REMARK    1  A    between atoms: O_2  and  C_3
REMARK    2  A    between atoms: C_3  and  C_4
REMARK    3  A    between atoms: C_9  and  C_10
REMARK    4  A    between atoms: C_10  and  C_11
REMARK    5  A    between atoms: C_14  and  C_15
REMARK    6  A    between atoms: C_15  and  C_16
REMARK    7  A    between atoms: C_24  and  O_25
REMARK                            x       y       z     vdW  Elec       q    Type
REMARK                         _______ _______ _______ _____ _____    ______ ____
ROOT
ATOM      4  C   UNL     1      -0.620   0.344  24.117  0.00  0.00    +0.256 C 
ATOM      5  O   UNL     1      -0.511   1.162  24.121  0.00  0.00    -0.272 OA
ATOM      6  N   UNL     1      -1.367   0.027  24.266  0.00  0.00    -0.277 N 
ATOM      7  C   UNL     1      -1.476  -0.790  24.262  0.00  0.00    +0.093 C 
ATOM      8  C   UNL     1      -2.223  -1.108  24.410  0.00  0.00    +0.022 C 
ATOM      9  C   UNL     1      -2.860  -0.607  24.562  0.00  0.00    +0.015 C 
ATOM     14  C   UNL     1      -2.751   0.210  24.565  0.00  0.00    +0.026 C 
ATOM     28  C   UNL     1      -2.005   0.528  24.417  0.00  0.00    +0.094 C 
ENDROOT
BRANCH   4   3
ATOM      3  C   UNL     1       0.018  -0.157  23.966  0.00  0.00    +0.227 C 
BRANCH   3   2
ATOM      1  C   UNL     1       1.175  -0.315  23.142  0.00  0.00    +0.175 C 
ATOM      2  O   UNL     1       0.716   0.149  23.647  0.00  0.00    -0.342 OA
ENDBRANCH   3   2
ENDBRANCH   4   3
BRANCH   9  10
ATOM     10  C   UNL     1      -3.608  -0.925  24.710  0.00  0.00    +0.114 C 
BRANCH  10  11
ATOM     11  C   UNL     1      -3.711  -1.743  24.736  0.00  0.00    +0.365 C 
ATOM     12  O   UNL     1      -3.942  -2.151  24.057  0.00  0.00    -0.246 OA
ATOM     13  O   UNL     1      -3.582  -2.152  25.441  0.00  0.00    -0.246 OA
ENDBRANCH  10  11
ENDBRANCH   9  10
BRANCH  14  15
ATOM     15  C   UNL     1      -3.390   0.711  24.716  0.00  0.00    +0.047 C 
BRANCH  15  16
ATOM     16  C   UNL     1      -3.524   1.366  24.233  0.00  0.00    +0.053 C 
ATOM     17  N   UNL     1      -3.287   1.350  23.443  0.00  0.00    -0.274 NA
ATOM     18  C   UNL     1      -3.422   2.006  22.959  0.00  0.00    +0.130 C 
ATOM     19  C   UNL     1      -3.793   2.676  23.267  0.00  0.00    +0.053 C 
ATOM     20  C   UNL     1      -4.029   2.692  24.057  0.00  0.00    -0.016 A 
ATOM     21  C   UNL     1      -3.895   2.036  24.541  0.00  0.00    +0.009 A 
ATOM     22  C   UNL     1      -4.131   2.051  25.331  0.00  0.00    +0.004 A 
ATOM     23  C   UNL     1      -4.502   2.720  25.638  0.00  0.00    +0.037 A 
ATOM     24  C   UNL     1      -4.636   3.376  25.154  0.00  0.00    +0.138 A 
ATOM     27  C   UNL     1      -4.400   3.361  24.364  0.00  0.00    +0.033 A 
BRANCH  24  25
ATOM     25  O   UNL     1      -5.007   4.046  25.461  0.00  0.00    -0.471 OA
ATOM     26  C   UNL     1      -5.800   4.014  25.683  0.00  0.00    +0.252 C 
ENDBRANCH  24  25
ENDBRANCH  15  16
ENDBRANCH  14  15
TORSDOF 7
ENDMDL
MODEL 7
REMARK VINA RESULT:      -9.1      2.165      3.739
REMARK  Name = 
REMARK  7 active torsions:
REMARK  status: ('A' for Active; 'I' for Inactive)
REMARK    1  A    between atoms: O_2  and  C_3
REMARK    2  A    between atoms: C_3  and  C_4
REMARK    3  A    between atoms: C_9  and  C_10
REMARK    4  A    between atoms: C_10  and  C_11
REMARK    5  A    between atoms: C_14  and  C_15
REMARK    6  A    between atoms: C_15  and  C_16
REMARK    7  A    between atoms: C_24  and  O_25
REMARK                            x       y       z     vdW  Elec       q    Type
REMARK                         _______ _______ _______ _____ _____    ______ ____
ROOT
ATOM      4  C   UNL     1      -4.310   1.791  24.622  0.00  0.00    +0.256 C 
ATOM      5  O   UNL     1      -4.235   1.049  24.268  0.00  0.00    -0.272 OA
ATOM      6  N   UNL     1      -3.636   2.231  24.804  0.00  0.00    -0.277 N 
ATOM      7  C   UNL     1      -3.710   2.972  25.158  0.00  0.00    +0.093 C 
ATOM      8  C   UNL     1      -3.037   3.412  25.340  0.00  0.00    +0.022 C 
ATOM      9  C   UNL     1      -2.289   3.110  25.167  0.00  0.00    +0.015 C 
ATOM     14  C   UNL     1      -2.214   2.369  24.814  0.00  0.00    +0.026 C 
ATOM     28  C   UNL     1      -2.888   1.929  24.632  0.00  0.00    +0.094 C 
ENDROOT
BRANCH   4   3
ATOM      3  C   UNL     1      -5.058   2.093  24.795  0.00  0.00    +0.227 C 
BRANCH   3   2
ATOM      1  C   UNL     1      -6.451   1.860  25.008  0.00  0.00    +0.175 C 
ATOM      2  O   UNL     1      -5.726   1.618  24.699  0.00  0.00    -0.342 OA
ENDBRANCH   3   2
ENDBRANCH   4   3
BRANCH   9  10
ATOM     10  C   UNL     1      -1.614   3.550  25.349  0.00  0.00    +0.114 C 
BRANCH  10  11
ATOM     11  C   UNL     1      -1.666   4.370  25.429  0.00  0.00    +0.365 C 
ATOM     12  O   UNL     1      -2.045   4.697  26.085  0.00  0.00    -0.246 OA
ATOM     13  O   UNL     1      -1.338   4.861  24.853  0.00  0.00    -0.246 OA
ENDBRANCH  10  11
ENDBRANCH   9  10
BRANCH  14  15
ATOM     15  C   UNL     1      -1.465   2.067  24.641  0.00  0.00    +0.047 C 
BRANCH  15  16
ATOM     16  C   UNL     1      -1.268   1.299  24.868  0.00  0.00    +0.053 C 
ATOM     17  N   UNL     1      -1.589   0.978  25.557  0.00  0.00    -0.274 NA
ATOM     18  C   UNL     1      -1.391   0.208  25.784  0.00  0.00    +0.130 C 
ATOM     19  C   UNL     1      -0.873  -0.238  25.322  0.00  0.00    +0.053 C 
ATOM     20  C   UNL     1      -0.553   0.084  24.633  0.00  0.00    -0.016 A 
ATOM     21  C   UNL     1      -0.750   0.853  24.406  0.00  0.00    +0.009 A 
ATOM     22  C   UNL     1      -0.430   1.174  23.717  0.00  0.00    +0.004 A 
ATOM     23  C   UNL     1       0.087   0.729  23.255  0.00  0.00    +0.037 A 
ATOM     24  C   UNL     1       0.284  -0.041  23.482  0.00  0.00    +0.138 A 
ATOM     27  C   UNL     1      -0.036  -0.362  24.171  0.00  0.00    +0.033 A 
BRANCH  24  25
ATOM     25  O   UNL     1       0.802  -0.487  23.020  0.00  0.00    -0.471 OA
ATOM     26  C   UNL     1       1.466  -0.132  22.684  0.00  0.00    +0.252 C 
ENDBRANCH  24  25
ENDBRANCH  15  16
ENDBRANCH  14  15
TORSDOF 7
ENDMDL
MODEL 8
REMARK VINA RESULT:      -9.0      2.234      4.074
REMARK  Name = 
REMARK  7 active torsions:
REMARK  status: ('A' for Active; 'I' for Inactive)
REMARK    1  A    between atoms: O_2  and  C_3
REMARK    2  A    between atoms: C_3  and  C_4
REMARK    3  A    between atoms: C_9  and  C_10
REMARK    4  A    between atoms: C_10  and  C_11
REMARK    5  A    between atoms: C_14  and  C_15
REMARK    6  A    between atoms: C_15  and  C_16
REMARK    7  A    between atoms: C_24  and  O_25
REMARK                            x       y       z     vdW  Elec       q    Type
REMARK                         _______ _______ _______ _____ _____    ______ ____
ROOT
ATOM      4  C   UNL     1      -4.244   1.333  24.643  0.00  0.00    +0.256 C 
ATOM      5  O   UNL     1      -3.813   1.974  24.354  0.00  0.00    -0.272 OA
ATOM      6  N   UNL     1      -3.880   0.597  24.732  0.00  0.00    -0.277 N 
ATOM      7  C   UNL     1      -4.311  -0.043  25.021  0.00  0.00    +0.093 C 
ATOM      8  C   UNL     1      -3.947  -0.778  25.110  0.00  0.00    +0.022 C 
ATOM      9  C   UNL     1      -3.153  -0.871  24.910  0.00  0.00    +0.015 C 
ATOM     14  C   UNL     1      -2.722  -0.231  24.622  0.00  0.00    +0.026 C 
ATOM     28  C   UNL     1      -3.085   0.504  24.532  0.00  0.00    +0.094 C 
ENDROOT
BRANCH   4   3
ATOM      3  C   UNL     1      -5.039   1.427  24.843  0.00  0.00    +0.227 C 
BRANCH   3   2
ATOM      1  C   UNL     1      -6.117   2.290  25.209  0.00  0.00    +0.175 C 
ATOM      2  O   UNL     1      -5.368   2.183  24.880  0.00  0.00    -0.342 OA
ENDBRANCH   3   2
ENDBRANCH   4   3
BRANCH   9  10
ATOM     10  C   UNL     1      -2.789  -1.607  25.000  0.00  0.00    +0.114 C 
BRANCH  10  11
ATOM     11  C   UNL     1      -3.245  -2.294  25.016  0.00  0.00    +0.365 C 
ATOM     12  O   UNL     1      -3.486  -2.612  25.739  0.00  0.00    -0.246 OA
ATOM     13  O   UNL     1      -3.461  -2.662  24.310  0.00  0.00    -0.246 OA
ENDBRANCH  10  11
ENDBRANCH   9  10
BRANCH  14  15
ATOM     15  C   UNL     1      -1.927  -0.325  24.421  0.00  0.00    +0.047 C 
BRANCH  15  16
ATOM     16  C   UNL     1      -1.366   0.216  24.694  0.00  0.00    +0.053 C 
ATOM     17  N   UNL     1      -1.509   0.645  25.384  0.00  0.00    -0.274 NA
ATOM     18  C   UNL     1      -0.948   1.186  25.657  0.00  0.00    +0.130 C 
ATOM     19  C   UNL     1      -0.245   1.297  25.239  0.00  0.00    +0.053 C 
ATOM     20  C   UNL     1      -0.102   0.867  24.549  0.00  0.00    -0.016 A 
ATOM     21  C   UNL     1      -0.663   0.326  24.276  0.00  0.00    +0.009 A 
ATOM     22  C   UNL     1      -0.521  -0.103  23.587  0.00  0.00    +0.004 A 
ATOM     23  C   UNL     1       0.182   0.008  23.170  0.00  0.00    +0.037 A 
ATOM     24  C   UNL     1       0.743   0.549  23.442  0.00  0.00    +0.138 A 
ATOM     27  C   UNL     1       0.601   0.978  24.131  0.00  0.00    +0.033 A 
BRANCH  24  25
ATOM     25  O   UNL     1       1.446   0.659  23.024  0.00  0.00    -0.471 OA
ATOM     26  C   UNL     1       1.817   0.018  22.664  0.00  0.00    +0.252 C 
ENDBRANCH  24  25
ENDBRANCH  15  16
ENDBRANCH  14  15
TORSDOF 7
ENDMDL
MODEL 9
REMARK VINA RESULT:      -8.8      2.612      4.749
REMARK  Name = 
REMARK  7 active torsions:
REMARK  status: ('A' for Active; 'I' for Inactive)
REMARK    1  A    between atoms: O_2  and  C_3
REMARK    2  A    between atoms: C_3  and  C_4
REMARK    3  A    between atoms: C_9  and  C_10
REMARK    4  A    between atoms: C_10  and  C_11
REMARK    5  A    between atoms: C_14  and  C_15
REMARK    6  A    between atoms: C_15  and  C_16
REMARK    7  A    between atoms: C_24  and  O_25
REMARK                            x       y       z     vdW  Elec       q    Type
REMARK                         _______ _______ _______ _____ _____    ______ ____
ROOT
ATOM      4  C   UNL     1       0.754   0.469  23.356  0.00  0.00    +0.256 C 
ATOM      5  O   UNL     1       0.771   1.288  23.258  0.00  0.00    -0.272 OA
ATOM      6  N   UNL     1       0.143   0.117  23.786  0.00  0.00    -0.277 N 
ATOM      7  C   UNL     1       0.125  -0.701  23.884  0.00  0.00    +0.093 C 
ATOM      8  C   UNL     1      -0.485  -1.052  24.314  0.00  0.00    +0.022 C 
ATOM      9  C   UNL     1      -1.077  -0.584  24.646  0.00  0.00    +0.015 C 
ATOM     14  C   UNL     1      -1.060   0.234  24.548  0.00  0.00    +0.026 C 
ATOM     28  C   UNL     1      -0.450   0.586  24.118  0.00  0.00    +0.094 C 
ENDROOT
BRANCH   4   3
ATOM      3  C   UNL     1       1.346   0.001  23.024  0.00  0.00    +0.227 C 
BRANCH   3   2
ATOM      1  C   UNL     1       2.598  -0.112  22.344  0.00  0.00    +0.175 C 
ATOM      2  O   UNL     1       2.016   0.355  22.696  0.00  0.00    -0.342 OA
ENDBRANCH   3   2
ENDBRANCH   4   3
BRANCH   9  10
ATOM     10  C   UNL     1      -1.688  -0.935  25.076  0.00  0.00    +0.114 C 
BRANCH  10  11
ATOM     11  C   UNL     1      -1.919  -1.709  24.908  0.00  0.00    +0.365 C 
ATOM     12  O   UNL     1      -2.543  -1.849  24.387  0.00  0.00    -0.246 OA
ATOM     13  O   UNL     1      -1.525  -2.343  25.261  0.00  0.00    -0.246 OA
ENDBRANCH  10  11
ENDBRANCH   9  10
BRANCH  14  15
ATOM     15  C   UNL     1      -1.653   0.703  24.880  0.00  0.00    +0.047 C 
BRANCH  15  16
ATOM     16  C   UNL     1      -1.459   1.415  25.249  0.00  0.00    +0.053 C 
ATOM     17  N   UNL     1      -0.769   1.471  25.699  0.00  0.00    -0.274 NA
ATOM     18  C   UNL     1      -0.575   2.184  26.068  0.00  0.00    +0.130 C 
ATOM     19  C   UNL     1      -1.070   2.839  25.986  0.00  0.00    +0.053 C 
ATOM     20  C   UNL     1      -1.759   2.783  25.535  0.00  0.00    -0.016 A 
ATOM     21  C   UNL     1      -1.954   2.070  25.166  0.00  0.00    +0.009 A 
ATOM     22  C   UNL     1      -2.642   2.013  24.717  0.00  0.00    +0.004 A 
ATOM     23  C   UNL     1      -3.137   2.667  24.635  0.00  0.00    +0.037 A 
ATOM     24  C   UNL     1      -2.942   3.380  25.004  0.00  0.00    +0.138 A 
ATOM     27  C   UNL     1      -2.254   3.437  25.454  0.00  0.00    +0.033 A 
BRANCH  24  25
ATOM     25  O   UNL     1      -3.437   4.035  24.922  0.00  0.00    -0.471 OA
ATOM     26  C   UNL     1      -4.246   3.962  25.064  0.00  0.00    +0.252 C 
ENDBRANCH  24  25
ENDBRANCH  15  16
ENDBRANCH  14  15
TORSDOF 7
ENDMDL
