MODEL 1
REMARK VINA RESULT:      -8.7      0.000      0.000
REMARK  Name = 
REMARK  5 active torsions:
REMARK  status: ('A' for Active; 'I' for Inactive)
REMARK    1  A    between atoms: N_2  and  C_4
REMARK    2  A    between atoms: C_7  and  C_10
REMARK    3  A    between atoms: N_12  and  C_13
REMARK    4  A    between atoms: C_17  and  N_21
REMARK    5  A    between atoms: C_24  and  C_28
REMARK                            x       y       z     vdW  Elec       q    Type
REMARK                         _______ _______ _______ _____ _____    ______ ____
ROOT
ATOM     13  C   UNL     1       0.774   0.758  23.688  0.00  0.00    +0.155 C 
ATOM     14  C   UNL     1       0.255   0.164  23.448  0.00  0.00    +0.166 C 
ATOM     15  O   UNL     1      -0.514   0.450  23.531  0.00  0.00    -0.350 OA
ATOM     16  C   UNL     1      -0.470   1.220  23.823  0.00  0.00    +0.166 C 
ATOM     17  C   UNL     1      -0.918   1.873  24.055  0.00  0.00    +0.154 C 
ATOM     18  C   UNL     1      -0.398   2.467  24.295  0.00  0.00    +0.166 C 
ATOM     19  O   UNL     1       0.371   2.181  24.211  0.00  0.00    -0.350 OA
ATOM     20  C   UNL     1       0.326   1.410  23.919  0.00  0.00    +0.166 C 
ENDROOT
BRANCH  17  21
ATOM     21  N   UNL     1      -1.741   1.924  24.048  0.00  0.00    -0.200 NA
ATOM     22  C   UNL     1      -2.134   2.351  24.634  0.00  0.00    +0.237 A 
ATOM     23  N   UNL     1      -2.957   2.401  24.628  0.00  0.00    -0.212 NA
ATOM     24  C   UNL     1      -3.349   2.828  25.215  0.00  0.00    +0.086 A 
ATOM     25  C   UNL     1      -2.918   3.205  25.808  0.00  0.00    +0.040 A 
ATOM     26  C   UNL     1      -2.094   3.154  25.815  0.00  0.00    +0.103 A 
ATOM     27  N   UNL     1      -1.703   2.727  25.228  0.00  0.00    -0.211 NA
BRANCH  24  28
ATOM     28  C   UNL     1      -4.172   2.879  25.208  0.00  0.00    +0.020 A 
ATOM     29  C   UNL     1      -4.544   3.594  25.390  0.00  0.00    +0.002 A 
ATOM     30  C   UNL     1      -5.366   3.644  25.383  0.00  0.00    +0.002 A 
ATOM     31  C   UNL     1      -5.819   2.981  25.195  0.00  0.00    +0.030 A 
ATOM     32  C   UNL     1      -5.449   2.267  25.013  0.00  0.00    +0.140 A 
ATOM     33  F   UNL     1      -5.901   1.603  24.824  0.00  0.00    -0.204 F 
ATOM     34  C   UNL     1      -4.625   2.216  25.020  0.00  0.00    +0.031 A 
ENDBRANCH  24  28
ENDBRANCH  17  21
BRANCH  13  12
ATOM     10  C   UNL     1       1.995   0.346  23.068  0.00  0.00    +0.265 C 
ATOM     11  O   UNL     1       1.567   0.034  22.435  0.00  0.00    -0.268 OA
ATOM     12  N   UNL     1       1.598   0.707  23.695  0.00  0.00    -0.198 NA
BRANCH  10   7
ATOM      4  C   UNL     1       4.464   0.194  23.089  0.00  0.00    +0.048 A 
ATOM      5  C   UNL     1       4.096   0.878  22.812  0.00  0.00    +0.015 A 
ATOM      6  C   UNL     1       3.273   0.928  22.805  0.00  0.00    +0.006 A 
ATOM      7  C   UNL     1       2.818   0.295  23.075  0.00  0.00    +0.055 A 
ATOM      8  C   UNL     1       3.187  -0.389  23.352  0.00  0.00    +0.006 A 
ATOM      9  C   UNL     1       4.010  -0.439  23.359  0.00  0.00    +0.015 A 
BRANCH   4   2
ATOM      1  C   UNL     1       5.687  -0.175  22.448  0.00  0.00    +0.112 C 
ATOM      2  N   UNL     1       5.288   0.143  23.095  0.00  0.00    -0.304 N 
ATOM      3  C   UNL     1       5.713   0.411  23.750  0.00  0.00    +0.112 C 
ENDBRANCH   4   2
ENDBRANCH  10   7
ENDBRANCH  13  12
TORSDOF 5
ENDMDL
MODEL 2
REMARK VINA RESULT:      -8.6      2.235      7.619
REMARK  Name = 
REMARK  5 active torsions:
REMARK  status: ('A' for Active; 'I' for Inactive)
REMARK    1  A    between atoms: N_2  and  C_4
REMARK    2  A    between atoms: C_7  and  C_10
REMARK    3  A    between atoms: N_12  and  C_13
REMARK    4  A    between atoms: C_17  and  N_21
REMARK    5  A    between atoms: C_24  and  C_28
REMARK                            x       y       z     vdW  Elec       q    Type
REMARK                         _______ _______ _______ _____ _____    ______ ____
ROOT
ATOM     13  C   UNL     1      -1.795   2.012  24.354  0.00  0.00    +0.155 C 
ATOM     14  C   UNL     1      -1.380   2.724  24.327  0.00  0.00    +0.166 C 
ATOM     15  O   UNL     1      -0.577   2.547  24.258  0.00  0.00    -0.350 OA
ATOM     16  C   UNL     1      -0.496   1.727  24.242  0.00  0.00    +0.166 C 
ATOM     17  C   UNL     1       0.049   1.110  24.190  0.00  0.00    +0.154 C 
ATOM     18  C   UNL     1      -0.367   0.398  24.217  0.00  0.00    +0.166 C 
ATOM     19  O   UNL     1      -1.170   0.575  24.286  0.00  0.00    -0.350 OA
ATOM     20  C   UNL     1      -1.250   1.397  24.302  0.00  0.00    +0.166 C 
ENDROOT
BRANCH  17  21
ATOM     21  N   UNL     1       0.867   1.192  24.123  0.00  0.00    -0.200 NA
ATOM     22  C   UNL     1       1.286   0.726  23.584  0.00  0.00    +0.237 A 
ATOM     23  N   UNL     1       2.103   0.807  23.517  0.00  0.00    -0.212 NA
ATOM     24  C   UNL     1       2.521   0.342  22.979  0.00  0.00    +0.086 A 
ATOM     25  C   UNL     1       2.121  -0.204  22.508  0.00  0.00    +0.040 A 
ATOM     26  C   UNL     1       1.302  -0.286  22.576  0.00  0.00    +0.103 A 
ATOM     27  N   UNL     1       0.885   0.180  23.114  0.00  0.00    -0.211 NA
BRANCH  24  28
ATOM     28  C   UNL     1       3.339   0.423  22.911  0.00  0.00    +0.020 A 
ATOM     29  C   UNL     1       3.657   1.031  22.450  0.00  0.00    +0.002 A 
ATOM     30  C   UNL     1       4.475   1.112  22.382  0.00  0.00    +0.002 A 
ATOM     31  C   UNL     1       4.976   0.587  22.775  0.00  0.00    +0.030 A 
ATOM     32  C   UNL     1       4.658  -0.020  23.235  0.00  0.00    +0.140 A 
ATOM     33  F   UNL     1       5.158  -0.545  23.628  0.00  0.00    -0.204 F 
ATOM     34  C   UNL     1       3.840  -0.101  23.303  0.00  0.00    +0.031 A 
ENDBRANCH  24  28
ENDBRANCH  17  21
BRANCH  13  12
ATOM     10  C   UNL     1      -3.029   2.376  24.979  0.00  0.00    +0.265 C 
ATOM     11  O   UNL     1      -2.624   2.902  25.470  0.00  0.00    -0.268 OA
ATOM     12  N   UNL     1      -2.614   1.931  24.421  0.00  0.00    -0.198 NA
BRANCH  10   7
ATOM      4  C   UNL     1      -5.482   2.132  25.182  0.00  0.00    +0.048 A 
ATOM      5  C   UNL     1      -5.133   2.875  25.266  0.00  0.00    +0.015 A 
ATOM      6  C   UNL     1      -4.316   2.956  25.199  0.00  0.00    +0.006 A 
ATOM      7  C   UNL     1      -3.846   2.295  25.047  0.00  0.00    +0.055 A 
ATOM      8  C   UNL     1      -4.195   1.552  24.962  0.00  0.00    +0.006 A 
ATOM      9  C   UNL     1      -5.014   1.471  25.030  0.00  0.00    +0.015 A 
BRANCH   4   2
ATOM      1  C   UNL     1      -6.665   2.137  25.985  0.00  0.00    +0.112 C 
ATOM      2  N   UNL     1      -6.301   2.051  25.250  0.00  0.00    -0.304 N 
ATOM      3  C   UNL     1      -6.756   1.884  24.582  0.00  0.00    +0.112 C 
ENDBRANCH   4   2
ENDBRANCH  10   7
ENDBRANCH  13  12
TORSDOF 5
ENDMDL
MODEL 3
REMARK VINA RESULT:      -6.1     17.562     19.512
REMARK  Name = 
REMARK  5 active torsions:
REMARK  status: ('A' for Active; 'I' for Inactive)
REMARK    1  A    between atoms: N_2  and  C_4
REMARK    2  A    between atoms: C_7  and  C_10
REMARK    3  A    between atoms: N_12  and  C_13
REMARK    4  A    between atoms: C_17  and  N_21
REMARK    5  A    between atoms: C_24  and  C_28
REMARK                            x       y       z     vdW  Elec       q    Type
REMARK                         _______ _______ _______ _____ _____    ______ ____
ROOT
ATOM     13  C   UNL     1      -5.940  -9.059   9.804  0.00  0.00    +0.155 C 
ATOM     14  C   UNL     1      -5.777  -8.261   9.934  0.00  0.00    +0.166 C 
ATOM     15  O   UNL     1      -4.959  -8.174   9.987  0.00  0.00    -0.350 OA
ATOM     16  C   UNL     1      -4.616  -8.917   9.891  0.00  0.00    +0.166 C 
ATOM     17  C   UNL     1      -3.898  -9.323   9.864  0.00  0.00    +0.154 C 
ATOM     18  C   UNL     1      -4.061 -10.121   9.734  0.00  0.00    +0.166 C 
ATOM     19  O   UNL     1      -4.879 -10.209   9.680  0.00  0.00    -0.350 OA
ATOM     20  C   UNL     1      -5.222  -9.464   9.777  0.00  0.00    +0.166 C 
ENDROOT
BRANCH  17  21
ATOM     21  N   UNL     1      -3.149  -8.989   9.952  0.00  0.00    -0.200 NA
ATOM     22  C   UNL     1      -2.630  -9.283  10.523  0.00  0.00    +0.237 A 
ATOM     23  N   UNL     1      -1.882  -8.949  10.611  0.00  0.00    -0.212 NA
ATOM     24  C   UNL     1      -1.363  -9.242  11.181  0.00  0.00    +0.086 A 
ATOM     25  C   UNL     1      -1.594  -9.870  11.664  0.00  0.00    +0.040 A 
ATOM     26  C   UNL     1      -2.344 -10.204  11.576  0.00  0.00    +0.103 A 
ATOM     27  N   UNL     1      -2.861  -9.910  11.005  0.00  0.00    -0.211 NA
BRANCH  24  28
ATOM     28  C   UNL     1      -0.614  -8.909  11.269  0.00  0.00    +0.020 A 
ATOM     29  C   UNL     1      -0.002  -9.129  10.760  0.00  0.00    +0.002 A 
ATOM     30  C   UNL     1       0.747  -8.795  10.848  0.00  0.00    +0.002 A 
ATOM     31  C   UNL     1       0.885  -8.242  11.444  0.00  0.00    +0.030 A 
ATOM     32  C   UNL     1       0.274  -8.023  11.953  0.00  0.00    +0.140 A 
ATOM     33  F   UNL     1       0.411  -7.470  12.550  0.00  0.00    -0.204 F 
ATOM     34  C   UNL     1      -0.476  -8.356  11.865  0.00  0.00    +0.031 A 
ENDBRANCH  24  28
ENDBRANCH  17  21
BRANCH  13  12
ATOM     10  C   UNL     1      -7.302  -8.951   9.384  0.00  0.00    +0.265 C 
ATOM     11  O   UNL     1      -7.165  -8.175   9.140  0.00  0.00    -0.268 OA
ATOM     12  N   UNL     1      -6.690  -9.393   9.716  0.00  0.00    -0.198 NA
BRANCH  10   7
ATOM      4  C   UNL     1      -9.549  -9.952   9.120  0.00  0.00    +0.048 A 
ATOM      5  C   UNL     1      -9.384  -9.477   9.773  0.00  0.00    +0.015 A 
ATOM      6  C   UNL     1      -8.635  -9.143   9.861  0.00  0.00    +0.006 A 
ATOM      7  C   UNL     1      -8.051  -9.285   9.296  0.00  0.00    +0.055 A 
ATOM      8  C   UNL     1      -8.216  -9.761   8.643  0.00  0.00    +0.006 A 
ATOM      9  C   UNL     1      -8.966 -10.095   8.554  0.00  0.00    +0.015 A 
BRANCH   4   2
ATOM      1  C   UNL     1     -10.699 -10.219   8.313  0.00  0.00    +0.112 C 
ATOM      2  N   UNL     1     -10.299 -10.286   9.031  0.00  0.00    -0.304 N 
ATOM      3  C   UNL     1     -10.649 -10.688   9.661  0.00  0.00    +0.112 C 
ENDBRANCH   4   2
ENDBRANCH  10   7
ENDBRANCH  13  12
TORSDOF 5
ENDMDL
