MODEL 1
REMARK VINA RESULT:      -9.8      0.000      0.000
REMARK  Name = 
REMARK  7 active torsions:
REMARK  status: ('A' for Active; 'I' for Inactive)
REMARK    1  A    between atoms: C_2  and  C_4
REMARK    2  A    between atoms: C_7  and  N_8
REMARK    3  A    between atoms: C_9  and  O_11
REMARK    4  A    between atoms: O_11  and  C_12
REMARK    5  A    between atoms: C_16  and  N_20
REMARK    6  A    between atoms: N_23  and  C_24
REMARK    7  A    between atoms: C_24  and  C_25
REMARK                            x       y       z     vdW  Elec       q    Type
REMARK                         _______ _______ _______ _____ _____    ______ ____
ROOT
ATOM     12  C   UNL     1      -1.105   0.426  24.191  0.00  0.00    +0.229 C 
ATOM     13  C   UNL     1      -0.797   0.845  24.831  0.00  0.00    +0.188 C 
ATOM     14  O   UNL     1       0.001   0.988  24.681  0.00  0.00    -0.348 OA
ATOM     15  C   UNL     1       0.187   0.659  23.949  0.00  0.00    +0.168 C 
ATOM     16  C   UNL     1       0.794   0.543  23.402  0.00  0.00    +0.156 C 
ATOM     17  C   UNL     1       0.486   0.124  22.762  0.00  0.00    +0.166 C 
ATOM     18  O   UNL     1      -0.313  -0.019  22.912  0.00  0.00    -0.348 OA
ATOM     19  C   UNL     1      -0.498   0.311  23.646  0.00  0.00    +0.186 C 
ENDROOT
BRANCH  16  20
ATOM     20  N   UNL     1       1.574   0.801  23.482  0.00  0.00    -0.184 NA
ATOM     21  C   UNL     1       2.183   0.400  23.096  0.00  0.00    +0.340 C 
ATOM     22  O   UNL     1       2.013  -0.258  22.630  0.00  0.00    -0.249 OA
ATOM     23  N   UNL     1       2.962   0.659  23.177  0.00  0.00    -0.182 NA
BRANCH  23  24
ATOM     24  C   UNL     1       3.571   0.258  22.790  0.00  0.00    +0.143 C 
BRANCH  24  25
ATOM     25  C   UNL     1       4.303   0.163  23.160  0.00  0.00    -0.001 A 
ATOM     26  C   UNL     1       4.812   0.806  23.240  0.00  0.00    -0.003 A 
ATOM     27  C   UNL     1       5.543   0.711  23.609  0.00  0.00    -0.000 A 
ATOM     28  C   UNL     1       5.765  -0.029  23.899  0.00  0.00    -0.000 A 
ATOM     29  C   UNL     1       5.256  -0.674  23.818  0.00  0.00    -0.000 A 
ATOM     30  C   UNL     1       4.525  -0.578  23.449  0.00  0.00    -0.003 A 
ENDBRANCH  24  25
ENDBRANCH  23  24
ENDBRANCH  16  20
BRANCH  12  11
ATOM     11  O   UNL     1      -1.885   0.168  24.111  0.00  0.00    -0.432 OA
BRANCH  11   9
ATOM      8  N   UNL     1      -3.146   0.832  24.017  0.00  0.00    -0.142 NA
ATOM      9  C   UNL     1      -2.498   0.591  24.466  0.00  0.00    +0.425 C 
ATOM     10  O   UNL     1      -2.463   0.772  25.270  0.00  0.00    -0.224 OA
BRANCH   8   7
ATOM      4  C   UNL     1      -4.986   2.101  25.080  0.00  0.00    -0.022 A 
ATOM      5  C   UNL     1      -4.374   2.502  24.699  0.00  0.00    -0.003 A 
ATOM      6  C   UNL     1      -3.761   2.079  24.344  0.00  0.00    +0.016 A 
ATOM      7  C   UNL     1      -3.760   1.255  24.371  0.00  0.00    +0.077 A 
ATOM     31  C   UNL     1      -4.371   0.853  24.753  0.00  0.00    +0.016 A 
ATOM     32  C   UNL     1      -4.984   1.276  25.107  0.00  0.00    -0.003 A 
BRANCH   4   2
ATOM      1  C   UNL     1      -5.542   3.343  25.516  0.00  0.00    +0.005 C 
ATOM      2  C   UNL     1      -5.599   2.524  25.435  0.00  0.00    +0.022 C 
ATOM      3  C   UNL     1      -6.269   2.127  25.709  0.00  0.00    +0.005 C 
ENDBRANCH   4   2
ENDBRANCH   8   7
ENDBRANCH  11   9
ENDBRANCH  12  11
TORSDOF 7
ENDMDL
MODEL 2
REMARK VINA RESULT:      -9.4      0.927      7.614
REMARK  Name = 
REMARK  7 active torsions:
REMARK  status: ('A' for Active; 'I' for Inactive)
REMARK    1  A    between atoms: C_2  and  C_4
REMARK    2  A    between atoms: C_7  and  N_8
REMARK    3  A    between atoms: C_9  and  O_11
REMARK    4  A    between atoms: O_11  and  C_12
REMARK    5  A    between atoms: C_16  and  N_20
REMARK    6  A    between atoms: N_23  and  C_24
REMARK    7  A    between atoms: C_24  and  C_25
REMARK                            x       y       z     vdW  Elec       q    Type
REMARK                         _______ _______ _______ _____ _____    ______ ____
ROOT
ATOM     12  C   UNL     1       0.158   0.110  23.297  0.00  0.00    +0.229 C 
ATOM     13  C   UNL     1       0.011  -0.344  23.970  0.00  0.00    +0.188 C 
ATOM     14  O   UNL     1      -0.655  -0.035  24.346  0.00  0.00    -0.348 OA
ATOM     15  C   UNL     1      -0.919   0.611  23.907  0.00  0.00    +0.168 C 
ATOM     16  C   UNL     1      -1.494   1.201  23.866  0.00  0.00    +0.156 C 
ATOM     17  C   UNL     1      -1.347   1.656  23.194  0.00  0.00    +0.166 C 
ATOM     18  O   UNL     1      -0.682   1.346  22.818  0.00  0.00    -0.348 OA
ATOM     19  C   UNL     1      -0.417   0.700  23.258  0.00  0.00    +0.186 C 
ENDROOT
BRANCH  16  20
ATOM     20  N   UNL     1      -2.108   1.317  24.405  0.00  0.00    -0.184 NA
ATOM     21  C   UNL     1      -2.829   1.625  24.149  0.00  0.00    +0.340 C 
ATOM     22  O   UNL     1      -2.937   1.818  23.354  0.00  0.00    -0.249 OA
ATOM     23  N   UNL     1      -3.444   1.741  24.688  0.00  0.00    -0.182 NA
BRANCH  23  24
ATOM     24  C   UNL     1      -4.165   2.049  24.432  0.00  0.00    +0.143 C 
BRANCH  24  25
ATOM     25  C   UNL     1      -4.773   2.183  24.973  0.00  0.00    -0.001 A 
ATOM     26  C   UNL     1      -5.307   1.582  25.153  0.00  0.00    -0.003 A 
ATOM     27  C   UNL     1      -5.914   1.716  25.694  0.00  0.00    -0.000 A 
ATOM     28  C   UNL     1      -5.988   2.454  26.056  0.00  0.00    -0.000 A 
ATOM     29  C   UNL     1      -5.453   3.057  25.877  0.00  0.00    -0.000 A 
ATOM     30  C   UNL     1      -4.845   2.922  25.335  0.00  0.00    -0.003 A 
ENDBRANCH  24  25
ENDBRANCH  23  24
ENDBRANCH  16  20
BRANCH  12  11
ATOM     11  O   UNL     1       0.772  -0.005  22.758  0.00  0.00    -0.432 OA
BRANCH  11   9
ATOM      8  N   UNL     1       2.168   0.095  22.468  0.00  0.00    -0.142 NA
ATOM      9  C   UNL     1       1.556   0.017  23.015  0.00  0.00    +0.425 C 
ATOM     10  O   UNL     1       1.728  -0.038  23.821  0.00  0.00    -0.224 OA
BRANCH   8   7
ATOM      4  C   UNL     1       4.518   0.162  23.238  0.00  0.00    -0.022 A 
ATOM      5  C   UNL     1       4.154   0.850  22.964  0.00  0.00    -0.003 A 
ATOM      6  C   UNL     1       3.370   0.827  22.707  0.00  0.00    +0.016 A 
ATOM      7  C   UNL     1       2.951   0.118  22.724  0.00  0.00    +0.077 A 
ATOM     31  C   UNL     1       3.315  -0.570  22.998  0.00  0.00    +0.016 A 
ATOM     32  C   UNL     1       4.099  -0.548  23.255  0.00  0.00    -0.003 A 
BRANCH   4   2
ATOM      1  C   UNL     1       5.492   0.556  24.206  0.00  0.00    +0.005 C 
ATOM      2  C   UNL     1       5.302   0.185  23.495  0.00  0.00    +0.022 C 
ATOM      3  C   UNL     1       5.895  -0.165  23.040  0.00  0.00    +0.005 C 
ENDBRANCH   4   2
ENDBRANCH   8   7
ENDBRANCH  11   9
ENDBRANCH  12  11
TORSDOF 7
ENDMDL
MODEL 3
REMARK VINA RESULT:      -7.9     17.157     19.222
REMARK  Name = 
REMARK  7 active torsions:
REMARK  status: ('A' for Active; 'I' for Inactive)
REMARK    1  A    between atoms: C_2  and  C_4
REMARK    2  A    between atoms: C_7  and  N_8
REMARK    3  A    between atoms: C_9  and  O_11
REMARK    4  A    between atoms: O_11  and  C_12
REMARK    5  A    between atoms: C_16  and  N_20
REMARK    6  A    between atoms: N_23  and  C_24
REMARK    7  A    between atoms: C_24  and  C_25
REMARK                            x       y       z     vdW  Elec       q    Type
REMARK                         _______ _______ _______ _____ _____    ______ ____
ROOT
ATOM     12  C   UNL     1      -6.358  -9.732  10.217  0.00  0.00    +0.229 C 
ATOM     13  C   UNL     1      -6.550  -9.298  10.892  0.00  0.00    +0.188 C 
ATOM     14  O   UNL     1      -7.175  -8.795  10.701  0.00  0.00    -0.348 OA
ATOM     15  C   UNL     1      -7.370  -8.918   9.910  0.00  0.00    +0.168 C 
ATOM     16  C   UNL     1      -7.876  -8.684   9.302  0.00  0.00    +0.156 C 
ATOM     17  C   UNL     1      -7.684  -9.118   8.627  0.00  0.00    +0.166 C 
ATOM     18  O   UNL     1      -7.059  -9.621   8.818  0.00  0.00    -0.348 OA
ATOM     19  C   UNL     1      -6.865  -9.498   9.611  0.00  0.00    +0.186 C 
ENDROOT
BRANCH  16  20
ATOM     20  N   UNL     1      -8.471  -8.115   9.359  0.00  0.00    -0.184 NA
ATOM     21  C   UNL     1      -8.473  -7.468   8.847  0.00  0.00    +0.340 C 
ATOM     22  O   UNL     1      -7.881  -7.390   8.277  0.00  0.00    -0.249 OA
ATOM     23  N   UNL     1      -9.068  -6.898   8.904  0.00  0.00    -0.182 NA
BRANCH  23  24
ATOM     24  C   UNL     1      -9.070  -6.252   8.392  0.00  0.00    +0.143 C 
BRANCH  24  25
ATOM     25  C   UNL     1      -9.494  -5.572   8.587  0.00  0.00    -0.001 A 
ATOM     26  C   UNL     1      -9.121  -4.837   8.585  0.00  0.00    -0.003 A 
ATOM     27  C   UNL     1      -9.545  -4.157   8.780  0.00  0.00    -0.000 A 
ATOM     28  C   UNL     1     -10.344  -4.213   8.977  0.00  0.00    -0.000 A 
ATOM     29  C   UNL     1     -10.720  -4.948   8.979  0.00  0.00    -0.000 A 
ATOM     30  C   UNL     1     -10.294  -5.628   8.784  0.00  0.00    -0.003 A 
ENDBRANCH  24  25
ENDBRANCH  23  24
ENDBRANCH  16  20
BRANCH  12  11
ATOM     11  O   UNL     1      -5.763 -10.302  10.160  0.00  0.00    -0.432 OA
BRANCH  11   9
ATOM      8  N   UNL     1      -4.339 -10.222  10.085  0.00  0.00    -0.142 NA
ATOM      9  C   UNL     1      -5.035 -10.176  10.525  0.00  0.00    +0.425 C 
ATOM     10  O   UNL     1      -5.002 -10.003  11.332  0.00  0.00    -0.224 OA
BRANCH   8   7
ATOM      4  C   UNL     1      -2.152  -9.842  11.181  0.00  0.00    -0.022 A 
ATOM      5  C   UNL     1      -2.429  -9.309  10.616  0.00  0.00    -0.003 A 
ATOM      6  C   UNL     1      -3.158  -9.435  10.251  0.00  0.00    +0.016 A 
ATOM      7  C   UNL     1      -3.610 -10.095  10.450  0.00  0.00    +0.077 A 
ATOM     31  C   UNL     1      -3.334 -10.629  11.015  0.00  0.00    +0.016 A 
ATOM     32  C   UNL     1      -2.605 -10.503  11.380  0.00  0.00    -0.003 A 
BRANCH   4   2
ATOM      1  C   UNL     1      -1.216 -10.152  12.215  0.00  0.00    +0.005 C 
ATOM      2  C   UNL     1      -1.424  -9.716  11.546  0.00  0.00    +0.022 C 
ATOM      3  C   UNL     1      -0.902  -9.153  11.242  0.00  0.00    +0.005 C 
ENDBRANCH   4   2
ENDBRANCH   8   7
ENDBRANCH  11   9
ENDBRANCH  12  11
TORSDOF 7
ENDMDL
MODEL 4
REMARK VINA RESULT:      -7.4     16.651     18.534
REMARK  Name = 
REMARK  7 active torsions:
REMARK  status: ('A' for Active; 'I' for Inactive)
REMARK    1  A    between atoms: C_2  and  C_4
REMARK    2  A    between atoms: C_7  and  N_8
REMARK    3  A    between atoms: C_9  and  O_11
REMARK    4  A    between atoms: O_11  and  C_12
REMARK    5  A    between atoms: C_16  and  N_20
REMARK    6  A    between atoms: N_23  and  C_24
REMARK    7  A    between atoms: C_24  and  C_25
REMARK                            x       y       z     vdW  Elec       q    Type
REMARK                         _______ _______ _______ _____ _____    ______ ____
ROOT
ATOM     12  C   UNL     1      16.601  -6.212  26.406  0.00  0.00    +0.229 C 
ATOM     13  C   UNL     1      15.990  -6.661  26.082  0.00  0.00    +0.188 C 
ATOM     14  O   UNL     1      15.527  -6.946  26.702  0.00  0.00    -0.348 OA
ATOM     15  C   UNL     1      15.852  -6.673  27.409  0.00  0.00    +0.168 C 
ATOM     16  C   UNL     1      15.767  -6.680  28.230  0.00  0.00    +0.156 C 
ATOM     17  C   UNL     1      16.378  -6.231  28.554  0.00  0.00    +0.166 C 
ATOM     18  O   UNL     1      16.841  -5.946  27.933  0.00  0.00    -0.348 OA
ATOM     19  C   UNL     1      16.516  -6.220  27.226  0.00  0.00    +0.186 C 
ENDROOT
BRANCH  16  20
ATOM     20  N   UNL     1      15.174  -7.068  28.652  0.00  0.00    -0.184 NA
ATOM     21  C   UNL     1      14.789  -6.683  29.272  0.00  0.00    +0.340 C 
ATOM     22  O   UNL     1      14.997  -5.910  29.470  0.00  0.00    -0.249 OA
ATOM     23  N   UNL     1      14.196  -7.072  29.695  0.00  0.00    -0.182 NA
BRANCH  23  24
ATOM     24  C   UNL     1      13.812  -6.686  30.314  0.00  0.00    +0.143 C 
BRANCH  24  25
ATOM     25  C   UNL     1      13.140  -7.022  30.656  0.00  0.00    -0.001 A 
ATOM     26  C   UNL     1      13.177  -7.775  30.989  0.00  0.00    -0.003 A 
ATOM     27  C   UNL     1      12.506  -8.110  31.330  0.00  0.00    -0.000 A 
ATOM     28  C   UNL     1      11.795  -7.691  31.339  0.00  0.00    -0.000 A 
ATOM     29  C   UNL     1      11.756  -6.936  31.006  0.00  0.00    -0.000 A 
ATOM     30  C   UNL     1      12.429  -6.602  30.664  0.00  0.00    -0.003 A 
ENDBRANCH  24  25
ENDBRANCH  23  24
ENDBRANCH  16  20
BRANCH  12  11
ATOM     11  O   UNL     1      17.195  -5.824  25.983  0.00  0.00    -0.432 OA
BRANCH  11   9
ATOM      8  N   UNL     1      17.284  -4.530  25.382  0.00  0.00    -0.142 NA
ATOM      9  C   UNL     1      16.994  -5.303  25.376  0.00  0.00    +0.425 C 
ATOM     10  O   UNL     1      16.504  -5.554  24.761  0.00  0.00    -0.224 OA
BRANCH   8   7
ATOM      4  C   UNL     1      16.684  -2.967  23.561  0.00  0.00    -0.022 A 
ATOM      5  C   UNL     1      16.367  -2.863  24.315  0.00  0.00    -0.003 A 
ATOM      6  C   UNL     1      16.567  -3.384  24.922  0.00  0.00    +0.016 A 
ATOM      7  C   UNL     1      17.084  -4.009  24.775  0.00  0.00    +0.077 A 
ATOM     31  C   UNL     1      17.402  -4.114  24.021  0.00  0.00    +0.016 A 
ATOM     32  C   UNL     1      17.202  -3.593  23.413  0.00  0.00    -0.003 A 
BRANCH   4   2
ATOM      1  C   UNL     1      15.745  -2.500  22.590  0.00  0.00    +0.005 C 
ATOM      2  C   UNL     1      16.484  -2.446  22.953  0.00  0.00    +0.022 C 
ATOM      3  C   UNL     1      17.023  -1.870  22.709  0.00  0.00    +0.005 C 
ENDBRANCH   4   2
ENDBRANCH   8   7
ENDBRANCH  11   9
ENDBRANCH  12  11
TORSDOF 7
ENDMDL
MODEL 5
REMARK VINA RESULT:      -6.5     17.208     18.978
REMARK  Name = 
REMARK  7 active torsions:
REMARK  status: ('A' for Active; 'I' for Inactive)
REMARK    1  A    between atoms: C_2  and  C_4
REMARK    2  A    between atoms: C_7  and  N_8
REMARK    3  A    between atoms: C_9  and  O_11
REMARK    4  A    between atoms: O_11  and  C_12
REMARK    5  A    between atoms: C_16  and  N_20
REMARK    6  A    between atoms: N_23  and  C_24
REMARK    7  A    between atoms: C_24  and  C_25
REMARK                            x       y       z     vdW  Elec       q    Type
REMARK                         _______ _______ _______ _____ _____    ______ ____
ROOT
ATOM     12  C   UNL     1      17.012  -5.857  25.493  0.00  0.00    +0.229 C 
ATOM     13  C   UNL     1      17.028  -5.423  26.194  0.00  0.00    +0.188 C 
ATOM     14  O   UNL     1      16.692  -5.886  26.788  0.00  0.00    -0.348 OA
ATOM     15  C   UNL     1      16.468  -6.605  26.455  0.00  0.00    +0.168 C 
ATOM     16  C   UNL     1      16.122  -7.337  26.614  0.00  0.00    +0.156 C 
ATOM     17  C   UNL     1      16.106  -7.771  25.914  0.00  0.00    +0.166 C 
ATOM     18  O   UNL     1      16.442  -7.308  25.320  0.00  0.00    -0.348 OA
ATOM     19  C   UNL     1      16.666  -6.588  25.654  0.00  0.00    +0.186 C 
ENDROOT
BRANCH  16  20
ATOM     20  N   UNL     1      15.841  -7.590  27.348  0.00  0.00    -0.184 NA
ATOM     21  C   UNL     1      15.775  -8.396  27.509  0.00  0.00    +0.340 C 
ATOM     22  O   UNL     1      15.989  -8.951  26.937  0.00  0.00    -0.249 OA
ATOM     23  N   UNL     1      15.494  -8.649  28.243  0.00  0.00    -0.182 NA
BRANCH  23  24
ATOM     24  C   UNL     1      15.428  -9.456  28.403  0.00  0.00    +0.143 C 
BRANCH  24  25
ATOM     25  C   UNL     1      15.120  -9.709  29.126  0.00  0.00    -0.001 A 
ATOM     26  C   UNL     1      14.374 -10.058  29.159  0.00  0.00    -0.003 A 
ATOM     27  C   UNL     1      14.068 -10.311  29.880  0.00  0.00    -0.000 A 
ATOM     28  C   UNL     1      14.508 -10.216  30.572  0.00  0.00    -0.000 A 
ATOM     29  C   UNL     1      15.256  -9.867  30.540  0.00  0.00    -0.000 A 
ATOM     30  C   UNL     1      15.562  -9.613  29.817  0.00  0.00    -0.003 A 
ENDBRANCH  24  25
ENDBRANCH  23  24
ENDBRANCH  16  20
BRANCH  12  11
ATOM     11  O   UNL     1      17.293  -5.604  24.760  0.00  0.00    -0.432 OA
BRANCH  11   9
ATOM      8  N   UNL     1      16.918  -4.690  23.727  0.00  0.00    -0.142 NA
ATOM      9  C   UNL     1      17.149  -4.832  24.506  0.00  0.00    +0.425 C 
ATOM     10  O   UNL     1      17.235  -4.202  25.032  0.00  0.00    -0.224 OA
BRANCH   8   7
ATOM      4  C   UNL     1      16.485  -2.375  22.966  0.00  0.00    -0.022 A 
ATOM      5  C   UNL     1      15.854  -2.880  23.135  0.00  0.00    -0.003 A 
ATOM      6  C   UNL     1      15.999  -3.651  23.388  0.00  0.00    +0.016 A 
ATOM      7  C   UNL     1      16.774  -3.918  23.473  0.00  0.00    +0.077 A 
ATOM     31  C   UNL     1      17.405  -3.415  23.305  0.00  0.00    +0.016 A 
ATOM     32  C   UNL     1      17.261  -2.643  23.052  0.00  0.00    -0.003 A 
BRANCH   4   2
ATOM      1  C   UNL     1      16.919  -1.024  22.807  0.00  0.00    +0.005 C 
ATOM      2  C   UNL     1      16.340  -1.604  22.713  0.00  0.00    +0.022 C 
ATOM      3  C   UNL     1      15.616  -1.412  22.365  0.00  0.00    +0.005 C 
ENDBRANCH   4   2
ENDBRANCH   8   7
ENDBRANCH  11   9
ENDBRANCH  12  11
TORSDOF 7
ENDMDL
MODEL 6
REMARK VINA RESULT:      -6.5     16.354     18.331
REMARK  Name = 
REMARK  7 active torsions:
REMARK  status: ('A' for Active; 'I' for Inactive)
REMARK    1  A    between atoms: C_2  and  C_4
REMARK    2  A    between atoms: C_7  and  N_8
REMARK    3  A    between atoms: C_9  and  O_11
REMARK    4  A    between atoms: O_11  and  C_12
REMARK    5  A    between atoms: C_16  and  N_20
REMARK    6  A    between atoms: N_23  and  C_24
REMARK    7  A    between atoms: C_24  and  C_25
REMARK                            x       y       z     vdW  Elec       q    Type
REMARK                         _______ _______ _______ _____ _____    ______ ____
ROOT
ATOM     12  C   UNL     1      -5.033  -9.994  11.273  0.00  0.00    +0.229 C 
ATOM     13  C   UNL     1      -5.414  -9.536  11.844  0.00  0.00    +0.188 C 
ATOM     14  O   UNL     1      -6.047  -9.152  11.481  0.00  0.00    -0.348 OA
ATOM     15  C   UNL     1      -6.058  -9.372  10.687  0.00  0.00    +0.168 C 
ATOM     16  C   UNL     1      -6.455  -9.271   9.971  0.00  0.00    +0.156 C 
ATOM     17  C   UNL     1      -6.074  -9.728   9.400  0.00  0.00    +0.166 C 
ATOM     18  O   UNL     1      -5.441 -10.112   9.763  0.00  0.00    -0.348 OA
ATOM     19  C   UNL     1      -5.430  -9.892  10.558  0.00  0.00    +0.186 C 
ENDROOT
BRANCH  16  20
ATOM     20  N   UNL     1      -7.118  -8.795   9.848  0.00  0.00    -0.184 NA
ATOM     21  C   UNL     1      -7.160  -8.310   9.182  0.00  0.00    +0.340 C 
ATOM     22  O   UNL     1      -6.539  -8.300   8.639  0.00  0.00    -0.249 OA
ATOM     23  N   UNL     1      -7.823  -7.834   9.059  0.00  0.00    -0.182 NA
BRANCH  23  24
ATOM     24  C   UNL     1      -7.865  -7.349   8.393  0.00  0.00    +0.143 C 
BRANCH  24  25
ATOM     25  C   UNL     1      -8.427  -6.746   8.356  0.00  0.00    -0.001 A 
ATOM     26  C   UNL     1      -9.230  -6.925   8.406  0.00  0.00    -0.003 A 
ATOM     27  C   UNL     1      -9.791  -6.322   8.368  0.00  0.00    -0.000 A 
ATOM     28  C   UNL     1      -9.548  -5.538   8.281  0.00  0.00    -0.000 A 
ATOM     29  C   UNL     1      -8.744  -5.358   8.231  0.00  0.00    -0.000 A 
ATOM     30  C   UNL     1      -8.183  -5.962   8.268  0.00  0.00    -0.003 A 
ENDBRANCH  24  25
ENDBRANCH  23  24
ENDBRANCH  16  20
BRANCH  12  11
ATOM     11  O   UNL     1      -4.370 -10.469  11.396  0.00  0.00    -0.432 OA
BRANCH  11   9
ATOM      8  N   UNL     1      -3.109 -10.397  12.065  0.00  0.00    -0.142 NA
ATOM      9  C   UNL     1      -3.933 -10.397  12.093  0.00  0.00    +0.425 C 
ATOM     10  O   UNL     1      -4.321 -10.323  12.817  0.00  0.00    -0.224 OA
BRANCH   8   7
ATOM      4  C   UNL     1      -1.800 -10.179  14.154  0.00  0.00    -0.022 A 
ATOM      5  C   UNL     1      -2.480 -10.644  14.140  0.00  0.00    -0.003 A 
ATOM      6  C   UNL     1      -2.917 -10.717  13.444  0.00  0.00    +0.016 A 
ATOM      7  C   UNL     1      -2.672 -10.324  12.761  0.00  0.00    +0.077 A 
ATOM     31  C   UNL     1      -1.991  -9.858  12.774  0.00  0.00    +0.016 A 
ATOM     32  C   UNL     1      -1.555  -9.786  13.471  0.00  0.00    -0.003 A 
BRANCH   4   2
ATOM      1  C   UNL     1      -1.079 -10.781  15.231  0.00  0.00    +0.005 C 
ATOM      2  C   UNL     1      -1.363 -10.106  14.850  0.00  0.00    +0.022 C 
ATOM      3  C   UNL     1      -1.212  -9.359  15.166  0.00  0.00    +0.005 C 
ENDBRANCH   4   2
ENDBRANCH   8   7
ENDBRANCH  11   9
ENDBRANCH  12  11
TORSDOF 7
ENDMDL
