MODEL 1
REMARK VINA RESULT:     -15.7      0.000      0.000
REMARK  Name = 
REMARK  3 active torsions:
REMARK  status: ('A' for Active; 'I' for Inactive)
REMARK    1  A    between atoms: C_7  and  C_8
REMARK    2  A    between atoms: N_14  and  S_16
REMARK    3  A    between atoms: S_16  and  C_19
REMARK                            x       y       z     vdW  Elec       q    Type
REMARK                         _______ _______ _______ _____ _____    ______ ____
ROOT
ATOM      8  C   UNL     1      -3.499   0.733  24.779  0.00  0.00    +0.014 A 
ATOM      9  C   UNL     1      -4.117   1.271  24.883  0.00  0.00    +0.041 A 
ATOM     10  C   UNL     1      -5.034   1.305  24.922  0.00  0.00    +0.056 C 
ATOM     11  C   UNL     1      -5.602   0.895  24.882  0.00  0.00    +0.011 C 
ATOM     12  C   UNL     1      -5.436   1.684  24.994  0.00  0.00    +0.041 C 
ATOM     13  C   UNL     1      -5.440   2.661  25.140  0.00  0.00    +0.098 C 
ATOM     14  N   UNL     1      -4.617   2.807  25.131  0.00  0.00    -0.155 NA
ATOM     15  C   UNL     1      -5.054   2.249  25.064  0.00  0.00    +0.102 C 
ATOM     25  C   UNL     1      -4.477   1.659  24.954  0.00  0.00    +0.110 C 
ATOM     26  N   UNL     1      -3.952   2.071  24.996  0.00  0.00    -0.299 N 
ATOM     27  C   UNL     1      -3.170   2.335  25.007  0.00  0.00    +0.261 A 
ATOM     28  O   UNL     1      -3.006   3.135  25.120  0.00  0.00    -0.267 OA
ATOM     29  C   UNL     1      -2.553   1.797  24.903  0.00  0.00    +0.061 A 
ATOM     30  C   UNL     1      -2.718   0.997  24.790  0.00  0.00    +0.006 A 
ENDROOT
BRANCH   8   7
ATOM      1  F   UNL     1      -3.239  -0.344  26.002  0.00  0.00    -0.204 F 
ATOM      2  C   UNL     1      -3.534  -0.606  25.277  0.00  0.00    +0.140 A 
ATOM      3  C   UNL     1      -3.698  -1.406  25.163  0.00  0.00    +0.030 A 
ATOM      4  C   UNL     1      -3.993  -1.668  24.439  0.00  0.00    +0.002 A 
ATOM      5  C   UNL     1      -4.123  -1.130  23.828  0.00  0.00    +0.000 A 
ATOM      6  C   UNL     1      -3.958  -0.329  23.941  0.00  0.00    +0.002 A 
ATOM      7  C   UNL     1      -3.664  -0.067  24.666  0.00  0.00    +0.029 A 
ENDBRANCH   8   7
BRANCH  14  16
ATOM     16  S   UNL     1      -3.911   3.232  25.168  0.00  0.00    +0.063 S 
ATOM     17  O   UNL     1      -3.937   3.347  24.351  0.00  0.00    -0.153 OA
ATOM     18  O   UNL     1      -3.884   3.117  25.985  0.00  0.00    -0.153 OA
BRANCH  16  19
ATOM     19  C   UNL     1      -3.204   3.656  25.206  0.00  0.00    +0.122 A 
ATOM     20  C   UNL     1      -2.869   3.961  24.516  0.00  0.00    +0.020 A 
ATOM     21  C   UNL     1      -2.162   4.385  24.553  0.00  0.00    +0.001 A 
ATOM     22  C   UNL     1      -1.791   4.505  25.280  0.00  0.00    +0.000 A 
ATOM     23  C   UNL     1      -2.126   4.200  25.970  0.00  0.00    +0.001 A 
ATOM     24  C   UNL     1      -2.833   3.776  25.932  0.00  0.00    +0.020 A 
ENDBRANCH  16  19
ENDBRANCH  14  16
TORSDOF 3
ENDMDL
MODEL 2
REMARK VINA RESULT:     -15.7      1.427      2.445
REMARK  Name = 
REMARK  3 active torsions:
REMARK  status: ('A' for Active; 'I' for Inactive)
REMARK    1  A    between atoms: C_7  and  C_8
REMARK    2  A    between atoms: N_14  and  S_16
REMARK    3  A    between atoms: S_16  and  C_19
REMARK                            x       y       z     vdW  Elec       q    Type
REMARK                         _______ _______ _______ _____ _____    ______ ____
ROOT
ATOM      8  C   UNL     1      -3.588  -0.357  24.658  0.00  0.00    +0.014 A 
ATOM      9  C   UNL     1      -2.859   0.024  24.600  0.00  0.00    +0.041 A 
ATOM     10  C   UNL     1      -1.961  -0.159  24.535  0.00  0.00    +0.056 C 
ATOM     11  C   UNL     1      -1.509  -0.695  24.508  0.00  0.00    +0.011 C 
ATOM     12  C   UNL     1      -1.479   0.119  24.497  0.00  0.00    +0.041 C 
ATOM     13  C   UNL     1      -1.239   1.077  24.468  0.00  0.00    +0.098 C 
ATOM     14  N   UNL     1      -2.001   1.414  24.521  0.00  0.00    -0.155 NA
ATOM     15  C   UNL     1      -1.713   0.763  24.507  0.00  0.00    +0.102 C 
ATOM     25  C   UNL     1      -2.415   0.320  24.564  0.00  0.00    +0.110 C 
ATOM     26  N   UNL     1      -2.825   0.849  24.588  0.00  0.00    -0.299 N 
ATOM     27  C   UNL     1      -3.520   1.291  24.634  0.00  0.00    +0.261 A 
ATOM     28  O   UNL     1      -3.486   2.116  24.623  0.00  0.00    -0.267 OA
ATOM     29  C   UNL     1      -4.249   0.910  24.692  0.00  0.00    +0.061 A 
ATOM     30  C   UNL     1      -4.283   0.085  24.704  0.00  0.00    +0.006 A 
ENDROOT
BRANCH   8   7
ATOM      1  F   UNL     1      -4.145  -1.178  23.339  0.00  0.00    -0.204 F 
ATOM      2  C   UNL     1      -3.901  -1.592  24.010  0.00  0.00    +0.140 A 
ATOM      3  C   UNL     1      -3.935  -2.417  24.022  0.00  0.00    +0.030 A 
ATOM      4  C   UNL     1      -3.691  -2.830  24.692  0.00  0.00    +0.002 A 
ATOM      5  C   UNL     1      -3.413  -2.420  25.351  0.00  0.00    +0.000 A 
ATOM      6  C   UNL     1      -3.379  -1.596  25.340  0.00  0.00    +0.002 A 
ATOM      7  C   UNL     1      -3.623  -1.182  24.669  0.00  0.00    +0.029 A 
ENDBRANCH   8   7
BRANCH  14  16
ATOM     16  S   UNL     1      -2.584   1.997  24.558  0.00  0.00    +0.063 S 
ATOM     17  O   UNL     1      -2.517   2.013  25.380  0.00  0.00    -0.153 OA
ATOM     18  O   UNL     1      -2.652   1.982  23.735  0.00  0.00    -0.153 OA
BRANCH  16  19
ATOM     19  C   UNL     1      -3.167   2.581  24.594  0.00  0.00    +0.122 A 
ATOM     20  C   UNL     1      -3.523   2.852  23.902  0.00  0.00    +0.020 A 
ATOM     21  C   UNL     1      -4.106   3.435  23.938  0.00  0.00    +0.001 A 
ATOM     22  C   UNL     1      -4.332   3.746  24.668  0.00  0.00    +0.000 A 
ATOM     23  C   UNL     1      -3.977   3.475  25.360  0.00  0.00    +0.001 A 
ATOM     24  C   UNL     1      -3.394   2.891  25.324  0.00  0.00    +0.020 A 
ENDBRANCH  16  19
ENDBRANCH  14  16
TORSDOF 3
ENDMDL
MODEL 3
REMARK VINA RESULT:     -15.3      1.497      3.821
REMARK  Name = 
REMARK  3 active torsions:
REMARK  status: ('A' for Active; 'I' for Inactive)
REMARK    1  A    between atoms: C_7  and  C_8
REMARK    2  A    between atoms: N_14  and  S_16
REMARK    3  A    between atoms: S_16  and  C_19
REMARK                            x       y       z     vdW  Elec       q    Type
REMARK                         _______ _______ _______ _____ _____    ______ ____
ROOT
ATOM      8  C   UNL     1      -2.346   2.117  24.966  0.00  0.00    +0.014 A 
ATOM      9  C   UNL     1      -3.164   2.087  24.859  0.00  0.00    +0.041 A 
ATOM     10  C   UNL     1      -3.891   2.640  24.760  0.00  0.00    +0.056 C 
ATOM     11  C   UNL     1      -4.067   3.319  24.732  0.00  0.00    +0.011 C 
ATOM     12  C   UNL     1      -4.442   2.598  24.689  0.00  0.00    +0.041 C 
ATOM     13  C   UNL     1      -5.068   1.837  24.613  0.00  0.00    +0.098 C 
ATOM     14  N   UNL     1      -4.529   1.204  24.688  0.00  0.00    -0.155 NA
ATOM     15  C   UNL     1      -4.509   1.915  24.685  0.00  0.00    +0.102 C 
ATOM     25  C   UNL     1      -3.689   2.012  24.792  0.00  0.00    +0.110 C 
ATOM     26  N   UNL     1      -3.548   1.358  24.815  0.00  0.00    -0.299 N 
ATOM     27  C   UNL     1      -3.114   0.659  24.877  0.00  0.00    +0.261 A 
ATOM     28  O   UNL     1      -3.498  -0.070  24.832  0.00  0.00    -0.267 OA
ATOM     29  C   UNL     1      -2.297   0.689  24.983  0.00  0.00    +0.061 A 
ATOM     30  C   UNL     1      -1.913   1.418  25.027  0.00  0.00    +0.006 A 
ENDROOT
BRANCH   8   7
ATOM      1  F   UNL     1      -1.403   2.631  23.713  0.00  0.00    -0.204 F 
ATOM      2  C   UNL     1      -1.491   3.103  24.384  0.00  0.00    +0.140 A 
ATOM      3  C   UNL     1      -1.107   3.832  24.428  0.00  0.00    +0.030 A 
ATOM      4  C   UNL     1      -1.195   4.304  25.099  0.00  0.00    +0.002 A 
ATOM      5  C   UNL     1      -1.666   4.048  25.725  0.00  0.00    +0.000 A 
ATOM      6  C   UNL     1      -2.050   3.319  25.681  0.00  0.00    +0.002 A 
ATOM      7  C   UNL     1      -1.962   2.846  25.010  0.00  0.00    +0.029 A 
ENDBRANCH   8   7
BRANCH  14  16
ATOM     16  S   UNL     1      -4.256   0.426  24.730  0.00  0.00    +0.063 S 
ATOM     17  O   UNL     1      -4.405   0.417  25.541  0.00  0.00    -0.153 OA
ATOM     18  O   UNL     1      -4.106   0.435  23.918  0.00  0.00    -0.153 OA
BRANCH  16  19
ATOM     19  C   UNL     1      -3.983  -0.352  24.771  0.00  0.00    +0.122 A 
ATOM     20  C   UNL     1      -3.861  -0.708  25.505  0.00  0.00    +0.020 A 
ATOM     21  C   UNL     1      -3.588  -1.485  25.547  0.00  0.00    +0.001 A 
ATOM     22  C   UNL     1      -3.437  -1.906  24.854  0.00  0.00    +0.000 A 
ATOM     23  C   UNL     1      -3.559  -1.551  24.120  0.00  0.00    +0.001 A 
ATOM     24  C   UNL     1      -3.832  -0.773  24.078  0.00  0.00    +0.020 A 
ENDBRANCH  16  19
ENDBRANCH  14  16
TORSDOF 3
ENDMDL
MODEL 4
REMARK VINA RESULT:     -14.8      1.990      4.065
REMARK  Name = 
REMARK  3 active torsions:
REMARK  status: ('A' for Active; 'I' for Inactive)
REMARK    1  A    between atoms: C_7  and  C_8
REMARK    2  A    between atoms: N_14  and  S_16
REMARK    3  A    between atoms: S_16  and  C_19
REMARK                            x       y       z     vdW  Elec       q    Type
REMARK                         _______ _______ _______ _____ _____    ______ ____
ROOT
ATOM      8  C   UNL     1      -4.562   1.555  25.080  0.00  0.00    +0.014 A 
ATOM      9  C   UNL     1      -4.006   1.478  24.476  0.00  0.00    +0.041 A 
ATOM     10  C   UNL     1      -3.539   1.984  23.867  0.00  0.00    +0.056 C 
ATOM     11  C   UNL     1      -3.452   2.647  23.653  0.00  0.00    +0.011 C 
ATOM     12  C   UNL     1      -3.163   1.910  23.462  0.00  0.00    +0.041 C 
ATOM     13  C   UNL     1      -2.702   1.120  23.089  0.00  0.00    +0.098 C 
ATOM     14  N   UNL     1      -3.037   0.523  23.568  0.00  0.00    -0.155 NA
ATOM     15  C   UNL     1      -3.085   1.230  23.496  0.00  0.00    +0.102 C 
ATOM     25  C   UNL     1      -3.646   1.373  24.094  0.00  0.00    +0.110 C 
ATOM     26  N   UNL     1      -3.710   0.733  24.279  0.00  0.00    -0.299 N 
ATOM     27  C   UNL     1      -3.971   0.065  24.687  0.00  0.00    +0.261 A 
ATOM     28  O   UNL     1      -3.675  -0.680  24.491  0.00  0.00    -0.267 OA
ATOM     29  C   UNL     1      -4.527   0.142  25.292  0.00  0.00    +0.061 A 
ATOM     30  C   UNL     1      -4.822   0.887  25.488  0.00  0.00    +0.006 A 
ENDROOT
BRANCH   8   7
ATOM      1  F   UNL     1      -6.130   1.937  24.738  0.00  0.00    -0.204 F 
ATOM      2  C   UNL     1      -5.641   2.491  25.105  0.00  0.00    +0.140 A 
ATOM      3  C   UNL     1      -5.937   3.236  25.301  0.00  0.00    +0.030 A 
ATOM      4  C   UNL     1      -5.448   3.790  25.669  0.00  0.00    +0.002 A 
ATOM      5  C   UNL     1      -4.665   3.599  25.840  0.00  0.00    +0.000 A 
ATOM      6  C   UNL     1      -4.369   2.854  25.644  0.00  0.00    +0.002 A 
ATOM      7  C   UNL     1      -4.857   2.300  25.276  0.00  0.00    +0.029 A 
ENDBRANCH   8   7
BRANCH  14  16
ATOM     16  S   UNL     1      -3.185  -0.232  23.867  0.00  0.00    +0.063 S 
ATOM     17  O   UNL     1      -2.560  -0.145  24.398  0.00  0.00    -0.153 OA
ATOM     18  O   UNL     1      -3.811  -0.320  23.335  0.00  0.00    -0.153 OA
BRANCH  16  19
ATOM     19  C   UNL     1      -3.333  -0.987  24.165  0.00  0.00    +0.122 A 
ATOM     20  C   UNL     1      -3.933  -1.450  23.838  0.00  0.00    +0.020 A 
ATOM     21  C   UNL     1      -4.080  -2.205  24.137  0.00  0.00    +0.001 A 
ATOM     22  C   UNL     1      -3.628  -2.497  24.762  0.00  0.00    +0.000 A 
ATOM     23  C   UNL     1      -3.029  -2.034  25.089  0.00  0.00    +0.001 A 
ATOM     24  C   UNL     1      -2.881  -1.279  24.790  0.00  0.00    +0.020 A 
ENDBRANCH  16  19
ENDBRANCH  14  16
TORSDOF 3
ENDMDL
