MODEL 1
REMARK VINA RESULT:      -8.3      0.000      0.000
REMARK  Name = 
REMARK  1 active torsions:
REMARK  status: ('A' for Active; 'I' for Inactive)
REMARK    1  A    between atoms: C_12  and  C_14
REMARK                            x       y       z     vdW  Elec       q    Type
REMARK                         _______ _______ _______ _____ _____    ______ ____
ROOT
ATOM      1  C   UNL     1      -4.051   3.636  24.802  0.00  0.00    +0.117 C 
ATOM      2  N   UNL     1      -4.011   2.812  24.778  0.00  0.00    -0.261 N 
ATOM      3  C   UNL     1      -3.330   2.363  24.654  0.00  0.00    +0.117 C 
ATOM      4  C   UNL     1      -3.543   1.567  24.674  0.00  0.00    +0.116 C 
ATOM      5  C   UNL     1      -3.102   0.875  24.586  0.00  0.00    +0.115 C 
ATOM      6  N   UNL     1      -3.473   0.140  24.633  0.00  0.00    -0.276 N 
ATOM      7  C   UNL     1      -4.286   0.097  24.769  0.00  0.00    +0.115 C 
ATOM      8  C   UNL     1      -4.727   0.788  24.858  0.00  0.00    +0.116 C 
ATOM      9  N   UNL     1      -4.355   1.523  24.810  0.00  0.00    -0.261 N 
ATOM     10  C   UNL     1      -4.644   2.293  24.875  0.00  0.00    +0.307 C 
ATOM     11  O   UNL     1      -5.430   2.506  25.012  0.00  0.00    -0.252 OA
ATOM     12  C   UNL     1      -3.033  -0.552  24.545  0.00  0.00    +0.225 C 
ATOM     13  O   UNL     1      -2.220  -0.509  24.409  0.00  0.00    -0.275 OA
ENDROOT
BRANCH  12  14
ATOM     14  C   UNL     1      -3.404  -1.287  24.592  0.00  0.00    +0.077 C 
ATOM     15  C   UNL     1      -3.856  -1.883  24.245  0.00  0.00    +0.010 C 
ATOM     16  C   UNL     1      -3.595  -1.965  25.023  0.00  0.00    +0.010 C 
ENDBRANCH  12  14
TORSDOF 1
ENDMDL
MODEL 2
REMARK VINA RESULT:      -8.2      2.431      3.619
REMARK  Name = 
REMARK  1 active torsions:
REMARK  status: ('A' for Active; 'I' for Inactive)
REMARK    1  A    between atoms: C_12  and  C_14
REMARK                            x       y       z     vdW  Elec       q    Type
REMARK                         _______ _______ _______ _____ _____    ______ ____
ROOT
ATOM      1  C   UNL     1      -6.107   1.952  25.039  0.00  0.00    +0.117 C 
ATOM      2  N   UNL     1      -5.367   2.316  25.076  0.00  0.00    -0.261 N 
ATOM      3  C   UNL     1      -4.708   2.123  24.618  0.00  0.00    +0.117 C 
ATOM      4  C   UNL     1      -4.091   2.624  24.837  0.00  0.00    +0.116 C 
ATOM      5  C   UNL     1      -3.312   2.688  24.573  0.00  0.00    +0.115 C 
ATOM      6  N   UNL     1      -2.810   3.254  24.901  0.00  0.00    -0.276 N 
ATOM      7  C   UNL     1      -3.087   3.756  25.495  0.00  0.00    +0.115 C 
ATOM      8  C   UNL     1      -3.865   3.693  25.759  0.00  0.00    +0.116 C 
ATOM      9  N   UNL     1      -4.368   3.126  25.430  0.00  0.00    -0.261 N 
ATOM     10  C   UNL     1      -5.156   2.936  25.578  0.00  0.00    +0.307 C 
ATOM     11  O   UNL     1      -5.648   3.301  26.131  0.00  0.00    -0.252 OA
ATOM     12  C   UNL     1      -2.031   3.318  24.638  0.00  0.00    +0.225 C 
ATOM     13  O   UNL     1      -1.754   2.816  24.044  0.00  0.00    -0.275 OA
ENDROOT
BRANCH  12  14
ATOM     14  C   UNL     1      -1.529   3.884  24.966  0.00  0.00    +0.077 C 
ATOM     15  C   UNL     1      -1.275   4.667  25.023  0.00  0.00    +0.010 C 
ATOM     16  C   UNL     1      -0.913   4.081  25.479  0.00  0.00    +0.010 C 
ENDBRANCH  12  14
TORSDOF 1
ENDMDL
MODEL 3
REMARK VINA RESULT:      -8.1      1.306      1.620
REMARK  Name = 
REMARK  1 active torsions:
REMARK  status: ('A' for Active; 'I' for Inactive)
REMARK    1  A    between atoms: C_12  and  C_14
REMARK                            x       y       z     vdW  Elec       q    Type
REMARK                         _______ _______ _______ _____ _____    ______ ____
ROOT
ATOM      1  C   UNL     1      -3.374   3.032  24.521  0.00  0.00    +0.117 C 
ATOM      2  N   UNL     1      -3.339   2.208  24.557  0.00  0.00    -0.261 N 
ATOM      3  C   UNL     1      -3.922   1.686  24.295  0.00  0.00    +0.117 C 
ATOM      4  C   UNL     1      -3.659   0.918  24.437  0.00  0.00    +0.116 C 
ATOM      5  C   UNL     1      -4.001   0.181  24.293  0.00  0.00    +0.115 C 
ATOM      6  N   UNL     1      -3.599  -0.508  24.499  0.00  0.00    -0.276 N 
ATOM      7  C   UNL     1      -2.853  -0.462  24.850  0.00  0.00    +0.115 C 
ATOM      8  C   UNL     1      -2.510   0.274  24.994  0.00  0.00    +0.116 C 
ATOM      9  N   UNL     1      -2.913   0.965  24.788  0.00  0.00    -0.261 N 
ATOM     10  C   UNL     1      -2.716   1.762  24.862  0.00  0.00    +0.307 C 
ATOM     11  O   UNL     1      -2.017   2.061  25.184  0.00  0.00    -0.252 OA
ATOM     12  C   UNL     1      -3.941  -1.245  24.355  0.00  0.00    +0.225 C 
ATOM     13  O   UNL     1      -4.687  -1.292  24.005  0.00  0.00    -0.275 OA
ENDROOT
BRANCH  12  14
ATOM     14  C   UNL     1      -3.539  -1.935  24.562  0.00  0.00    +0.077 C 
ATOM     15  C   UNL     1      -3.362  -2.521  25.115  0.00  0.00    +0.010 C 
ATOM     16  C   UNL     1      -3.018  -2.544  24.365  0.00  0.00    +0.010 C 
ENDBRANCH  12  14
TORSDOF 1
ENDMDL
MODEL 4
REMARK VINA RESULT:      -8.0      2.509      3.502
REMARK  Name = 
REMARK  1 active torsions:
REMARK  status: ('A' for Active; 'I' for Inactive)
REMARK    1  A    between atoms: C_12  and  C_14
REMARK                            x       y       z     vdW  Elec       q    Type
REMARK                         _______ _______ _______ _____ _____    ______ ____
ROOT
ATOM      1  C   UNL     1      -0.950   4.446  25.103  0.00  0.00    +0.117 C 
ATOM      2  N   UNL     1      -1.674   4.052  25.120  0.00  0.00    -0.261 N 
ATOM      3  C   UNL     1      -2.376   4.340  25.446  0.00  0.00    +0.117 C 
ATOM      4  C   UNL     1      -2.959   3.768  25.342  0.00  0.00    +0.116 C 
ATOM      5  C   UNL     1      -3.757   3.747  25.552  0.00  0.00    +0.115 C 
ATOM      6  N   UNL     1      -4.214   3.085  25.372  0.00  0.00    -0.276 N 
ATOM      7  C   UNL     1      -3.875   2.443  24.981  0.00  0.00    +0.115 C 
ATOM      8  C   UNL     1      -3.077   2.462  24.771  0.00  0.00    +0.116 C 
ATOM      9  N   UNL     1      -2.619   3.125  24.952  0.00  0.00    -0.261 N 
ATOM     10  C   UNL     1      -1.826   3.301  24.814  0.00  0.00    +0.307 C 
ATOM     11  O   UNL     1      -1.278   2.812  24.437  0.00  0.00    -0.252 OA
ATOM     12  C   UNL     1      -5.012   3.065  25.582  0.00  0.00    +0.225 C 
ATOM     13  O   UNL     1      -5.352   3.707  25.973  0.00  0.00    -0.275 OA
ENDROOT
BRANCH  12  14
ATOM     14  C   UNL     1      -5.470   2.403  25.402  0.00  0.00    +0.077 C 
ATOM     15  C   UNL     1      -5.922   1.972  24.863  0.00  0.00    +0.010 C 
ATOM     16  C   UNL     1      -5.810   1.686  25.629  0.00  0.00    +0.010 C 
ENDBRANCH  12  14
TORSDOF 1
ENDMDL
MODEL 5
REMARK VINA RESULT:      -7.9      2.197      2.630
REMARK  Name = 
REMARK  1 active torsions:
REMARK  status: ('A' for Active; 'I' for Inactive)
REMARK    1  A    between atoms: C_12  and  C_14
REMARK                            x       y       z     vdW  Elec       q    Type
REMARK                         _______ _______ _______ _____ _____    ______ ____
ROOT
ATOM      1  C   UNL     1      -0.118   1.914  25.020  0.00  0.00    +0.117 C 
ATOM      2  N   UNL     1      -0.641   1.278  24.968  0.00  0.00    -0.261 N 
ATOM      3  C   UNL     1      -0.440   0.497  24.791  0.00  0.00    +0.117 C 
ATOM      4  C   UNL     1      -1.132   0.049  24.797  0.00  0.00    +0.116 C 
ATOM      5  C   UNL     1      -1.272  -0.753  24.661  0.00  0.00    +0.115 C 
ATOM      6  N   UNL     1      -2.039  -1.052  24.706  0.00  0.00    -0.276 N 
ATOM      7  C   UNL     1      -2.668  -0.549  24.887  0.00  0.00    +0.115 C 
ATOM      8  C   UNL     1      -2.529   0.253  25.023  0.00  0.00    +0.116 C 
ATOM      9  N   UNL     1      -1.761   0.552  24.978  0.00  0.00    -0.261 N 
ATOM     10  C   UNL     1      -1.457   1.311  25.083  0.00  0.00    +0.307 C 
ATOM     11  O   UNL     1      -1.893   1.986  25.271  0.00  0.00    -0.252 OA
ATOM     12  C   UNL     1      -2.179  -1.853  24.571  0.00  0.00    +0.225 C 
ATOM     13  O   UNL     1      -1.551  -2.356  24.390  0.00  0.00    -0.275 OA
ENDROOT
BRANCH  12  14
ATOM     14  C   UNL     1      -2.946  -2.152  24.616  0.00  0.00    +0.077 C 
ATOM     15  C   UNL     1      -3.553  -2.499  25.054  0.00  0.00    +0.010 C 
ATOM     16  C   UNL     1      -3.669  -2.323  24.256  0.00  0.00    +0.010 C 
ENDBRANCH  12  14
TORSDOF 1
ENDMDL
MODEL 6
REMARK VINA RESULT:      -7.7      0.714      3.666
REMARK  Name = 
REMARK  1 active torsions:
REMARK  status: ('A' for Active; 'I' for Inactive)
REMARK    1  A    between atoms: C_12  and  C_14
REMARK                            x       y       z     vdW  Elec       q    Type
REMARK                         _______ _______ _______ _____ _____    ______ ____
ROOT
ATOM      1  C   UNL     1      -3.190  -2.242  24.635  0.00  0.00    +0.117 C 
ATOM      2  N   UNL     1      -3.325  -1.428  24.653  0.00  0.00    -0.261 N 
ATOM      3  C   UNL     1      -4.063  -1.059  24.682  0.00  0.00    +0.117 C 
ATOM      4  C   UNL     1      -3.939  -0.244  24.693  0.00  0.00    +0.116 C 
ATOM      5  C   UNL     1      -4.462   0.394  24.720  0.00  0.00    +0.115 C 
ATOM      6  N   UNL     1      -4.172   1.165  24.725  0.00  0.00    -0.276 N 
ATOM      7  C   UNL     1      -3.358   1.300  24.702  0.00  0.00    +0.115 C 
ATOM      8  C   UNL     1      -2.835   0.664  24.675  0.00  0.00    +0.116 C 
ATOM      9  N   UNL     1      -3.125  -0.109  24.670  0.00  0.00    -0.261 N 
ATOM     10  C   UNL     1      -2.746  -0.841  24.646  0.00  0.00    +0.307 C 
ATOM     11  O   UNL     1      -1.930  -0.964  24.619  0.00  0.00    -0.252 OA
ATOM     12  C   UNL     1      -4.695   1.803  24.752  0.00  0.00    +0.225 C 
ATOM     13  O   UNL     1      -5.508   1.668  24.774  0.00  0.00    -0.275 OA
ENDROOT
BRANCH  12  14
ATOM     14  C   UNL     1      -4.405   2.575  24.756  0.00  0.00    +0.077 C 
ATOM     15  C   UNL     1      -4.129   3.237  24.349  0.00  0.00    +0.010 C 
ATOM     16  C   UNL     1      -4.178   3.251  25.173  0.00  0.00    +0.010 C 
ENDBRANCH  12  14
TORSDOF 1
ENDMDL
MODEL 7
REMARK VINA RESULT:      -7.6      1.324      3.245
REMARK  Name = 
REMARK  1 active torsions:
REMARK  status: ('A' for Active; 'I' for Inactive)
REMARK    1  A    between atoms: C_12  and  C_14
REMARK                            x       y       z     vdW  Elec       q    Type
REMARK                         _______ _______ _______ _____ _____    ______ ____
ROOT
ATOM      1  C   UNL     1      -0.559   0.652  23.858  0.00  0.00    +0.117 C 
ATOM      2  N   UNL     1      -1.334   0.845  24.063  0.00  0.00    -0.261 N 
ATOM      3  C   UNL     1      -1.709   1.566  23.916  0.00  0.00    +0.117 C 
ATOM      4  C   UNL     1      -2.477   1.518  24.213  0.00  0.00    +0.116 C 
ATOM      5  C   UNL     1      -3.099   2.061  24.226  0.00  0.00    +0.115 C 
ATOM      6  N   UNL     1      -3.820   1.854  24.568  0.00  0.00    -0.276 N 
ATOM      7  C   UNL     1      -3.920   1.104  24.897  0.00  0.00    +0.115 C 
ATOM      8  C   UNL     1      -3.299   0.561  24.885  0.00  0.00    +0.116 C 
ATOM      9  N   UNL     1      -2.577   0.769  24.542  0.00  0.00    -0.261 N 
ATOM     10  C   UNL     1      -1.871   0.353  24.450  0.00  0.00    +0.307 C 
ATOM     11  O   UNL     1      -1.727  -0.420  24.700  0.00  0.00    -0.252 OA
ATOM     12  C   UNL     1      -4.442   2.396  24.581  0.00  0.00    +0.225 C 
ATOM     13  O   UNL     1      -4.341   3.146  24.251  0.00  0.00    -0.275 OA
ENDROOT
BRANCH  12  14
ATOM     14  C   UNL     1      -5.163   2.189  24.922  0.00  0.00    +0.077 C 
ATOM     15  C   UNL     1      -5.897   1.818  24.871  0.00  0.00    +0.010 C 
ATOM     16  C   UNL     1      -5.678   2.203  25.567  0.00  0.00    +0.010 C 
ENDBRANCH  12  14
TORSDOF 1
ENDMDL
