MODEL 1
REMARK VINA RESULT:     -14.9      0.000      0.000
REMARK  Name = 
REMARK  4 active torsions:
REMARK  status: ('A' for Active; 'I' for Inactive)
REMARK    1  A    between atoms: S_2  and  C_3
REMARK    2  A    between atoms: C_6  and  C_9
REMARK    3  A    between atoms: N_17  and  C_18
REMARK    4  A    between atoms: C_18  and  C_19
REMARK                            x       y       z     vdW  Elec       q    Type
REMARK                         _______ _______ _______ _____ _____    ______ ____
ROOT
ATOM      9  C   UNL     1      -4.345   0.685  24.958  0.00  0.00    +0.056 A 
ATOM     10  C   UNL     1      -5.129   0.860  25.145  0.00  0.00    +0.006 A 
ATOM     11  C   UNL     1      -5.363   1.643  25.255  0.00  0.00    +0.013 A 
ATOM     12  C   UNL     1      -4.812   2.252  25.178  0.00  0.00    +0.041 A 
ATOM     13  C   UNL     1      -4.747   3.167  25.232  0.00  0.00    +0.054 C 
ATOM     14  C   UNL     1      -5.132   3.740  25.360  0.00  0.00    +0.011 C 
ATOM     15  C   UNL     1      -4.359   3.563  25.176  0.00  0.00    +0.039 C 
ATOM     16  C   UNL     1      -3.394   3.554  24.961  0.00  0.00    +0.074 C 
ATOM     17  N   UNL     1      -3.278   2.732  24.874  0.00  0.00    -0.268 NA
ATOM     26  C   UNL     1      -3.815   3.175  25.026  0.00  0.00    +0.078 C 
ATOM     27  C   UNL     1      -4.416   2.607  25.117  0.00  0.00    +0.110 C 
ATOM     28  N   UNL     1      -4.027   2.077  24.992  0.00  0.00    -0.299 N 
ATOM     29  C   UNL     1      -3.794   1.294  24.881  0.00  0.00    +0.261 A 
ATOM     30  O   UNL     1      -3.009   1.119  24.695  0.00  0.00    -0.267 OA
ENDROOT
BRANCH   9   6
ATOM      3  C   UNL     1      -3.647  -1.666  24.630  0.00  0.00    +0.025 A 
ATOM      4  C   UNL     1      -3.950  -1.235  23.996  0.00  0.00    +0.006 A 
ATOM      5  C   UNL     1      -4.183  -0.450  24.106  0.00  0.00    +0.001 A 
ATOM      6  C   UNL     1      -4.112  -0.099  24.848  0.00  0.00    +0.005 A 
ATOM      7  C   UNL     1      -3.809  -0.531  25.482  0.00  0.00    +0.001 A 
ATOM      8  C   UNL     1      -3.576  -1.315  25.373  0.00  0.00    +0.006 A 
BRANCH   3   2
ATOM      1  C   UNL     1      -2.615  -2.651  24.554  0.00  0.00    +0.074 C 
ATOM      2  S   UNL     1      -3.414  -2.451  24.521  0.00  0.00    -0.113 S 
ENDBRANCH   3   2
ENDBRANCH   9   6
BRANCH  17  18
ATOM     18  C   UNL     1      -2.883   2.021  24.734  0.00  0.00    +0.102 C 
BRANCH  18  19
ATOM     19  C   UNL     1      -2.059   2.006  24.702  0.00  0.00    +0.033 A 
ATOM     20  C   UNL     1      -1.674   2.005  23.973  0.00  0.00    +0.193 A 
ATOM     21  O   UNL     1      -2.112   2.019  23.275  0.00  0.00    -0.287 OA
ATOM     22  C   UNL     1      -0.849   1.991  23.942  0.00  0.00    +0.042 A 
ATOM     23  C   UNL     1      -0.411   1.977  24.640  0.00  0.00    +0.003 A 
ATOM     24  C   UNL     1      -0.795   1.978  25.369  0.00  0.00    -0.000 A 
ATOM     25  C   UNL     1      -1.620   1.993  25.401  0.00  0.00    +0.000 A 
ENDBRANCH  18  19
ENDBRANCH  17  18
TORSDOF 4
ENDMDL
MODEL 2
REMARK VINA RESULT:     -14.1      1.284      3.307
REMARK  Name = 
REMARK  4 active torsions:
REMARK  status: ('A' for Active; 'I' for Inactive)
REMARK    1  A    between atoms: S_2  and  C_3
REMARK    2  A    between atoms: C_6  and  C_9
REMARK    3  A    between atoms: N_17  and  C_18
REMARK    4  A    between atoms: C_18  and  C_19
REMARK                            x       y       z     vdW  Elec       q    Type
REMARK                         _______ _______ _______ _____ _____    ______ ____
ROOT
ATOM      9  C   UNL     1      -2.622   1.777  24.577  0.00  0.00    +0.056 A 
ATOM     10  C   UNL     1      -2.814   2.578  24.630  0.00  0.00    +0.006 A 
ATOM     11  C   UNL     1      -3.586   2.806  24.813  0.00  0.00    +0.013 A 
ATOM     12  C   UNL     1      -4.165   2.234  24.943  0.00  0.00    +0.041 A 
ATOM     13  C   UNL     1      -5.057   2.155  25.150  0.00  0.00    +0.054 C 
ATOM     14  C   UNL     1      -5.626   2.542  25.287  0.00  0.00    +0.011 C 
ATOM     15  C   UNL     1      -5.433   1.753  25.234  0.00  0.00    +0.039 C 
ATOM     16  C   UNL     1      -5.398   0.765  25.216  0.00  0.00    +0.074 C 
ATOM     17  N   UNL     1      -4.592   0.657  25.026  0.00  0.00    -0.268 NA
ATOM     26  C   UNL     1      -5.039   1.201  25.136  0.00  0.00    +0.078 C 
ATOM     27  C   UNL     1      -4.501   1.825  25.017  0.00  0.00    +0.110 C 
ATOM     28  N   UNL     1      -3.973   1.433  24.890  0.00  0.00    -0.299 N 
ATOM     29  C   UNL     1      -3.202   1.205  24.707  0.00  0.00    +0.261 A 
ATOM     30  O   UNL     1      -3.010   0.404  24.654  0.00  0.00    -0.267 OA
ENDROOT
BRANCH   9   6
ATOM      3  C   UNL     1      -0.308   1.095  24.027  0.00  0.00    +0.025 A 
ATOM      4  C   UNL     1      -0.530   1.202  24.815  0.00  0.00    +0.006 A 
ATOM      5  C   UNL     1      -1.302   1.429  24.998  0.00  0.00    +0.001 A 
ATOM      6  C   UNL     1      -1.851   1.550  24.395  0.00  0.00    +0.005 A 
ATOM      7  C   UNL     1      -1.629   1.443  23.607  0.00  0.00    +0.001 A 
ATOM      8  C   UNL     1      -0.857   1.215  23.424  0.00  0.00    +0.006 A 
BRANCH   3   2
ATOM      1  C   UNL     1       0.599   0.167  23.430  0.00  0.00    +0.074 C 
ATOM      2  S   UNL     1       0.464   0.867  23.844  0.00  0.00    -0.113 S 
ENDBRANCH   3   2
ENDBRANCH   9   6
BRANCH  17  18
ATOM     18  C   UNL     1      -3.887   0.263  24.857  0.00  0.00    +0.102 C 
BRANCH  18  19
ATOM     19  C   UNL     1      -3.895  -0.547  24.699  0.00  0.00    +0.033 A 
ATOM     20  C   UNL     1      -3.669  -1.084  25.282  0.00  0.00    +0.193 A 
ATOM     21  O   UNL     1      -3.434  -0.812  26.025  0.00  0.00    -0.287 OA
ATOM     22  C   UNL     1      -3.678  -1.894  25.123  0.00  0.00    +0.042 A 
ATOM     23  C   UNL     1      -3.913  -2.166  24.381  0.00  0.00    +0.003 A 
ATOM     24  C   UNL     1      -4.139  -1.629  23.797  0.00  0.00    -0.000 A 
ATOM     25  C   UNL     1      -4.130  -0.819  23.956  0.00  0.00    +0.000 A 
ENDBRANCH  18  19
ENDBRANCH  17  18
TORSDOF 4
ENDMDL
MODEL 3
REMARK VINA RESULT:     -13.4      1.524      3.133
REMARK  Name = 
REMARK  4 active torsions:
REMARK  status: ('A' for Active; 'I' for Inactive)
REMARK    1  A    between atoms: S_2  and  C_3
REMARK    2  A    between atoms: C_6  and  C_9
REMARK    3  A    between atoms: N_17  and  C_18
REMARK    4  A    between atoms: C_18  and  C_19
REMARK                            x       y       z     vdW  Elec       q    Type
REMARK                         _______ _______ _______ _____ _____    ______ ____
ROOT
ATOM      9  C   UNL     1      -1.004   1.894  25.116  0.00  0.00    +0.056 A 
ATOM     10  C   UNL     1      -0.293   2.284  25.270  0.00  0.00    +0.006 A 
ATOM     11  C   UNL     1      -0.274   3.108  25.310  0.00  0.00    +0.013 A 
ATOM     12  C   UNL     1      -0.966   3.542  25.196  0.00  0.00    +0.041 A 
ATOM     13  C   UNL     1      -1.270   4.409  25.176  0.00  0.00    +0.054 C 
ATOM     14  C   UNL     1      -1.049   5.071  25.248  0.00  0.00    +0.011 C 
ATOM     15  C   UNL     1      -1.749   4.683  25.096  0.00  0.00    +0.039 C 
ATOM     16  C   UNL     1      -2.677   4.403  24.905  0.00  0.00    +0.074 C 
ATOM     17  N   UNL     1      -2.572   3.574  24.889  0.00  0.00    -0.268 NA
ATOM     26  C   UNL     1      -2.172   4.154  24.991  0.00  0.00    +0.078 C 
ATOM     27  C   UNL     1      -1.441   3.774  25.115  0.00  0.00    +0.110 C 
ATOM     28  N   UNL     1      -1.677   3.152  25.042  0.00  0.00    -0.299 N 
ATOM     29  C   UNL     1      -1.696   2.328  25.002  0.00  0.00    +0.261 A 
ATOM     30  O   UNL     1      -2.406   1.938  24.849  0.00  0.00    -0.267 OA
ENDROOT
BRANCH   9   6
ATOM      3  C   UNL     1      -1.056  -0.577  24.995  0.00  0.00    +0.025 A 
ATOM      4  C   UNL     1      -1.214  -0.196  25.710  0.00  0.00    +0.006 A 
ATOM      5  C   UNL     1      -1.196   0.629  25.750  0.00  0.00    +0.001 A 
ATOM      6  C   UNL     1      -1.021   1.071  25.076  0.00  0.00    +0.005 A 
ATOM      7  C   UNL     1      -0.864   0.689  24.362  0.00  0.00    +0.001 A 
ATOM      8  C   UNL     1      -0.881  -0.134  24.321  0.00  0.00    +0.006 A 
BRANCH   3   2
ATOM      1  C   UNL     1      -1.758  -1.786  24.705  0.00  0.00    +0.074 C 
ATOM      2  S   UNL     1      -1.074  -1.401  24.955  0.00  0.00    -0.113 S 
ENDBRANCH   3   2
ENDBRANCH   9   6
BRANCH  17  18
ATOM     18  C   UNL     1      -2.766   2.775  24.817  0.00  0.00    +0.102 C 
BRANCH  18  19
ATOM     19  C   UNL     1      -3.557   2.543  24.787  0.00  0.00    +0.033 A 
ATOM     20  C   UNL     1      -3.912   2.380  24.061  0.00  0.00    +0.193 A 
ATOM     21  O   UNL     1      -3.477   2.447  23.364  0.00  0.00    -0.287 OA
ATOM     22  C   UNL     1      -4.704   2.148  24.031  0.00  0.00    +0.042 A 
ATOM     23  C   UNL     1      -5.140   2.080  24.728  0.00  0.00    +0.003 A 
ATOM     24  C   UNL     1      -4.785   2.244  25.454  0.00  0.00    -0.000 A 
ATOM     25  C   UNL     1      -3.993   2.476  25.484  0.00  0.00    +0.000 A 
ENDBRANCH  18  19
ENDBRANCH  17  18
TORSDOF 4
ENDMDL
MODEL 4
REMARK VINA RESULT:     -13.4      1.407      1.730
REMARK  Name = 
REMARK  4 active torsions:
REMARK  status: ('A' for Active; 'I' for Inactive)
REMARK    1  A    between atoms: S_2  and  C_3
REMARK    2  A    between atoms: C_6  and  C_9
REMARK    3  A    between atoms: N_17  and  C_18
REMARK    4  A    between atoms: C_18  and  C_19
REMARK                            x       y       z     vdW  Elec       q    Type
REMARK                         _______ _______ _______ _____ _____    ______ ____
ROOT
ATOM      9  C   UNL     1      -3.430   0.341  25.022  0.00  0.00    +0.056 A 
ATOM     10  C   UNL     1      -4.147  -0.068  25.046  0.00  0.00    +0.006 A 
ATOM     11  C   UNL     1      -4.859   0.348  25.040  0.00  0.00    +0.013 A 
ATOM     12  C   UNL     1      -4.855   1.172  25.010  0.00  0.00    +0.041 A 
ATOM     13  C   UNL     1      -5.431   1.888  24.991  0.00  0.00    +0.054 C 
ATOM     14  C   UNL     1      -6.115   2.045  24.994  0.00  0.00    +0.011 C 
ATOM     15  C   UNL     1      -5.406   2.445  24.970  0.00  0.00    +0.039 C 
ATOM     16  C   UNL     1      -4.665   3.098  24.937  0.00  0.00    +0.074 C 
ATOM     17  N   UNL     1      -4.015   2.573  24.948  0.00  0.00    -0.268 NA
ATOM     26  C   UNL     1      -4.726   2.532  24.958  0.00  0.00    +0.078 C 
ATOM     27  C   UNL     1      -4.797   1.703  24.990  0.00  0.00    +0.110 C 
ATOM     28  N   UNL     1      -4.139   1.581  24.986  0.00  0.00    -0.299 N 
ATOM     29  C   UNL     1      -3.426   1.165  24.992  0.00  0.00    +0.261 A 
ATOM     30  O   UNL     1      -2.710   1.573  24.967  0.00  0.00    -0.267 OA
ENDROOT
BRANCH   9   6
ATOM      3  C   UNL     1      -1.294  -0.909  25.038  0.00  0.00    +0.025 A 
ATOM      4  C   UNL     1      -1.641  -0.676  25.750  0.00  0.00    +0.006 A 
ATOM      5  C   UNL     1      -2.353  -0.259  25.745  0.00  0.00    +0.001 A 
ATOM      6  C   UNL     1      -2.719  -0.076  25.028  0.00  0.00    +0.005 A 
ATOM      7  C   UNL     1      -2.371  -0.309  24.317  0.00  0.00    +0.001 A 
ATOM      8  C   UNL     1      -1.659  -0.725  24.322  0.00  0.00    +0.006 A 
BRANCH   3   2
ATOM      1  C   UNL     1      -0.016  -1.180  24.463  0.00  0.00    +0.074 C 
ATOM      2  S   UNL     1      -0.582  -1.326  25.044  0.00  0.00    -0.113 S 
ENDBRANCH   3   2
ENDBRANCH   9   6
BRANCH  17  18
ATOM     18  C   UNL     1      -3.229   2.322  24.947  0.00  0.00    +0.102 C 
BRANCH  18  19
ATOM     19  C   UNL     1      -2.622   2.866  25.066  0.00  0.00    +0.033 A 
ATOM     20  C   UNL     1      -2.179   3.139  24.426  0.00  0.00    +0.193 A 
ATOM     21  O   UNL     1      -2.344   2.867  23.665  0.00  0.00    -0.287 OA
ATOM     22  C   UNL     1      -1.571   3.684  24.546  0.00  0.00    +0.042 A 
ATOM     23  C   UNL     1      -1.406   3.956  25.307  0.00  0.00    +0.003 A 
ATOM     24  C   UNL     1      -1.848   3.684  25.947  0.00  0.00    -0.000 A 
ATOM     25  C   UNL     1      -2.456   3.139  25.827  0.00  0.00    +0.000 A 
ENDBRANCH  18  19
ENDBRANCH  17  18
TORSDOF 4
ENDMDL
MODEL 5
REMARK VINA RESULT:     -13.4      1.789      4.205
REMARK  Name = 
REMARK  4 active torsions:
REMARK  status: ('A' for Active; 'I' for Inactive)
REMARK    1  A    between atoms: S_2  and  C_3
REMARK    2  A    between atoms: C_6  and  C_9
REMARK    3  A    between atoms: N_17  and  C_18
REMARK    4  A    between atoms: C_18  and  C_19
REMARK                            x       y       z     vdW  Elec       q    Type
REMARK                         _______ _______ _______ _____ _____    ______ ____
ROOT
ATOM      9  C   UNL     1      -1.682  -0.335  24.851  0.00  0.00    +0.056 A 
ATOM     10  C   UNL     1      -1.348  -1.090  24.866  0.00  0.00    +0.006 A 
ATOM     11  C   UNL     1      -1.816  -1.751  24.712  0.00  0.00    +0.013 A 
ATOM     12  C   UNL     1      -2.618  -1.658  24.543  0.00  0.00    +0.041 A 
ATOM     13  C   UNL     1      -3.366  -2.152  24.340  0.00  0.00    +0.054 C 
ATOM     14  C   UNL     1      -3.580  -2.813  24.242  0.00  0.00    +0.011 C 
ATOM     15  C   UNL     1      -3.906  -2.067  24.228  0.00  0.00    +0.039 C 
ATOM     16  C   UNL     1      -4.476  -1.262  24.165  0.00  0.00    +0.074 C 
ATOM     17  N   UNL     1      -3.907  -0.674  24.336  0.00  0.00    -0.268 NA
ATOM     26  C   UNL     1      -3.930  -1.383  24.276  0.00  0.00    +0.078 C 
ATOM     27  C   UNL     1      -3.130  -1.543  24.439  0.00  0.00    +0.110 C 
ATOM     28  N   UNL     1      -2.952  -0.904  24.528  0.00  0.00    -0.299 N 
ATOM     29  C   UNL     1      -2.483  -0.242  24.682  0.00  0.00    +0.261 A 
ATOM     30  O   UNL     1      -2.817   0.512  24.667  0.00  0.00    -0.267 OA
ENDROOT
BRANCH   9   6
ATOM      3  C   UNL     1      -0.275   1.647  25.313  0.00  0.00    +0.025 A 
ATOM      4  C   UNL     1      -0.692   1.287  25.926  0.00  0.00    +0.006 A 
ATOM      5  C   UNL     1      -1.162   0.625  25.772  0.00  0.00    +0.001 A 
ATOM      6  C   UNL     1      -1.213   0.325  25.006  0.00  0.00    +0.005 A 
ATOM      7  C   UNL     1      -0.795   0.686  24.393  0.00  0.00    +0.001 A 
ATOM      8  C   UNL     1      -0.326   1.347  24.546  0.00  0.00    +0.006 A 
BRANCH   3   2
ATOM      1  C   UNL     1      -0.158   3.036  25.626  0.00  0.00    +0.074 C 
ATOM      2  S   UNL     1       0.195   2.309  25.467  0.00  0.00    -0.113 S 
ENDBRANCH   3   2
ENDBRANCH   9   6
BRANCH  17  18
ATOM     18  C   UNL     1      -3.592   0.078  24.463  0.00  0.00    +0.102 C 
BRANCH  18  19
ATOM     19  C   UNL     1      -4.094   0.724  24.564  0.00  0.00    +0.033 A 
ATOM     20  C   UNL     1      -4.142   1.305  23.981  0.00  0.00    +0.193 A 
ATOM     21  O   UNL     1      -3.686   1.241  23.296  0.00  0.00    -0.287 OA
ATOM     22  C   UNL     1      -4.645   1.952  24.081  0.00  0.00    +0.042 A 
ATOM     23  C   UNL     1      -5.101   2.016  24.766  0.00  0.00    +0.003 A 
ATOM     24  C   UNL     1      -5.054   1.436  25.349  0.00  0.00    -0.000 A 
ATOM     25  C   UNL     1      -4.551   0.789  25.249  0.00  0.00    +0.000 A 
ENDBRANCH  18  19
ENDBRANCH  17  18
TORSDOF 4
ENDMDL
MODEL 6
REMARK VINA RESULT:     -13.2      1.717      3.769
REMARK  Name = 
REMARK  4 active torsions:
REMARK  status: ('A' for Active; 'I' for Inactive)
REMARK    1  A    between atoms: S_2  and  C_3
REMARK    2  A    between atoms: C_6  and  C_9
REMARK    3  A    between atoms: N_17  and  C_18
REMARK    4  A    between atoms: C_18  and  C_19
REMARK                            x       y       z     vdW  Elec       q    Type
REMARK                         _______ _______ _______ _____ _____    ______ ____
ROOT
ATOM      9  C   UNL     1      -3.786  -0.211  24.654  0.00  0.00    +0.056 A 
ATOM     10  C   UNL     1      -4.222  -0.901  24.533  0.00  0.00    +0.006 A 
ATOM     11  C   UNL     1      -3.835  -1.626  24.459  0.00  0.00    +0.013 A 
ATOM     12  C   UNL     1      -3.013  -1.661  24.507  0.00  0.00    +0.041 A 
ATOM     13  C   UNL     1      -2.321  -2.265  24.469  0.00  0.00    +0.054 C 
ATOM     14  C   UNL     1      -2.192  -2.950  24.384  0.00  0.00    +0.011 C 
ATOM     15  C   UNL     1      -1.765  -2.267  24.504  0.00  0.00    +0.039 C 
ATOM     16  C   UNL     1      -1.083  -1.565  24.643  0.00  0.00    +0.074 C 
ATOM     17  N   UNL     1      -1.581  -0.896  24.702  0.00  0.00    -0.268 NA
ATOM     26  C   UNL     1      -1.651  -1.598  24.603  0.00  0.00    +0.078 C 
ATOM     27  C   UNL     1      -2.481  -1.629  24.545  0.00  0.00    +0.110 C 
ATOM     28  N   UNL     1      -2.577  -0.971  24.628  0.00  0.00    -0.299 N 
ATOM     29  C   UNL     1      -2.963  -0.246  24.702  0.00  0.00    +0.261 A 
ATOM     30  O   UNL     1      -2.527   0.444  24.824  0.00  0.00    -0.267 OA
ENDROOT
BRANCH   9   6
ATOM      3  C   UNL     1      -4.948   1.962  24.877  0.00  0.00    +0.025 A 
ATOM      4  C   UNL     1      -4.569   1.769  24.170  0.00  0.00    +0.006 A 
ATOM      5  C   UNL     1      -4.181   1.043  24.096  0.00  0.00    +0.001 A 
ATOM      6  C   UNL     1      -4.173   0.513  24.728  0.00  0.00    +0.005 A 
ATOM      7  C   UNL     1      -4.552   0.708  25.434  0.00  0.00    +0.001 A 
ATOM      8  C   UNL     1      -4.939   1.433  25.509  0.00  0.00    +0.006 A 
BRANCH   3   2
ATOM      1  C   UNL     1      -5.139   3.198  25.568  0.00  0.00    +0.074 C 
ATOM      2  S   UNL     1      -5.335   2.688  24.951  0.00  0.00    -0.113 S 
ENDBRANCH   3   2
ENDBRANCH   9   6
BRANCH  17  18
ATOM     18  C   UNL     1      -1.801  -0.106  24.796  0.00  0.00    +0.102 C 
BRANCH  18  19
ATOM     19  C   UNL     1      -1.230   0.488  24.757  0.00  0.00    +0.033 A 
ATOM     20  C   UNL     1      -0.937   0.824  25.451  0.00  0.00    +0.193 A 
ATOM     21  O   UNL     1      -1.214   0.566  26.184  0.00  0.00    -0.287 OA
ATOM     22  C   UNL     1      -0.365   1.418  25.413  0.00  0.00    +0.042 A 
ATOM     23  C   UNL     1      -0.088   1.676  24.680  0.00  0.00    +0.003 A 
ATOM     24  C   UNL     1      -0.380   1.341  23.986  0.00  0.00    -0.000 A 
ATOM     25  C   UNL     1      -0.952   0.746  24.025  0.00  0.00    +0.000 A 
ENDBRANCH  18  19
ENDBRANCH  17  18
TORSDOF 4
ENDMDL
MODEL 7
REMARK VINA RESULT:     -12.6      1.843      4.279
REMARK  Name = 
REMARK  4 active torsions:
REMARK  status: ('A' for Active; 'I' for Inactive)
REMARK    1  A    between atoms: S_2  and  C_3
REMARK    2  A    between atoms: C_6  and  C_9
REMARK    3  A    between atoms: N_17  and  C_18
REMARK    4  A    between atoms: C_18  and  C_19
REMARK                            x       y       z     vdW  Elec       q    Type
REMARK                         _______ _______ _______ _____ _____    ______ ____
ROOT
ATOM      9  C   UNL     1      -2.173   1.956  24.355  0.00  0.00    +0.056 A 
ATOM     10  C   UNL     1      -1.546   2.403  24.059  0.00  0.00    +0.006 A 
ATOM     11  C   UNL     1      -0.836   2.034  23.856  0.00  0.00    +0.013 A 
ATOM     12  C   UNL     1      -0.754   1.219  23.950  0.00  0.00    +0.041 A 
ATOM     13  C   UNL     1      -0.141   0.545  23.830  0.00  0.00    +0.054 C 
ATOM     14  C   UNL     1       0.515   0.431  23.608  0.00  0.00    +0.011 C 
ATOM     15  C   UNL     1      -0.106  -0.007  23.901  0.00  0.00    +0.039 C 
ATOM     16  C   UNL     1      -0.730  -0.697  24.234  0.00  0.00    +0.074 C 
ATOM     17  N   UNL     1      -1.393  -0.217  24.402  0.00  0.00    -0.268 NA
ATOM     26  C   UNL     1      -0.732  -0.134  24.149  0.00  0.00    +0.078 C 
ATOM     27  C   UNL     1      -0.753   0.690  24.031  0.00  0.00    +0.110 C 
ATOM     28  N   UNL     1      -1.381   0.772  24.247  0.00  0.00    -0.299 N 
ATOM     29  C   UNL     1      -2.091   1.141  24.449  0.00  0.00    +0.261 A 
ATOM     30  O   UNL     1      -2.718   0.694  24.746  0.00  0.00    -0.267 OA
ENDROOT
BRANCH   9   6
ATOM      3  C   UNL     1      -4.300   3.064  24.963  0.00  0.00    +0.025 A 
ATOM      4  C   UNL     1      -4.202   2.748  24.208  0.00  0.00    +0.006 A 
ATOM      5  C   UNL     1      -3.492   2.378  24.005  0.00  0.00    +0.001 A 
ATOM      6  C   UNL     1      -2.882   2.325  24.557  0.00  0.00    +0.005 A 
ATOM      7  C   UNL     1      -2.981   2.642  25.313  0.00  0.00    +0.001 A 
ATOM      8  C   UNL     1      -3.690   3.012  25.516  0.00  0.00    +0.006 A 
BRANCH   3   2
ATOM      1  C   UNL     1      -5.526   3.071  25.696  0.00  0.00    +0.074 C 
ATOM      2  S   UNL     1      -5.010   3.434  25.166  0.00  0.00    -0.113 S 
ENDBRANCH   3   2
ENDBRANCH   9   6
BRANCH  17  18
ATOM     18  C   UNL     1      -2.154  -0.015  24.649  0.00  0.00    +0.102 C 
BRANCH  18  19
ATOM     19  C   UNL     1      -2.716  -0.605  24.776  0.00  0.00    +0.033 A 
ATOM     20  C   UNL     1      -2.839  -0.901  25.536  0.00  0.00    +0.193 A 
ATOM     21  O   UNL     1      -2.400  -0.607  26.169  0.00  0.00    -0.287 OA
ATOM     22  C   UNL     1      -3.402  -1.491  25.663  0.00  0.00    +0.042 A 
ATOM     23  C   UNL     1      -3.841  -1.785  25.030  0.00  0.00    +0.003 A 
ATOM     24  C   UNL     1      -3.719  -1.489  24.270  0.00  0.00    -0.000 A 
ATOM     25  C   UNL     1      -3.156  -0.899  24.143  0.00  0.00    +0.000 A 
ENDBRANCH  18  19
ENDBRANCH  17  18
TORSDOF 4
ENDMDL
