MODEL 1
REMARK VINA RESULT:     -11.4      0.000      0.000
REMARK  Name = 
REMARK  9 active torsions:
REMARK  status: ('A' for Active; 'I' for Inactive)
REMARK    1  A    between atoms: C_2  and  C_3
REMARK    2  A    between atoms: C_3  and  C_4
REMARK    3  A    between atoms: C_7  and  C_8
REMARK    4  A    between atoms: C_8  and  C_9
REMARK    5  A    between atoms: C_11  and  C_12
REMARK    6  A    between atoms: C_15  and  C_16
REMARK    7  A    between atoms: C_16  and  N_17
REMARK    8  A    between atoms: N_17  and  C_18
REMARK    9  A    between atoms: C_18  and  C_19
REMARK                            x       y       z     vdW  Elec       q    Type
REMARK                         _______ _______ _______ _____ _____    ______ ____
ROOT
ATOM      9  C   UNL     1      -4.092   2.667  24.724  0.00  0.00    +0.027 C 
ATOM     10  C   UNL     1      -3.473   2.502  24.204  0.00  0.00    +0.005 C 
ATOM     11  C   UNL     1      -3.372   1.737  23.911  0.00  0.00    +0.006 C 
ATOM     15  C   UNL     1      -3.890   1.137  24.139  0.00  0.00    +0.039 C 
ATOM     25  C   UNL     1      -4.509   1.301  24.659  0.00  0.00    -0.033 C 
ATOM     26  C   UNL     1      -4.610   2.066  24.951  0.00  0.00    -0.048 C 
ATOM     27  C   UNL     1      -5.229   2.230  25.471  0.00  0.00    +0.026 C 
ENDROOT
BRANCH  11  12
ATOM     12  C   UNL     1      -2.752   1.573  23.391  0.00  0.00    +0.000 C 
ATOM     13  C   UNL     1      -2.861   1.665  22.579  0.00  0.00    +0.000 C 
ATOM     14  C   UNL     1      -2.024   1.317  23.684  0.00  0.00    +0.000 C 
ENDBRANCH  11  12
BRANCH   9   8
ATOM      8  C   UNL     1      -4.193   3.431  25.016  0.00  0.00    +0.091 C 
BRANCH   8   7
ATOM      4  C   UNL     1      -2.464   4.591  25.486  0.00  0.00    +0.226 A 
ATOM      5  N   UNL     1      -2.679   4.317  26.233  0.00  0.00    -0.112 NA
ATOM      6  N   UNL     1      -3.353   3.848  26.148  0.00  0.00    -0.112 NA
ATOM      7  C   UNL     1      -3.555   3.833  25.349  0.00  0.00    +0.226 A 
ATOM     28  O   UNL     1      -3.005   4.293  24.939  0.00  0.00    -0.423 OA
BRANCH   4   3
ATOM      3  C   UNL     1      -1.821   5.078  25.315  0.00  0.00    +0.087 C 
BRANCH   3   2
ATOM      1  C   UNL     1      -0.541   5.222  24.696  0.00  0.00    +0.001 C 
ATOM      2  C   UNL     1      -1.109   4.748  25.064  0.00  0.00    +0.010 C 
ENDBRANCH   3   2
ENDBRANCH   4   3
ENDBRANCH   8   7
ENDBRANCH   9   8
BRANCH  15  16
ATOM     16  C   UNL     1      -3.789   0.372  23.846  0.00  0.00    +0.093 C 
BRANCH  16  17
ATOM     17  N   UNL     1      -3.955  -0.278  24.325  0.00  0.00    -0.213 NA
BRANCH  17  18
ATOM     18  C   UNL     1      -4.192  -0.992  23.984  0.00  0.00    +0.117 C 
BRANCH  18  19
ATOM     19  C   UNL     1      -3.927  -1.707  24.298  0.00  0.00    +0.014 A 
ATOM     20  C   UNL     1      -3.621  -1.733  25.065  0.00  0.00    +0.000 A 
ATOM     21  C   UNL     1      -3.357  -2.448  25.378  0.00  0.00    +0.020 A 
ATOM     22  C   UNL     1      -3.398  -3.138  24.927  0.00  0.00    +0.099 A 
ATOM     23  N   UNL     1      -3.704  -3.111  24.161  0.00  0.00    -0.243 NA
ATOM     24  C   UNL     1      -3.968  -2.396  23.847  0.00  0.00    +0.096 A 
ENDBRANCH  18  19
ENDBRANCH  17  18
ENDBRANCH  16  17
ENDBRANCH  15  16
TORSDOF 9
ENDMDL
MODEL 2
REMARK VINA RESULT:     -10.4      0.996      1.826
REMARK  Name = 
REMARK  9 active torsions:
REMARK  status: ('A' for Active; 'I' for Inactive)
REMARK    1  A    between atoms: C_2  and  C_3
REMARK    2  A    between atoms: C_3  and  C_4
REMARK    3  A    between atoms: C_7  and  C_8
REMARK    4  A    between atoms: C_8  and  C_9
REMARK    5  A    between atoms: C_11  and  C_12
REMARK    6  A    between atoms: C_15  and  C_16
REMARK    7  A    between atoms: C_16  and  N_17
REMARK    8  A    between atoms: N_17  and  C_18
REMARK    9  A    between atoms: C_18  and  C_19
REMARK                            x       y       z     vdW  Elec       q    Type
REMARK                         _______ _______ _______ _____ _____    ______ ____
ROOT
ATOM      9  C   UNL     1      -3.387   2.558  23.926  0.00  0.00    +0.027 C 
ATOM     10  C   UNL     1      -4.014   2.519  24.462  0.00  0.00    +0.005 C 
ATOM     11  C   UNL     1      -4.404   1.802  24.587  0.00  0.00    +0.006 C 
ATOM     15  C   UNL     1      -4.169   1.127  24.177  0.00  0.00    +0.039 C 
ATOM     25  C   UNL     1      -3.543   1.167  23.641  0.00  0.00    -0.033 C 
ATOM     26  C   UNL     1      -3.153   1.882  23.516  0.00  0.00    -0.048 C 
ATOM     27  C   UNL     1      -2.526   1.922  22.980  0.00  0.00    +0.026 C 
ENDROOT
BRANCH  11  12
ATOM     12  C   UNL     1      -5.031   1.763  25.124  0.00  0.00    +0.000 C 
ATOM     13  C   UNL     1      -4.884   1.597  25.918  0.00  0.00    +0.000 C 
ATOM     14  C   UNL     1      -5.804   1.890  24.865  0.00  0.00    +0.000 C 
ENDBRANCH  11  12
BRANCH   9   8
ATOM      8  C   UNL     1      -2.997   3.274  23.800  0.00  0.00    +0.091 C 
BRANCH   8   7
ATOM      4  C   UNL     1      -1.504   3.768  25.244  0.00  0.00    +0.226 A 
ATOM      5  N   UNL     1      -2.041   4.385  25.352  0.00  0.00    -0.112 NA
ATOM      6  N   UNL     1      -2.666   4.274  24.825  0.00  0.00    -0.112 NA
ATOM      7  C   UNL     1      -2.515   3.590  24.390  0.00  0.00    +0.226 A 
ATOM     28  O   UNL     1      -1.796   3.277  24.649  0.00  0.00    -0.423 OA
BRANCH   4   3
ATOM      3  C   UNL     1      -0.798   3.662  25.657  0.00  0.00    +0.087 C 
BRANCH   3   2
ATOM      1  C   UNL     1       0.104   2.732  26.260  0.00  0.00    +0.001 C 
ATOM      2  C   UNL     1      -0.666   2.963  26.075  0.00  0.00    +0.010 C 
ENDBRANCH   3   2
ENDBRANCH   4   3
ENDBRANCH   8   7
ENDBRANCH   9   8
BRANCH  15  16
ATOM     16  C   UNL     1      -4.560   0.411  24.303  0.00  0.00    +0.093 C 
BRANCH  16  17
ATOM     17  N   UNL     1      -4.161  -0.302  24.190  0.00  0.00    -0.213 NA
BRANCH  17  18
ATOM     18  C   UNL     1      -4.559  -1.018  24.290  0.00  0.00    +0.117 C 
BRANCH  18  19
ATOM     19  C   UNL     1      -4.133  -1.718  24.378  0.00  0.00    +0.014 A 
ATOM     20  C   UNL     1      -3.670  -1.838  25.051  0.00  0.00    +0.000 A 
ATOM     21  C   UNL     1      -3.245  -2.539  25.138  0.00  0.00    +0.020 A 
ATOM     22  C   UNL     1      -3.281  -3.121  24.553  0.00  0.00    +0.099 A 
ATOM     23  N   UNL     1      -3.744  -3.000  23.881  0.00  0.00    -0.243 NA
ATOM     24  C   UNL     1      -4.170  -2.299  23.794  0.00  0.00    +0.096 A 
ENDBRANCH  18  19
ENDBRANCH  17  18
ENDBRANCH  16  17
ENDBRANCH  15  16
TORSDOF 9
ENDMDL
MODEL 3
REMARK VINA RESULT:      -9.7      1.207      2.159
REMARK  Name = 
REMARK  9 active torsions:
REMARK  status: ('A' for Active; 'I' for Inactive)
REMARK    1  A    between atoms: C_2  and  C_3
REMARK    2  A    between atoms: C_3  and  C_4
REMARK    3  A    between atoms: C_7  and  C_8
REMARK    4  A    between atoms: C_8  and  C_9
REMARK    5  A    between atoms: C_11  and  C_12
REMARK    6  A    between atoms: C_15  and  C_16
REMARK    7  A    between atoms: C_16  and  N_17
REMARK    8  A    between atoms: N_17  and  C_18
REMARK    9  A    between atoms: C_18  and  C_19
REMARK                            x       y       z     vdW  Elec       q    Type
REMARK                         _______ _______ _______ _____ _____    ______ ____
ROOT
ATOM      9  C   UNL     1      -1.311   1.831  24.108  0.00  0.00    +0.027 C 
ATOM     10  C   UNL     1      -2.055   2.187  24.091  0.00  0.00    +0.005 C 
ATOM     11  C   UNL     1      -2.736   1.722  24.130  0.00  0.00    +0.006 C 
ATOM     15  C   UNL     1      -2.672   0.902  24.185  0.00  0.00    +0.039 C 
ATOM     25  C   UNL     1      -1.928   0.546  24.202  0.00  0.00    -0.033 C 
ATOM     26  C   UNL     1      -1.248   1.011  24.164  0.00  0.00    -0.048 C 
ATOM     27  C   UNL     1      -0.504   0.654  24.181  0.00  0.00    +0.026 C 
ENDROOT
BRANCH  11  12
ATOM     12  C   UNL     1      -3.480   2.078  24.113  0.00  0.00    +0.000 C 
ATOM     13  C   UNL     1      -3.882   2.228  24.817  0.00  0.00    +0.000 C 
ATOM     14  C   UNL     1      -3.822   2.285  23.390  0.00  0.00    +0.000 C 
ENDBRANCH  11  12
BRANCH   9   8
ATOM      8  C   UNL     1      -0.630   2.295  24.070  0.00  0.00    +0.091 C 
BRANCH   8   7
ATOM      4  C   UNL     1      -0.632   4.242  24.946  0.00  0.00    +0.226 A 
ATOM      5  N   UNL     1      -0.305   3.793  25.556  0.00  0.00    -0.112 NA
ATOM      6  N   UNL     1      -0.265   3.009  25.302  0.00  0.00    -0.112 NA
ATOM      7  C   UNL     1      -0.567   2.973  24.535  0.00  0.00    +0.226 A 
ATOM     28  O   UNL     1      -0.794   3.736  24.315  0.00  0.00    -0.423 OA
BRANCH   4   3
ATOM      3  C   UNL     1      -0.773   5.054  24.964  0.00  0.00    +0.087 C 
BRANCH   3   2
ATOM      1  C   UNL     1      -1.693   6.146  25.009  0.00  0.00    +0.001 C 
ATOM      2  C   UNL     1      -1.540   5.338  25.071  0.00  0.00    +0.010 C 
ENDBRANCH   3   2
ENDBRANCH   4   3
ENDBRANCH   8   7
ENDBRANCH   9   8
BRANCH  15  16
ATOM     16  C   UNL     1      -3.353   0.436  24.223  0.00  0.00    +0.093 C 
BRANCH  16  17
ATOM     17  N   UNL     1      -3.291  -0.385  24.234  0.00  0.00    -0.213 NA
BRANCH  17  18
ATOM     18  C   UNL     1      -3.949  -0.846  24.422  0.00  0.00    +0.117 C 
BRANCH  18  19
ATOM     19  C   UNL     1      -3.898  -1.669  24.397  0.00  0.00    +0.014 A 
ATOM     20  C   UNL     1      -3.503  -2.075  24.998  0.00  0.00    +0.000 A 
ATOM     21  C   UNL     1      -3.452  -2.898  24.974  0.00  0.00    +0.020 A 
ATOM     22  C   UNL     1      -3.795  -3.315  24.350  0.00  0.00    +0.099 A 
ATOM     23  N   UNL     1      -4.189  -2.909  23.750  0.00  0.00    -0.243 NA
ATOM     24  C   UNL     1      -4.240  -2.086  23.774  0.00  0.00    +0.096 A 
ENDBRANCH  18  19
ENDBRANCH  17  18
ENDBRANCH  16  17
ENDBRANCH  15  16
TORSDOF 9
ENDMDL
MODEL 4
REMARK VINA RESULT:      -9.5      2.248      4.658
REMARK  Name = 
REMARK  9 active torsions:
REMARK  status: ('A' for Active; 'I' for Inactive)
REMARK    1  A    between atoms: C_2  and  C_3
REMARK    2  A    between atoms: C_3  and  C_4
REMARK    3  A    between atoms: C_7  and  C_8
REMARK    4  A    between atoms: C_8  and  C_9
REMARK    5  A    between atoms: C_11  and  C_12
REMARK    6  A    between atoms: C_15  and  C_16
REMARK    7  A    between atoms: C_16  and  N_17
REMARK    8  A    between atoms: N_17  and  C_18
REMARK    9  A    between atoms: C_18  and  C_19
REMARK                            x       y       z     vdW  Elec       q    Type
REMARK                         _______ _______ _______ _____ _____    ______ ____
ROOT
ATOM      9  C   UNL     1      -1.011   1.740  24.309  0.00  0.00    +0.027 C 
ATOM     10  C   UNL     1      -1.440   1.633  23.612  0.00  0.00    +0.005 C 
ATOM     11  C   UNL     1      -2.187   1.975  23.531  0.00  0.00    +0.006 C 
ATOM     15  C   UNL     1      -2.504   2.423  24.146  0.00  0.00    +0.039 C 
ATOM     25  C   UNL     1      -2.075   2.531  24.843  0.00  0.00    -0.033 C 
ATOM     26  C   UNL     1      -1.329   2.189  24.923  0.00  0.00    -0.048 C 
ATOM     27  C   UNL     1      -0.899   2.296  25.620  0.00  0.00    +0.026 C 
ENDROOT
BRANCH  11  12
ATOM     12  C   UNL     1      -2.616   1.867  22.834  0.00  0.00    +0.000 C 
ATOM     13  C   UNL     1      -2.592   2.441  22.243  0.00  0.00    +0.000 C 
ATOM     14  C   UNL     1      -3.069   1.185  22.729  0.00  0.00    +0.000 C 
ENDBRANCH  11  12
BRANCH   9   8
ATOM      8  C   UNL     1      -0.265   1.399  24.390  0.00  0.00    +0.091 C 
BRANCH   8   7
ATOM      4  C   UNL     1      -0.259  -0.736  24.405  0.00  0.00    +0.226 A 
ATOM      5  N   UNL     1       0.232  -0.580  23.761  0.00  0.00    -0.112 NA
ATOM      6  N   UNL     1       0.291   0.239  23.678  0.00  0.00    -0.112 NA
ATOM      7  C   UNL     1      -0.166   0.589  24.269  0.00  0.00    +0.226 A 
ATOM     28  O   UNL     1      -0.506  -0.014  24.719  0.00  0.00    -0.423 OA
BRANCH   4   3
ATOM      3  C   UNL     1      -0.469  -1.482  24.685  0.00  0.00    +0.087 C 
BRANCH   3   2
ATOM      1  C   UNL     1      -1.456  -2.500  24.863  0.00  0.00    +0.001 C 
ATOM      2  C   UNL     1      -1.210  -1.797  24.508  0.00  0.00    +0.010 C 
ENDBRANCH   3   2
ENDBRANCH   4   3
ENDBRANCH   8   7
ENDBRANCH   9   8
BRANCH  15  16
ATOM     16  C   UNL     1      -3.251   2.765  24.065  0.00  0.00    +0.093 C 
BRANCH  16  17
ATOM     17  N   UNL     1      -3.744   2.839  24.721  0.00  0.00    -0.213 NA
BRANCH  17  18
ATOM     18  C   UNL     1      -4.522   3.097  24.625  0.00  0.00    +0.117 C 
BRANCH  18  19
ATOM     19  C   UNL     1      -5.112   2.826  25.133  0.00  0.00    +0.014 A 
ATOM     20  C   UNL     1      -5.598   2.199  24.904  0.00  0.00    +0.000 A 
ATOM     21  C   UNL     1      -6.188   1.928  25.412  0.00  0.00    +0.020 A 
ATOM     22  C   UNL     1      -6.294   2.283  26.150  0.00  0.00    +0.099 A 
ATOM     23  N   UNL     1      -5.808   2.910  26.378  0.00  0.00    -0.243 NA
ATOM     24  C   UNL     1      -5.218   3.181  25.870  0.00  0.00    +0.096 A 
ENDBRANCH  18  19
ENDBRANCH  17  18
ENDBRANCH  16  17
ENDBRANCH  15  16
TORSDOF 9
ENDMDL
MODEL 5
REMARK VINA RESULT:      -9.4      2.351      5.897
REMARK  Name = 
REMARK  9 active torsions:
REMARK  status: ('A' for Active; 'I' for Inactive)
REMARK    1  A    between atoms: C_2  and  C_3
REMARK    2  A    between atoms: C_3  and  C_4
REMARK    3  A    between atoms: C_7  and  C_8
REMARK    4  A    between atoms: C_8  and  C_9
REMARK    5  A    between atoms: C_11  and  C_12
REMARK    6  A    between atoms: C_15  and  C_16
REMARK    7  A    between atoms: C_16  and  N_17
REMARK    8  A    between atoms: N_17  and  C_18
REMARK    9  A    between atoms: C_18  and  C_19
REMARK                            x       y       z     vdW  Elec       q    Type
REMARK                         _______ _______ _______ _____ _____    ______ ____
ROOT
ATOM      9  C   UNL     1      -0.847  -0.746  25.252  0.00  0.00    +0.027 C 
ATOM     10  C   UNL     1      -0.589  -0.484  24.513  0.00  0.00    +0.005 C 
ATOM     11  C   UNL     1      -0.474   0.323  24.378  0.00  0.00    +0.006 C 
ATOM     15  C   UNL     1      -0.617   0.866  24.982  0.00  0.00    +0.039 C 
ATOM     25  C   UNL     1      -0.875   0.604  25.721  0.00  0.00    -0.033 C 
ATOM     26  C   UNL     1      -0.990  -0.202  25.855  0.00  0.00    -0.048 C 
ATOM     27  C   UNL     1      -1.248  -0.463  26.594  0.00  0.00    +0.026 C 
ENDROOT
BRANCH  11  12
ATOM     12  C   UNL     1      -0.216   0.584  23.639  0.00  0.00    +0.000 C 
ATOM     13  C   UNL     1       0.589   0.593  23.463  0.00  0.00    +0.000 C 
ATOM     14  C   UNL     1      -0.765   0.838  23.077  0.00  0.00    +0.000 C 
ENDBRANCH  11  12
BRANCH   9   8
ATOM      8  C   UNL     1      -0.963  -1.551  25.387  0.00  0.00    +0.091 C 
BRANCH   8   7
ATOM      4  C   UNL     1      -2.668  -2.439  24.458  0.00  0.00    +0.226 A 
ATOM      5  N   UNL     1      -2.054  -2.792  24.036  0.00  0.00    -0.112 NA
ATOM      6  N   UNL     1      -1.340  -2.503  24.333  0.00  0.00    -0.112 NA
ATOM      7  C   UNL     1      -1.513  -1.970  24.938  0.00  0.00    +0.226 A 
ATOM     28  O   UNL     1      -2.334  -1.930  25.016  0.00  0.00    -0.423 OA
BRANCH   4   3
ATOM      3  C   UNL     1      -3.473  -2.569  24.343  0.00  0.00    +0.087 C 
BRANCH   3   2
ATOM      1  C   UNL     1      -4.701  -2.163  23.735  0.00  0.00    +0.001 C 
ATOM      2  C   UNL     1      -3.943  -1.981  24.006  0.00  0.00    +0.010 C 
ENDBRANCH   3   2
ENDBRANCH   4   3
ENDBRANCH   8   7
ENDBRANCH   9   8
BRANCH  15  16
ATOM     16  C   UNL     1      -0.502   1.672  24.847  0.00  0.00    +0.093 C 
BRANCH  16  17
ATOM     17  N   UNL     1      -0.934   2.228  25.276  0.00  0.00    -0.213 NA
BRANCH  17  18
ATOM     18  C   UNL     1      -0.613   2.973  25.426  0.00  0.00    +0.117 C 
BRANCH  18  19
ATOM     19  C   UNL     1      -1.098   3.641  25.417  0.00  0.00    +0.014 A 
ATOM     20  C   UNL     1      -0.855   4.320  25.015  0.00  0.00    +0.000 A 
ATOM     21  C   UNL     1      -1.340   4.987  25.006  0.00  0.00    +0.020 A 
ATOM     22  C   UNL     1      -2.067   4.976  25.397  0.00  0.00    +0.099 A 
ATOM     23  N   UNL     1      -2.308   4.297  25.798  0.00  0.00    -0.243 NA
ATOM     24  C   UNL     1      -1.824   3.629  25.807  0.00  0.00    +0.096 A 
ENDBRANCH  18  19
ENDBRANCH  17  18
ENDBRANCH  16  17
ENDBRANCH  15  16
TORSDOF 9
ENDMDL
MODEL 6
REMARK VINA RESULT:      -9.3      1.396      5.438
REMARK  Name = 
REMARK  9 active torsions:
REMARK  status: ('A' for Active; 'I' for Inactive)
REMARK    1  A    between atoms: C_2  and  C_3
REMARK    2  A    between atoms: C_3  and  C_4
REMARK    3  A    between atoms: C_7  and  C_8
REMARK    4  A    between atoms: C_8  and  C_9
REMARK    5  A    between atoms: C_11  and  C_12
REMARK    6  A    between atoms: C_15  and  C_16
REMARK    7  A    between atoms: C_16  and  N_17
REMARK    8  A    between atoms: N_17  and  C_18
REMARK    9  A    between atoms: C_18  and  C_19
REMARK                            x       y       z     vdW  Elec       q    Type
REMARK                         _______ _______ _______ _____ _____    ______ ____
ROOT
ATOM      9  C   UNL     1      -3.867   0.519  23.795  0.00  0.00    +0.027 C 
ATOM     10  C   UNL     1      -4.456   0.727  24.334  0.00  0.00    +0.005 C 
ATOM     11  C   UNL     1      -4.420   1.453  24.724  0.00  0.00    +0.006 C 
ATOM     15  C   UNL     1      -3.797   1.971  24.575  0.00  0.00    +0.039 C 
ATOM     25  C   UNL     1      -3.207   1.764  24.036  0.00  0.00    -0.033 C 
ATOM     26  C   UNL     1      -3.243   1.038  23.646  0.00  0.00    -0.048 C 
ATOM     27  C   UNL     1      -2.654   0.831  23.107  0.00  0.00    +0.026 C 
ENDROOT
BRANCH  11  12
ATOM     12  C   UNL     1      -5.010   1.661  25.264  0.00  0.00    +0.000 C 
ATOM     13  C   UNL     1      -4.948   1.426  26.052  0.00  0.00    +0.000 C 
ATOM     14  C   UNL     1      -5.660   2.103  25.014  0.00  0.00    +0.000 C 
ENDBRANCH  11  12
BRANCH   9   8
ATOM      8  C   UNL     1      -3.901  -0.206  23.405  0.00  0.00    +0.091 C 
BRANCH   8   7
ATOM      4  C   UNL     1      -3.262  -1.896  24.543  0.00  0.00    +0.226 A 
ATOM      5  N   UNL     1      -4.057  -2.078  24.419  0.00  0.00    -0.112 NA
ATOM      6  N   UNL     1      -4.394  -1.468  23.978  0.00  0.00    -0.112 NA
ATOM      7  C   UNL     1      -3.806  -0.908  23.829  0.00  0.00    +0.226 A 
ATOM     28  O   UNL     1      -3.107  -1.172  24.178  0.00  0.00    -0.423 OA
BRANCH   4   3
ATOM      3  C   UNL     1      -2.719  -2.356  24.958  0.00  0.00    +0.087 C 
BRANCH   3   2
ATOM      1  C   UNL     1      -1.319  -2.592  25.126  0.00  0.00    +0.001 C 
ATOM      2  C   UNL     1      -1.976  -2.510  24.634  0.00  0.00    +0.010 C 
ENDBRANCH   3   2
ENDBRANCH   4   3
ENDBRANCH   8   7
ENDBRANCH   9   8
BRANCH  15  16
ATOM     16  C   UNL     1      -3.761   2.698  24.965  0.00  0.00    +0.093 C 
BRANCH  16  17
ATOM     17  N   UNL     1      -3.126   3.207  24.832  0.00  0.00    -0.213 NA
BRANCH  17  18
ATOM     18  C   UNL     1      -2.883   3.726  25.426  0.00  0.00    +0.117 C 
BRANCH  18  19
ATOM     19  C   UNL     1      -2.221   4.204  25.311  0.00  0.00    +0.014 A 
ATOM     20  C   UNL     1      -1.467   3.868  25.297  0.00  0.00    +0.000 A 
ATOM     21  C   UNL     1      -0.805   4.347  25.181  0.00  0.00    +0.020 A 
ATOM     22  C   UNL     1      -0.896   5.161  25.079  0.00  0.00    +0.099 A 
ATOM     23  N   UNL     1      -1.650   5.496  25.093  0.00  0.00    -0.243 NA
ATOM     24  C   UNL     1      -2.312   5.017  25.209  0.00  0.00    +0.096 A 
ENDBRANCH  18  19
ENDBRANCH  17  18
ENDBRANCH  16  17
ENDBRANCH  15  16
TORSDOF 9
ENDMDL
MODEL 7
REMARK VINA RESULT:      -9.3      1.428      5.222
REMARK  Name = 
REMARK  9 active torsions:
REMARK  status: ('A' for Active; 'I' for Inactive)
REMARK    1  A    between atoms: C_2  and  C_3
REMARK    2  A    between atoms: C_3  and  C_4
REMARK    3  A    between atoms: C_7  and  C_8
REMARK    4  A    between atoms: C_8  and  C_9
REMARK    5  A    between atoms: C_11  and  C_12
REMARK    6  A    between atoms: C_15  and  C_16
REMARK    7  A    between atoms: C_16  and  N_17
REMARK    8  A    between atoms: N_17  and  C_18
REMARK    9  A    between atoms: C_18  and  C_19
REMARK                            x       y       z     vdW  Elec       q    Type
REMARK                         _______ _______ _______ _____ _____    ______ ____
ROOT
ATOM      9  C   UNL     1      -4.261   0.467  24.402  0.00  0.00    +0.027 C 
ATOM     10  C   UNL     1      -3.728   0.619  23.790  0.00  0.00    +0.005 C 
ATOM     11  C   UNL     1      -3.355   1.354  23.742  0.00  0.00    +0.006 C 
ATOM     15  C   UNL     1      -3.514   1.935  24.305  0.00  0.00    +0.039 C 
ATOM     25  C   UNL     1      -4.047   1.783  24.917  0.00  0.00    -0.033 C 
ATOM     26  C   UNL     1      -4.419   1.048  24.965  0.00  0.00    -0.048 C 
ATOM     27  C   UNL     1      -4.952   0.896  25.577  0.00  0.00    +0.026 C 
ENDROOT
BRANCH  11  12
ATOM     12  C   UNL     1      -2.823   1.507  23.130  0.00  0.00    +0.000 C 
ATOM     13  C   UNL     1      -3.068   1.930  22.466  0.00  0.00    +0.000 C 
ATOM     14  C   UNL     1      -2.045   1.236  23.182  0.00  0.00    +0.000 C 
ENDBRANCH  11  12
BRANCH   9   8
ATOM      8  C   UNL     1      -4.633  -0.267  24.451  0.00  0.00    +0.091 C 
BRANCH   8   7
ATOM      4  C   UNL     1      -3.296  -1.928  24.559  0.00  0.00    +0.226 A 
ATOM      5  N   UNL     1      -3.741  -2.124  23.893  0.00  0.00    -0.112 NA
ATOM      6  N   UNL     1      -4.296  -1.526  23.771  0.00  0.00    -0.112 NA
ATOM      7  C   UNL     1      -4.194  -0.960  24.362  0.00  0.00    +0.226 A 
ATOM     28  O   UNL     1      -3.576  -1.208  24.850  0.00  0.00    -0.423 OA
BRANCH   4   3
ATOM      3  C   UNL     1      -2.680  -2.372  24.879  0.00  0.00    +0.087 C 
BRANCH   3   2
ATOM      1  C   UNL     1      -1.258  -2.498  24.938  0.00  0.00    +0.001 C 
ATOM      2  C   UNL     1      -1.949  -2.398  24.499  0.00  0.00    +0.010 C 
ENDBRANCH   3   2
ENDBRANCH   4   3
ENDBRANCH   8   7
ENDBRANCH   9   8
BRANCH  15  16
ATOM     16  C   UNL     1      -3.142   2.670  24.257  0.00  0.00    +0.093 C 
BRANCH  16  17
ATOM     17  N   UNL     1      -2.774   2.990  24.921  0.00  0.00    -0.213 NA
BRANCH  17  18
ATOM     18  C   UNL     1      -2.764   3.808  25.034  0.00  0.00    +0.117 C 
BRANCH  18  19
ATOM     19  C   UNL     1      -2.046   4.209  25.090  0.00  0.00    +0.014 A 
ATOM     20  C   UNL     1      -1.995   4.999  24.856  0.00  0.00    +0.000 A 
ATOM     21  C   UNL     1      -1.276   5.400  24.912  0.00  0.00    +0.020 A 
ATOM     22  C   UNL     1      -0.608   5.011  25.203  0.00  0.00    +0.099 A 
ATOM     23  N   UNL     1      -0.660   4.222  25.437  0.00  0.00    -0.243 NA
ATOM     24  C   UNL     1      -1.379   3.821  25.380  0.00  0.00    +0.096 A 
ENDBRANCH  18  19
ENDBRANCH  17  18
ENDBRANCH  16  17
ENDBRANCH  15  16
TORSDOF 9
ENDMDL
MODEL 8
REMARK VINA RESULT:      -9.1      2.476      4.809
REMARK  Name = 
REMARK  9 active torsions:
REMARK  status: ('A' for Active; 'I' for Inactive)
REMARK    1  A    between atoms: C_2  and  C_3
REMARK    2  A    between atoms: C_3  and  C_4
REMARK    3  A    between atoms: C_7  and  C_8
REMARK    4  A    between atoms: C_8  and  C_9
REMARK    5  A    between atoms: C_11  and  C_12
REMARK    6  A    between atoms: C_15  and  C_16
REMARK    7  A    between atoms: C_16  and  N_17
REMARK    8  A    between atoms: N_17  and  C_18
REMARK    9  A    between atoms: C_18  and  C_19
REMARK                            x       y       z     vdW  Elec       q    Type
REMARK                         _______ _______ _______ _____ _____    ______ ____
ROOT
ATOM      9  C   UNL     1      -1.566   0.081  25.102  0.00  0.00    +0.027 C 
ATOM     10  C   UNL     1      -2.123  -0.482  24.871  0.00  0.00    +0.005 C 
ATOM     11  C   UNL     1      -2.913  -0.264  24.771  0.00  0.00    +0.006 C 
ATOM     15  C   UNL     1      -3.145   0.516  24.903  0.00  0.00    +0.039 C 
ATOM     25  C   UNL     1      -2.588   1.079  25.134  0.00  0.00    -0.033 C 
ATOM     26  C   UNL     1      -1.799   0.861  25.233  0.00  0.00    -0.048 C 
ATOM     27  C   UNL     1      -1.242   1.425  25.465  0.00  0.00    +0.026 C 
ENDROOT
BRANCH  11  12
ATOM     12  C   UNL     1      -3.470  -0.828  24.540  0.00  0.00    +0.000 C 
ATOM     13  C   UNL     1      -3.804  -1.331  25.101  0.00  0.00    +0.000 C 
ATOM     14  C   UNL     1      -3.693  -0.887  23.747  0.00  0.00    +0.000 C 
ENDBRANCH  11  12
BRANCH   9   8
ATOM      8  C   UNL     1      -0.777  -0.136  25.201  0.00  0.00    +0.091 C 
BRANCH   8   7
ATOM      4  C   UNL     1       0.437  -0.371  23.460  0.00  0.00    +0.226 A 
ATOM      5  N   UNL     1       0.269  -1.157  23.646  0.00  0.00    -0.112 NA
ATOM      6  N   UNL     1      -0.206  -1.165  24.320  0.00  0.00    -0.112 NA
ATOM      7  C   UNL     1      -0.332  -0.383  24.552  0.00  0.00    +0.226 A 
ATOM     28  O   UNL     1       0.066   0.107  24.021  0.00  0.00    -0.423 OA
BRANCH   4   3
ATOM      3  C   UNL     1       0.895  -0.110  22.827  0.00  0.00    +0.087 C 
BRANCH   3   2
ATOM      1  C   UNL     1       2.186   0.090  22.247  0.00  0.00    +0.001 C 
ATOM      2  C   UNL     1       1.712  -0.038  22.911  0.00  0.00    +0.010 C 
ENDBRANCH   3   2
ENDBRANCH   4   3
ENDBRANCH   8   7
ENDBRANCH   9   8
BRANCH  15  16
ATOM     16  C   UNL     1      -3.935   0.734  24.804  0.00  0.00    +0.093 C 
BRANCH  16  17
ATOM     17  N   UNL     1      -4.175   1.503  24.977  0.00  0.00    -0.213 NA
BRANCH  17  18
ATOM     18  C   UNL     1      -4.967   1.719  24.883  0.00  0.00    +0.117 C 
BRANCH  18  19
ATOM     19  C   UNL     1      -5.233   2.446  25.166  0.00  0.00    +0.014 A 
ATOM     20  C   UNL     1      -4.897   3.146  24.883  0.00  0.00    +0.000 A 
ATOM     21  C   UNL     1      -5.163   3.873  25.166  0.00  0.00    +0.020 A 
ATOM     22  C   UNL     1      -5.764   3.903  25.731  0.00  0.00    +0.099 A 
ATOM     23  N   UNL     1      -6.099   3.203  26.013  0.00  0.00    -0.243 NA
ATOM     24  C   UNL     1      -5.833   2.476  25.730  0.00  0.00    +0.096 A 
ENDBRANCH  18  19
ENDBRANCH  17  18
ENDBRANCH  16  17
ENDBRANCH  15  16
TORSDOF 9
ENDMDL
MODEL 9
REMARK VINA RESULT:      -9.0      2.371      3.622
REMARK  Name = 
REMARK  9 active torsions:
REMARK  status: ('A' for Active; 'I' for Inactive)
REMARK    1  A    between atoms: C_2  and  C_3
REMARK    2  A    between atoms: C_3  and  C_4
REMARK    3  A    between atoms: C_7  and  C_8
REMARK    4  A    between atoms: C_8  and  C_9
REMARK    5  A    between atoms: C_11  and  C_12
REMARK    6  A    between atoms: C_15  and  C_16
REMARK    7  A    between atoms: C_16  and  N_17
REMARK    8  A    between atoms: N_17  and  C_18
REMARK    9  A    between atoms: C_18  and  C_19
REMARK                            x       y       z     vdW  Elec       q    Type
REMARK                         _______ _______ _______ _____ _____    ______ ____
ROOT
ATOM      9  C   UNL     1      -3.349   3.404  24.171  0.00  0.00    +0.027 C 
ATOM     10  C   UNL     1      -2.830   3.703  24.738  0.00  0.00    +0.005 C 
ATOM     11  C   UNL     1      -2.072   3.384  24.813  0.00  0.00    +0.006 C 
ATOM     15  C   UNL     1      -1.835   2.766  24.322  0.00  0.00    +0.039 C 
ATOM     25  C   UNL     1      -2.354   2.467  23.754  0.00  0.00    -0.033 C 
ATOM     26  C   UNL     1      -3.110   2.787  23.679  0.00  0.00    -0.048 C 
ATOM     27  C   UNL     1      -3.629   2.488  23.111  0.00  0.00    +0.026 C 
ENDROOT
BRANCH  11  12
ATOM     12  C   UNL     1      -1.553   3.683  25.381  0.00  0.00    +0.000 C 
ATOM     13  C   UNL     1      -1.550   3.368  26.143  0.00  0.00    +0.000 C 
ATOM     14  C   UNL     1      -1.037   4.297  25.186  0.00  0.00    +0.000 C 
ENDBRANCH  11  12
BRANCH   9   8
ATOM      8  C   UNL     1      -4.105   3.723  24.095  0.00  0.00    +0.091 C 
BRANCH   8   7
ATOM      4  C   UNL     1      -5.559   3.159  25.553  0.00  0.00    +0.226 A 
ATOM      5  N   UNL     1      -5.398   3.936  25.781  0.00  0.00    -0.112 NA
ATOM      6  N   UNL     1      -4.834   4.242  25.262  0.00  0.00    -0.112 NA
ATOM      7  C   UNL     1      -4.646   3.654  24.714  0.00  0.00    +0.226 A 
ATOM     28  O   UNL     1      -5.094   2.985  24.894  0.00  0.00    -0.423 OA
BRANCH   4   3
ATOM      3  C   UNL     1      -6.091   2.647  25.920  0.00  0.00    +0.087 C 
BRANCH   3   2
ATOM      1  C   UNL     1      -6.387   1.368  26.485  0.00  0.00    +0.001 C 
ATOM      2  C   UNL     1      -5.871   1.868  26.079  0.00  0.00    +0.010 C 
ENDBRANCH   3   2
ENDBRANCH   4   3
ENDBRANCH   8   7
ENDBRANCH   9   8
BRANCH  15  16
ATOM     16  C   UNL     1      -1.077   2.447  24.397  0.00  0.00    +0.093 C 
BRANCH  16  17
ATOM     17  N   UNL     1      -0.916   1.694  24.102  0.00  0.00    -0.213 NA
BRANCH  17  18
ATOM     18  C   UNL     1      -0.221   1.306  24.320  0.00  0.00    +0.117 C 
BRANCH  18  19
ATOM     19  C   UNL     1      -0.157   0.489  24.227  0.00  0.00    +0.014 A 
ATOM     20  C   UNL     1      -0.509  -0.017  24.776  0.00  0.00    +0.000 A 
ATOM     21  C   UNL     1      -0.446  -0.834  24.683  0.00  0.00    +0.020 A 
ATOM     22  C   UNL     1      -0.030  -1.146  24.042  0.00  0.00    +0.099 A 
ATOM     23  N   UNL     1       0.321  -0.639  23.493  0.00  0.00    -0.243 NA
ATOM     24  C   UNL     1       0.258   0.178  23.586  0.00  0.00    +0.096 A 
ENDBRANCH  18  19
ENDBRANCH  17  18
ENDBRANCH  16  17
ENDBRANCH  15  16
TORSDOF 9
ENDMDL
MODEL 10
REMARK VINA RESULT:      -8.9      2.925      4.941
REMARK  Name = 
REMARK  9 active torsions:
REMARK  status: ('A' for Active; 'I' for Inactive)
REMARK    1  A    between atoms: C_2  and  C_3
REMARK    2  A    between atoms: C_3  and  C_4
REMARK    3  A    between atoms: C_7  and  C_8
REMARK    4  A    between atoms: C_8  and  C_9
REMARK    5  A    between atoms: C_11  and  C_12
REMARK    6  A    between atoms: C_15  and  C_16
REMARK    7  A    between atoms: C_16  and  N_17
REMARK    8  A    between atoms: N_17  and  C_18
REMARK    9  A    between atoms: C_18  and  C_19
REMARK                            x       y       z     vdW  Elec       q    Type
REMARK                         _______ _______ _______ _____ _____    ______ ____
ROOT
ATOM      9  C   UNL     1      -0.656   0.380  24.387  0.00  0.00    +0.027 C 
ATOM     10  C   UNL     1      -0.338   1.130  24.520  0.00  0.00    +0.005 C 
ATOM     11  C   UNL     1      -0.837   1.764  24.697  0.00  0.00    +0.006 C 
ATOM     15  C   UNL     1      -1.652   1.647  24.742  0.00  0.00    +0.039 C 
ATOM     25  C   UNL     1      -1.970   0.897  24.609  0.00  0.00    -0.033 C 
ATOM     26  C   UNL     1      -1.472   0.265  24.432  0.00  0.00    -0.048 C 
ATOM     27  C   UNL     1      -1.790  -0.485  24.300  0.00  0.00    +0.026 C 
ENDROOT
BRANCH  11  12
ATOM     12  C   UNL     1      -0.519   2.514  24.830  0.00  0.00    +0.000 C 
ATOM     13  C   UNL     1      -0.453   3.050  24.207  0.00  0.00    +0.000 C 
ATOM     14  C   UNL     1      -0.267   2.728  25.586  0.00  0.00    +0.000 C 
ENDBRANCH  11  12
BRANCH   9   8
ATOM      8  C   UNL     1      -0.159  -0.253  24.210  0.00  0.00    +0.091 C 
BRANCH   8   7
ATOM      4  C   UNL     1       1.558  -0.069  22.955  0.00  0.00    +0.226 A 
ATOM      5  N   UNL     1       0.953  -0.087  22.395  0.00  0.00    -0.112 NA
ATOM      6  N   UNL     1       0.235  -0.158  22.797  0.00  0.00    -0.112 NA
ATOM      7  C   UNL     1       0.398  -0.184  23.606  0.00  0.00    +0.226 A 
ATOM     28  O   UNL     1       1.216  -0.130  23.704  0.00  0.00    -0.423 OA
BRANCH   4   3
ATOM      3  C   UNL     1       2.364  -0.004  22.795  0.00  0.00    +0.087 C 
BRANCH   3   2
ATOM      1  C   UNL     1       3.542   0.800  22.705  0.00  0.00    +0.001 C 
ATOM      2  C   UNL     1       2.723   0.739  22.784  0.00  0.00    +0.010 C 
ENDBRANCH   3   2
ENDBRANCH   4   3
ENDBRANCH   8   7
ENDBRANCH   9   8
BRANCH  15  16
ATOM     16  C   UNL     1      -2.151   2.281  24.919  0.00  0.00    +0.093 C 
BRANCH  16  17
ATOM     17  N   UNL     1      -2.966   2.167  24.954  0.00  0.00    -0.213 NA
BRANCH  17  18
ATOM     18  C   UNL     1      -3.476   2.815  24.914  0.00  0.00    +0.117 C 
BRANCH  18  19
ATOM     19  C   UNL     1      -4.268   2.731  25.128  0.00  0.00    +0.014 A 
ATOM     20  C   UNL     1      -4.765   2.245  24.684  0.00  0.00    +0.000 A 
ATOM     21  C   UNL     1      -5.557   2.161  24.898  0.00  0.00    +0.020 A 
ATOM     22  C   UNL     1      -5.853   2.564  25.555  0.00  0.00    +0.099 A 
ATOM     23  N   UNL     1      -5.355   3.050  25.998  0.00  0.00    -0.243 NA
ATOM     24  C   UNL     1      -4.562   3.133  25.784  0.00  0.00    +0.096 A 
ENDBRANCH  18  19
ENDBRANCH  17  18
ENDBRANCH  16  17
ENDBRANCH  15  16
TORSDOF 9
ENDMDL
