MODEL 1
REMARK VINA RESULT:      -9.1      0.000      0.000
REMARK  Name = 
REMARK  6 active torsions:
REMARK  status: ('A' for Active; 'I' for Inactive)
REMARK    1  A    between atoms: N_3  and  C_4
REMARK    2  A    between atoms: C_8  and  N_12
REMARK    3  A    between atoms: C_16  and  O_17
REMARK    4  A    between atoms: O_17  and  C_18
REMARK    5  A    between atoms: C_21  and  N_24
REMARK    6  A    between atoms: N_29  and  C_30
REMARK                            x       y       z     vdW  Elec       q    Type
REMARK                         _______ _______ _______ _____ _____    ______ ____
ROOT
ATOM      4  C   UNL     1       1.590   0.541  23.018  0.00  0.00    +0.156 C 
ATOM      5  C   UNL     1       1.329  -0.167  22.687  0.00  0.00    +0.166 C 
ATOM      6  O   UNL     1       0.589  -0.340  23.007  0.00  0.00    -0.350 OA
ATOM      7  C   UNL     1       0.393   0.261  23.536  0.00  0.00    +0.169 C 
ATOM      8  C   UNL     1      -0.185   0.527  24.061  0.00  0.00    +0.170 C 
ATOM      9  C   UNL     1       0.076   1.235  24.393  0.00  0.00    +0.169 C 
ATOM     10  O   UNL     1       0.816   1.408  24.073  0.00  0.00    -0.350 OA
ATOM     11  C   UNL     1       1.012   0.806  23.543  0.00  0.00    +0.167 C 
ENDROOT
BRANCH   8  12
ATOM     12  N   UNL     1      -0.901   0.149  24.226  0.00  0.00    -0.180 N 
ATOM     13  N   UNL     1      -0.992  -0.640  24.450  0.00  0.00    -0.040 NA
ATOM     14  N   UNL     1      -1.798  -0.782  24.558  0.00  0.00    -0.020 NA
ATOM     15  N   UNL     1      -2.203  -0.082  24.401  0.00  0.00    -0.071 NA
ATOM     16  C   UNL     1      -1.649   0.494  24.195  0.00  0.00    +0.343 A 
BRANCH  16  17
ATOM     17  O   UNL     1      -1.815   1.277  23.995  0.00  0.00    -0.421 OA
BRANCH  17  18
ATOM     18  C   UNL     1      -2.514   1.631  24.255  0.00  0.00    +0.149 A 
ATOM     19  C   UNL     1      -3.182   1.628  23.771  0.00  0.00    +0.039 A 
ATOM     20  C   UNL     1      -3.880   1.981  24.031  0.00  0.00    +0.022 A 
ATOM     21  C   UNL     1      -3.911   2.337  24.775  0.00  0.00    +0.085 A 
ATOM     22  C   UNL     1      -3.242   2.340  25.259  0.00  0.00    +0.022 A 
ATOM     23  C   UNL     1      -2.544   1.987  24.998  0.00  0.00    +0.039 A 
BRANCH  21  24
ATOM     24  N   UNL     1      -4.609   2.691  25.035  0.00  0.00    -0.208 N 
ATOM     25  C   UNL     1      -5.324   2.305  25.175  0.00  0.00    +0.202 A 
ATOM     26  N   UNL     1      -5.873   2.867  25.428  0.00  0.00    -0.200 NA
ATOM     27  C   UNL     1      -5.496   3.600  25.445  0.00  0.00    +0.221 A 
ATOM     28  N   UNL     1      -4.715   3.491  25.202  0.00  0.00    -0.141 NA
ENDBRANCH  21  24
ENDBRANCH  17  18
ENDBRANCH  16  17
ENDBRANCH   8  12
BRANCH   4   3
ATOM      1  O   UNL     1       3.018  -0.185  23.417  0.00  0.00    -0.249 OA
ATOM      2  C   UNL     1       3.020   0.556  23.053  0.00  0.00    +0.344 C 
ATOM      3  N   UNL     1       2.306   0.919  22.854  0.00  0.00    -0.184 NA
ATOM     29  N   UNL     1       3.734   0.933  22.888  0.00  0.00    -0.161 NA
BRANCH  29  30
ATOM     30  C   UNL     1       4.448   0.571  23.087  0.00  0.00    +0.075 A 
ATOM     31  C   UNL     1       4.767   0.673  23.841  0.00  0.00    +0.017 A 
ATOM     32  C   UNL     1       5.481   0.310  24.040  0.00  0.00    +0.001 A 
ATOM     33  C   UNL     1       5.876  -0.155  23.484  0.00  0.00    +0.000 A 
ATOM     34  C   UNL     1       5.556  -0.257  22.730  0.00  0.00    +0.001 A 
ATOM     35  C   UNL     1       4.843   0.106  22.532  0.00  0.00    +0.017 A 
ENDBRANCH  29  30
ENDBRANCH   4   3
TORSDOF 6
ENDMDL
MODEL 2
REMARK VINA RESULT:      -8.3      2.086      7.029
REMARK  Name = 
REMARK  6 active torsions:
REMARK  status: ('A' for Active; 'I' for Inactive)
REMARK    1  A    between atoms: N_3  and  C_4
REMARK    2  A    between atoms: C_8  and  N_12
REMARK    3  A    between atoms: C_16  and  O_17
REMARK    4  A    between atoms: O_17  and  C_18
REMARK    5  A    between atoms: C_21  and  N_24
REMARK    6  A    between atoms: N_29  and  C_30
REMARK                            x       y       z     vdW  Elec       q    Type
REMARK                         _______ _______ _______ _____ _____    ______ ____
ROOT
ATOM      4  C   UNL     1      -4.503   0.112  24.987  0.00  0.00    +0.156 C 
ATOM      5  C   UNL     1      -4.431   0.039  24.169  0.00  0.00    +0.166 C 
ATOM      6  O   UNL     1      -3.849  -0.525  24.015  0.00  0.00    -0.350 OA
ATOM      7  C   UNL     1      -3.562  -0.800  24.736  0.00  0.00    +0.169 C 
ATOM      8  C   UNL     1      -3.025  -1.318  25.088  0.00  0.00    +0.170 C 
ATOM      9  C   UNL     1      -3.097  -1.245  25.907  0.00  0.00    +0.169 C 
ATOM     10  O   UNL     1      -3.679  -0.682  26.061  0.00  0.00    -0.350 OA
ATOM     11  C   UNL     1      -3.966  -0.406  25.338  0.00  0.00    +0.167 C 
ENDROOT
BRANCH   8  12
ATOM     12  N   UNL     1      -2.506  -1.822  24.690  0.00  0.00    -0.180 N 
ATOM     13  N   UNL     1      -2.694  -2.563  24.377  0.00  0.00    -0.040 NA
ATOM     14  N   UNL     1      -2.013  -2.872  24.029  0.00  0.00    -0.020 NA
ATOM     15  N   UNL     1      -1.405  -2.323  24.127  0.00  0.00    -0.071 NA
ATOM     16  C   UNL     1      -1.710  -1.675  24.536  0.00  0.00    +0.343 A 
BRANCH  16  17
ATOM     17  O   UNL     1      -1.292  -0.997  24.752  0.00  0.00    -0.421 OA
BRANCH  17  18
ATOM     18  C   UNL     1      -0.629  -0.765  24.317  0.00  0.00    +0.149 A 
ATOM     19  C   UNL     1      -0.679  -0.125  23.799  0.00  0.00    +0.039 A 
ATOM     20  C   UNL     1      -0.018   0.107  23.365  0.00  0.00    +0.022 A 
ATOM     21  C   UNL     1       0.695  -0.302  23.449  0.00  0.00    +0.085 A 
ATOM     22  C   UNL     1       0.745  -0.942  23.968  0.00  0.00    +0.022 A 
ATOM     23  C   UNL     1       0.082  -1.173  24.402  0.00  0.00    +0.039 A 
BRANCH  21  24
ATOM     24  N   UNL     1       1.358  -0.070  23.015  0.00  0.00    -0.208 N 
ATOM     25  C   UNL     1       1.562  -0.341  22.263  0.00  0.00    +0.202 A 
ATOM     26  N   UNL     1       2.263   0.034  22.039  0.00  0.00    -0.200 NA
ATOM     27  C   UNL     1       2.491   0.535  22.654  0.00  0.00    +0.221 A 
ATOM     28  N   UNL     1       1.931   0.470  23.257  0.00  0.00    -0.141 NA
ENDBRANCH  21  24
ENDBRANCH  17  18
ENDBRANCH  16  17
ENDBRANCH   8  12
BRANCH   4   3
ATOM      1  O   UNL     1      -4.315   1.748  24.874  0.00  0.00    -0.249 OA
ATOM      2  C   UNL     1      -4.928   1.434  25.329  0.00  0.00    +0.344 C 
ATOM      3  N   UNL     1      -5.022   0.616  25.385  0.00  0.00    -0.184 NA
ATOM     29  N   UNL     1      -5.446   1.937  25.726  0.00  0.00    -0.161 NA
BRANCH  29  30
ATOM     30  C   UNL     1      -5.352   2.755  25.670  0.00  0.00    +0.075 A 
ATOM     31  C   UNL     1      -4.629   3.102  25.860  0.00  0.00    +0.017 A 
ATOM     32  C   UNL     1      -4.535   3.920  25.803  0.00  0.00    +0.001 A 
ATOM     33  C   UNL     1      -5.165   4.391  25.556  0.00  0.00    +0.000 A 
ATOM     34  C   UNL     1      -5.890   4.044  25.365  0.00  0.00    +0.001 A 
ATOM     35  C   UNL     1      -5.982   3.226  25.422  0.00  0.00    +0.017 A 
ENDBRANCH  29  30
ENDBRANCH   4   3
TORSDOF 6
ENDMDL
MODEL 3
REMARK VINA RESULT:      -8.2      2.900      4.747
REMARK  Name = 
REMARK  6 active torsions:
REMARK  status: ('A' for Active; 'I' for Inactive)
REMARK    1  A    between atoms: N_3  and  C_4
REMARK    2  A    between atoms: C_8  and  N_12
REMARK    3  A    between atoms: C_16  and  O_17
REMARK    4  A    between atoms: O_17  and  C_18
REMARK    5  A    between atoms: C_21  and  N_24
REMARK    6  A    between atoms: N_29  and  C_30
REMARK                            x       y       z     vdW  Elec       q    Type
REMARK                         _______ _______ _______ _____ _____    ______ ____
ROOT
ATOM      4  C   UNL     1      -0.958  -0.292  25.096  0.00  0.00    +0.156 C 
ATOM      5  C   UNL     1      -1.145  -0.055  25.864  0.00  0.00    +0.166 C 
ATOM      6  O   UNL     1      -0.975   0.749  25.930  0.00  0.00    -0.350 OA
ATOM      7  C   UNL     1      -0.683   1.009  25.205  0.00  0.00    +0.169 C 
ATOM      8  C   UNL     1      -0.397   1.667  24.797  0.00  0.00    +0.170 C 
ATOM      9  C   UNL     1      -0.210   1.430  24.029  0.00  0.00    +0.169 C 
ATOM     10  O   UNL     1      -0.380   0.626  23.963  0.00  0.00    -0.350 OA
ATOM     11  C   UNL     1      -0.672   0.366  24.689  0.00  0.00    +0.167 C 
ENDROOT
BRANCH   8  12
ATOM     12  N   UNL     1      -0.313   2.429  25.103  0.00  0.00    -0.180 N 
ATOM     13  N   UNL     1       0.240   2.666  25.668  0.00  0.00    -0.040 NA
ATOM     14  N   UNL     1       0.127   3.470  25.813  0.00  0.00    -0.020 NA
ATOM     15  N   UNL     1      -0.495   3.730  25.338  0.00  0.00    -0.071 NA
ATOM     16  C   UNL     1      -0.767   3.086  24.899  0.00  0.00    +0.343 A 
BRANCH  16  17
ATOM     17  O   UNL     1      -1.386   3.098  24.353  0.00  0.00    -0.421 OA
BRANCH  17  18
ATOM     18  C   UNL     1      -2.156   3.252  24.604  0.00  0.00    +0.149 A 
ATOM     19  C   UNL     1      -2.289   3.755  25.244  0.00  0.00    +0.039 A 
ATOM     20  C   UNL     1      -3.058   3.909  25.496  0.00  0.00    +0.022 A 
ATOM     21  C   UNL     1      -3.697   3.559  25.107  0.00  0.00    +0.085 A 
ATOM     22  C   UNL     1      -3.565   3.055  24.467  0.00  0.00    +0.022 A 
ATOM     23  C   UNL     1      -2.794   2.902  24.216  0.00  0.00    +0.039 A 
BRANCH  21  24
ATOM     24  N   UNL     1      -4.468   3.712  25.358  0.00  0.00    -0.208 N 
ATOM     25  C   UNL     1      -4.953   3.193  25.778  0.00  0.00    +0.202 A 
ATOM     26  N   UNL     1      -5.674   3.571  25.913  0.00  0.00    -0.200 NA
ATOM     27  C   UNL     1      -5.634   4.323  25.577  0.00  0.00    +0.221 A 
ATOM     28  N   UNL     1      -4.889   4.410  25.234  0.00  0.00    -0.141 NA
ENDBRANCH  21  24
ENDBRANCH  17  18
ENDBRANCH  16  17
ENDBRANCH   8  12
BRANCH   4   3
ATOM      1  O   UNL     1      -2.456  -0.973  24.975  0.00  0.00    -0.249 OA
ATOM      2  C   UNL     1      -1.791  -1.395  24.729  0.00  0.00    +0.344 C 
ATOM      3  N   UNL     1      -1.041  -1.054  24.790  0.00  0.00    -0.184 NA
ATOM     29  N   UNL     1      -1.874  -2.155  24.423  0.00  0.00    -0.161 NA
BRANCH  29  30
ATOM     30  C   UNL     1      -2.624  -2.496  24.362  0.00  0.00    +0.075 A 
ATOM     31  C   UNL     1      -3.165  -2.206  23.813  0.00  0.00    +0.017 A 
ATOM     32  C   UNL     1      -3.915  -2.547  23.752  0.00  0.00    +0.001 A 
ATOM     33  C   UNL     1      -4.121  -3.178  24.242  0.00  0.00    +0.000 A 
ATOM     34  C   UNL     1      -3.579  -3.468  24.792  0.00  0.00    +0.001 A 
ATOM     35  C   UNL     1      -2.830  -3.127  24.852  0.00  0.00    +0.017 A 
ENDBRANCH  29  30
ENDBRANCH   4   3
TORSDOF 6
ENDMDL
MODEL 4
REMARK VINA RESULT:      -7.9      1.483      7.095
REMARK  Name = 
REMARK  6 active torsions:
REMARK  status: ('A' for Active; 'I' for Inactive)
REMARK    1  A    between atoms: N_3  and  C_4
REMARK    2  A    between atoms: C_8  and  N_12
REMARK    3  A    between atoms: C_16  and  O_17
REMARK    4  A    between atoms: O_17  and  C_18
REMARK    5  A    between atoms: C_21  and  N_24
REMARK    6  A    between atoms: N_29  and  C_30
REMARK                            x       y       z     vdW  Elec       q    Type
REMARK                         _______ _______ _______ _____ _____    ______ ____
ROOT
ATOM      4  C   UNL     1      -3.403   0.339  25.038  0.00  0.00    +0.156 C 
ATOM      5  C   UNL     1      -2.935   0.522  25.692  0.00  0.00    +0.166 C 
ATOM      6  O   UNL     1      -2.235   0.091  25.631  0.00  0.00    -0.350 OA
ATOM      7  C   UNL     1      -2.270  -0.359  24.942  0.00  0.00    +0.169 C 
ATOM      8  C   UNL     1      -1.860  -0.904  24.477  0.00  0.00    +0.170 C 
ATOM      9  C   UNL     1      -2.329  -1.088  23.824  0.00  0.00    +0.169 C 
ATOM     10  O   UNL     1      -3.029  -0.656  23.884  0.00  0.00    -0.350 OA
ATOM     11  C   UNL     1      -2.993  -0.206  24.575  0.00  0.00    +0.167 C 
ENDROOT
BRANCH   8  12
ATOM     12  N   UNL     1      -1.112  -1.212  24.639  0.00  0.00    -0.180 N 
ATOM     13  N   UNL     1      -0.940  -1.814  25.177  0.00  0.00    -0.040 NA
ATOM     14  N   UNL     1      -0.126  -1.945  25.161  0.00  0.00    -0.020 NA
ATOM     15  N   UNL     1       0.206  -1.425  24.613  0.00  0.00    -0.071 NA
ATOM     16  C   UNL     1      -0.404  -0.972  24.291  0.00  0.00    +0.343 A 
BRANCH  16  17
ATOM     17  O   UNL     1      -0.319  -0.382  23.720  0.00  0.00    -0.421 OA
BRANCH  17  18
ATOM     18  C   UNL     1       0.434  -0.150  23.474  0.00  0.00    +0.149 A 
ATOM     19  C   UNL     1       0.819   0.472  23.855  0.00  0.00    +0.039 A 
ATOM     20  C   UNL     1       1.571   0.704  23.610  0.00  0.00    +0.022 A 
ATOM     21  C   UNL     1       1.940   0.313  22.983  0.00  0.00    +0.085 A 
ATOM     22  C   UNL     1       1.555  -0.310  22.602  0.00  0.00    +0.022 A 
ATOM     23  C   UNL     1       0.802  -0.541  22.848  0.00  0.00    +0.039 A 
BRANCH  21  24
ATOM     24  N   UNL     1       2.692   0.544  22.737  0.00  0.00    -0.208 N 
ATOM     25  C   UNL     1       3.135   0.190  22.137  0.00  0.00    +0.202 A 
ATOM     26  N   UNL     1       3.852   0.596  22.076  0.00  0.00    -0.200 NA
ATOM     27  C   UNL     1       3.850   1.200  22.639  0.00  0.00    +0.221 A 
ATOM     28  N   UNL     1       3.134   1.167  23.047  0.00  0.00    -0.141 NA
ENDBRANCH  21  24
ENDBRANCH  17  18
ENDBRANCH  16  17
ENDBRANCH   8  12
BRANCH   4   3
ATOM      1  O   UNL     1      -3.751   1.906  25.420  0.00  0.00    -0.249 OA
ATOM      2  C   UNL     1      -4.326   1.430  25.068  0.00  0.00    +0.344 C 
ATOM      3  N   UNL     1      -4.152   0.646  24.877  0.00  0.00    -0.184 NA
ATOM     29  N   UNL     1      -5.074   1.738  24.906  0.00  0.00    -0.161 NA
BRANCH  29  30
ATOM     30  C   UNL     1      -5.248   2.521  25.097  0.00  0.00    +0.075 A 
ATOM     31  C   UNL     1      -4.857   3.137  24.712  0.00  0.00    +0.017 A 
ATOM     32  C   UNL     1      -5.031   3.920  24.903  0.00  0.00    +0.001 A 
ATOM     33  C   UNL     1      -5.597   4.088  25.479  0.00  0.00    +0.000 A 
ATOM     34  C   UNL     1      -5.989   3.472  25.864  0.00  0.00    +0.001 A 
ATOM     35  C   UNL     1      -5.814   2.689  25.673  0.00  0.00    +0.017 A 
ENDBRANCH  29  30
ENDBRANCH   4   3
TORSDOF 6
ENDMDL
MODEL 5
REMARK VINA RESULT:      -7.5      1.351      1.801
REMARK  Name = 
REMARK  6 active torsions:
REMARK  status: ('A' for Active; 'I' for Inactive)
REMARK    1  A    between atoms: N_3  and  C_4
REMARK    2  A    between atoms: C_8  and  N_12
REMARK    3  A    between atoms: C_16  and  O_17
REMARK    4  A    between atoms: O_17  and  C_18
REMARK    5  A    between atoms: C_21  and  N_24
REMARK    6  A    between atoms: N_29  and  C_30
REMARK                            x       y       z     vdW  Elec       q    Type
REMARK                         _______ _______ _______ _____ _____    ______ ____
ROOT
ATOM      4  C   UNL     1       1.000   1.163  23.621  0.00  0.00    +0.156 C 
ATOM      5  C   UNL     1       1.070   1.982  23.556  0.00  0.00    +0.166 C 
ATOM      6  O   UNL     1       0.511   2.325  24.056  0.00  0.00    -0.350 OA
ATOM      7  C   UNL     1       0.096   1.719  24.430  0.00  0.00    +0.169 C 
ATOM      8  C   UNL     1      -0.506   1.555  24.969  0.00  0.00    +0.170 C 
ATOM      9  C   UNL     1      -0.576   0.736  25.034  0.00  0.00    +0.169 C 
ATOM     10  O   UNL     1      -0.017   0.393  24.534  0.00  0.00    -0.350 OA
ATOM     11  C   UNL     1       0.398   1.000  24.161  0.00  0.00    +0.167 C 
ENDROOT
BRANCH   8  12
ATOM     12  N   UNL     1      -0.960   2.114  25.373  0.00  0.00    -0.180 N 
ATOM     13  N   UNL     1      -0.701   2.590  25.996  0.00  0.00    -0.040 NA
ATOM     14  N   UNL     1      -1.332   3.065  26.233  0.00  0.00    -0.020 NA
ATOM     15  N   UNL     1      -1.981   2.883  25.758  0.00  0.00    -0.071 NA
ATOM     16  C   UNL     1      -1.750   2.295  25.226  0.00  0.00    +0.343 A 
BRANCH  16  17
ATOM     17  O   UNL     1      -2.228   1.950  24.649  0.00  0.00    -0.421 OA
BRANCH  17  18
ATOM     18  C   UNL     1      -3.049   1.947  24.739  0.00  0.00    +0.149 A 
ATOM     19  C   UNL     1      -3.488   2.614  24.531  0.00  0.00    +0.039 A 
ATOM     20  C   UNL     1      -4.308   2.612  24.621  0.00  0.00    +0.022 A 
ATOM     21  C   UNL     1      -4.688   1.942  24.919  0.00  0.00    +0.085 A 
ATOM     22  C   UNL     1      -4.249   1.275  25.126  0.00  0.00    +0.022 A 
ATOM     23  C   UNL     1      -3.429   1.278  25.036  0.00  0.00    +0.039 A 
BRANCH  21  24
ATOM     24  N   UNL     1      -5.508   1.939  25.009  0.00  0.00    -0.208 N 
ATOM     25  C   UNL     1      -5.929   2.290  25.626  0.00  0.00    +0.202 A 
ATOM     26  N   UNL     1      -6.733   2.153  25.497  0.00  0.00    -0.200 NA
ATOM     27  C   UNL     1      -6.808   1.718  24.801  0.00  0.00    +0.221 A 
ATOM     28  N   UNL     1      -6.051   1.586  24.499  0.00  0.00    -0.141 NA
ENDBRANCH  21  24
ENDBRANCH  17  18
ENDBRANCH  16  17
ENDBRANCH   8  12
BRANCH   4   3
ATOM      1  O   UNL     1       2.646   1.192  23.741  0.00  0.00    -0.249 OA
ATOM      2  C   UNL     1       2.276   0.618  23.277  0.00  0.00    +0.344 C 
ATOM      3  N   UNL     1       1.453   0.604  23.217  0.00  0.00    -0.184 NA
ATOM     29  N   UNL     1       2.729   0.060  22.873  0.00  0.00    -0.161 NA
BRANCH  29  30
ATOM     30  C   UNL     1       3.552   0.074  22.932  0.00  0.00    +0.075 A 
ATOM     31  C   UNL     1       3.990   0.598  22.471  0.00  0.00    +0.017 A 
ATOM     32  C   UNL     1       4.813   0.613  22.531  0.00  0.00    +0.001 A 
ATOM     33  C   UNL     1       5.198   0.102  23.052  0.00  0.00    +0.000 A 
ATOM     34  C   UNL     1       4.759  -0.422  23.515  0.00  0.00    +0.001 A 
ATOM     35  C   UNL     1       3.936  -0.436  23.454  0.00  0.00    +0.017 A 
ENDBRANCH  29  30
ENDBRANCH   4   3
TORSDOF 6
ENDMDL
MODEL 6
REMARK VINA RESULT:      -6.7     17.001     17.975
REMARK  Name = 
REMARK  6 active torsions:
REMARK  status: ('A' for Active; 'I' for Inactive)
REMARK    1  A    between atoms: N_3  and  C_4
REMARK    2  A    between atoms: C_8  and  N_12
REMARK    3  A    between atoms: C_16  and  O_17
REMARK    4  A    between atoms: O_17  and  C_18
REMARK    5  A    between atoms: C_21  and  N_24
REMARK    6  A    between atoms: N_29  and  C_30
REMARK                            x       y       z     vdW  Elec       q    Type
REMARK                         _______ _______ _______ _____ _____    ______ ____
ROOT
ATOM      4  C   UNL     1      -4.890  -8.877   9.677  0.00  0.00    +0.156 C 
ATOM      5  C   UNL     1      -5.087  -8.179  10.070  0.00  0.00    +0.166 C 
ATOM      6  O   UNL     1      -5.908  -8.105  10.061  0.00  0.00    -0.350 OA
ATOM      7  C   UNL     1      -6.219  -8.757   9.664  0.00  0.00    +0.169 C 
ATOM      8  C   UNL     1      -6.918  -9.116   9.413  0.00  0.00    +0.170 C 
ATOM      9  C   UNL     1      -6.721  -9.814   9.021  0.00  0.00    +0.169 C 
ATOM     10  O   UNL     1      -5.900  -9.887   9.029  0.00  0.00    -0.350 OA
ATOM     11  C   UNL     1      -5.589  -9.234   9.427  0.00  0.00    +0.167 C 
ENDROOT
BRANCH   8  12
ATOM     12  N   UNL     1      -7.682  -8.826   9.534  0.00  0.00    -0.180 N 
ATOM     13  N   UNL     1      -8.026  -8.188   9.140  0.00  0.00    -0.040 NA
ATOM     14  N   UNL     1      -8.792  -8.091   9.432  0.00  0.00    -0.020 NA
ATOM     15  N   UNL     1      -8.920  -8.669  10.006  0.00  0.00    -0.071 NA
ATOM     16  C   UNL     1      -8.234  -9.124  10.068  0.00  0.00    +0.343 A 
BRANCH  16  17
ATOM     17  O   UNL     1      -8.121  -9.764  10.577  0.00  0.00    -0.421 OA
BRANCH  17  18
ATOM     18  C   UNL     1      -8.581  -9.835  11.259  0.00  0.00    +0.149 A 
ATOM     19  C   UNL     1      -8.280  -9.590  11.987  0.00  0.00    +0.039 A 
ATOM     20  C   UNL     1      -8.739  -9.661  12.668  0.00  0.00    +0.022 A 
ATOM     21  C   UNL     1      -9.500  -9.978  12.621  0.00  0.00    +0.085 A 
ATOM     22  C   UNL     1      -9.801 -10.223  11.893  0.00  0.00    +0.022 A 
ATOM     23  C   UNL     1      -9.341 -10.151  11.212  0.00  0.00    +0.039 A 
BRANCH  21  24
ATOM     24  N   UNL     1      -9.961 -10.050  13.302  0.00  0.00    -0.208 N 
ATOM     25  C   UNL     1     -10.151 -10.755  13.685  0.00  0.00    +0.202 A 
ATOM     26  N   UNL     1     -10.620 -10.571  14.340  0.00  0.00    -0.200 NA
ATOM     27  C   UNL     1     -10.718  -9.752  14.360  0.00  0.00    +0.221 A 
ATOM     28  N   UNL     1     -10.311  -9.430  13.719  0.00  0.00    -0.141 NA
ENDBRANCH  21  24
ENDBRANCH  17  18
ENDBRANCH  16  17
ENDBRANCH   8  12
BRANCH   4   3
ATOM      1  O   UNL     1      -3.883  -9.109  10.964  0.00  0.00    -0.249 OA
ATOM      2  C   UNL     1      -3.623  -9.283  10.200  0.00  0.00    +0.344 C 
ATOM      3  N   UNL     1      -4.126  -9.166   9.557  0.00  0.00    -0.184 NA
ATOM     29  N   UNL     1      -2.860  -9.572  10.080  0.00  0.00    -0.161 NA
BRANCH  29  30
ATOM     30  C   UNL     1      -2.356  -9.688  10.723  0.00  0.00    +0.075 A 
ATOM     31  C   UNL     1      -2.475 -10.327  11.230  0.00  0.00    +0.017 A 
ATOM     32  C   UNL     1      -1.971 -10.443  11.873  0.00  0.00    +0.001 A 
ATOM     33  C   UNL     1      -1.348  -9.920  12.008  0.00  0.00    +0.000 A 
ATOM     34  C   UNL     1      -1.229  -9.281  11.500  0.00  0.00    +0.001 A 
ATOM     35  C   UNL     1      -1.733  -9.165  10.858  0.00  0.00    +0.017 A 
ENDBRANCH  29  30
ENDBRANCH   4   3
TORSDOF 6
ENDMDL
MODEL 7
REMARK VINA RESULT:      -6.2     15.275     16.579
REMARK  Name = 
REMARK  6 active torsions:
REMARK  status: ('A' for Active; 'I' for Inactive)
REMARK    1  A    between atoms: N_3  and  C_4
REMARK    2  A    between atoms: C_8  and  N_12
REMARK    3  A    between atoms: C_16  and  O_17
REMARK    4  A    between atoms: O_17  and  C_18
REMARK    5  A    between atoms: C_21  and  N_24
REMARK    6  A    between atoms: N_29  and  C_30
REMARK                            x       y       z     vdW  Elec       q    Type
REMARK                         _______ _______ _______ _____ _____    ______ ____
ROOT
ATOM      4  C   UNL     1      -6.542 -10.084  12.551  0.00  0.00    +0.156 C 
ATOM      5  C   UNL     1      -6.182  -9.481  12.982  0.00  0.00    +0.166 C 
ATOM      6  O   UNL     1      -6.671  -9.299  13.622  0.00  0.00    -0.350 OA
ATOM      7  C   UNL     1      -7.332  -9.790  13.585  0.00  0.00    +0.169 C 
ATOM      8  C   UNL     1      -8.044  -9.982  13.957  0.00  0.00    +0.170 C 
ATOM      9  C   UNL     1      -8.404 -10.585  13.525  0.00  0.00    +0.169 C 
ATOM     10  O   UNL     1      -7.915 -10.767  12.886  0.00  0.00    -0.350 OA
ATOM     11  C   UNL     1      -7.253 -10.275  12.923  0.00  0.00    +0.167 C 
ENDROOT
BRANCH   8  12
ATOM     12  N   UNL     1      -8.343  -9.631  14.641  0.00  0.00    -0.180 N 
ATOM     13  N   UNL     1      -8.876  -9.002  14.671  0.00  0.00    -0.040 NA
ATOM     14  N   UNL     1      -9.023  -8.830  15.464  0.00  0.00    -0.020 NA
ATOM     15  N   UNL     1      -8.581  -9.352  15.924  0.00  0.00    -0.071 NA
ATOM     16  C   UNL     1      -8.160  -9.847  15.416  0.00  0.00    +0.343 A 
BRANCH  16  17
ATOM     17  O   UNL     1      -7.647 -10.452  15.643  0.00  0.00    -0.421 OA
BRANCH  17  18
ATOM     18  C   UNL     1      -7.397 -10.508  16.427  0.00  0.00    +0.149 A 
ATOM     19  C   UNL     1      -6.598 -10.421  16.613  0.00  0.00    +0.039 A 
ATOM     20  C   UNL     1      -6.348 -10.477  17.396  0.00  0.00    +0.022 A 
ATOM     21  C   UNL     1      -6.897 -10.621  17.996  0.00  0.00    +0.085 A 
ATOM     22  C   UNL     1      -7.697 -10.709  17.810  0.00  0.00    +0.022 A 
ATOM     23  C   UNL     1      -7.946 -10.652  17.026  0.00  0.00    +0.039 A 
BRANCH  21  24
ATOM     24  N   UNL     1      -6.648 -10.678  18.780  0.00  0.00    -0.208 N 
ATOM     25  C   UNL     1      -7.139 -10.719  19.442  0.00  0.00    +0.202 A 
ATOM     26  N   UNL     1      -6.660 -10.770  20.112  0.00  0.00    -0.200 NA
ATOM     27  C   UNL     1      -5.873 -10.760  19.863  0.00  0.00    +0.221 A 
ATOM     28  N   UNL     1      -5.866 -10.703  19.040  0.00  0.00    -0.141 NA
ENDBRANCH  21  24
ENDBRANCH  17  18
ENDBRANCH  16  17
ENDBRANCH   8  12
BRANCH   4   3
ATOM      1  O   UNL     1      -5.507  -9.245  11.578  0.00  0.00    -0.249 OA
ATOM      2  C   UNL     1      -5.726 -10.016  11.379  0.00  0.00    +0.344 C 
ATOM      3  N   UNL     1      -6.244 -10.435  11.866  0.00  0.00    -0.184 NA
ATOM     29  N   UNL     1      -5.427 -10.366  10.695  0.00  0.00    -0.161 NA
BRANCH  29  30
ATOM     30  C   UNL     1      -4.909  -9.947  10.209  0.00  0.00    +0.075 A 
ATOM     31  C   UNL     1      -5.187  -9.595   9.517  0.00  0.00    +0.017 A 
ATOM     32  C   UNL     1      -4.669  -9.176   9.030  0.00  0.00    +0.001 A 
ATOM     33  C   UNL     1      -3.873  -9.109   9.236  0.00  0.00    +0.000 A 
ATOM     34  C   UNL     1      -3.595  -9.461   9.929  0.00  0.00    +0.001 A 
ATOM     35  C   UNL     1      -4.113  -9.880  10.415  0.00  0.00    +0.017 A 
ENDBRANCH  29  30
ENDBRANCH   4   3
TORSDOF 6
ENDMDL
MODEL 8
REMARK VINA RESULT:      -5.6     16.053     17.740
REMARK  Name = 
REMARK  6 active torsions:
REMARK  status: ('A' for Active; 'I' for Inactive)
REMARK    1  A    between atoms: N_3  and  C_4
REMARK    2  A    between atoms: C_8  and  N_12
REMARK    3  A    between atoms: C_16  and  O_17
REMARK    4  A    between atoms: O_17  and  C_18
REMARK    5  A    between atoms: C_21  and  N_24
REMARK    6  A    between atoms: N_29  and  C_30
REMARK                            x       y       z     vdW  Elec       q    Type
REMARK                         _______ _______ _______ _____ _____    ______ ____
ROOT
ATOM      4  C   UNL     1      -9.591 -10.094  12.991  0.00  0.00    +0.156 C 
ATOM      5  C   UNL     1      -8.955  -9.569  12.983  0.00  0.00    +0.166 C 
ATOM      6  O   UNL     1      -8.923  -9.198  13.719  0.00  0.00    -0.350 OA
ATOM      7  C   UNL     1      -9.538  -9.493  14.181  0.00  0.00    +0.169 C 
ATOM      8  C   UNL     1      -9.899  -9.448  14.922  0.00  0.00    +0.170 C 
ATOM      9  C   UNL     1     -10.534  -9.974  14.930  0.00  0.00    +0.169 C 
ATOM     10  O   UNL     1     -10.566 -10.345  14.194  0.00  0.00    -0.350 OA
ATOM     11  C   UNL     1      -9.950 -10.048  13.731  0.00  0.00    +0.167 C 
ENDROOT
BRANCH   8  12
ATOM     12  N   UNL     1      -9.664  -8.961  15.546  0.00  0.00    -0.180 N 
ATOM     13  N   UNL     1      -9.825  -8.154  15.619  0.00  0.00    -0.040 NA
ATOM     14  N   UNL     1      -9.488  -7.890  16.324  0.00  0.00    -0.020 NA
ATOM     15  N   UNL     1      -9.120  -8.533  16.686  0.00  0.00    -0.071 NA
ATOM     16  C   UNL     1      -9.229  -9.194  16.205  0.00  0.00    +0.343 A 
BRANCH  16  17
ATOM     17  O   UNL     1      -8.950  -9.956  16.358  0.00  0.00    -0.421 OA
BRANCH  17  18
ATOM     18  C   UNL     1      -8.429 -10.087  16.985  0.00  0.00    +0.149 A 
ATOM     19  C   UNL     1      -8.723 -10.248  17.739  0.00  0.00    +0.039 A 
ATOM     20  C   UNL     1      -8.204 -10.379  18.365  0.00  0.00    +0.022 A 
ATOM     21  C   UNL     1      -7.389 -10.348  18.238  0.00  0.00    +0.085 A 
ATOM     22  C   UNL     1      -7.094 -10.187  17.484  0.00  0.00    +0.022 A 
ATOM     23  C   UNL     1      -7.615 -10.056  16.858  0.00  0.00    +0.039 A 
BRANCH  21  24
ATOM     24  N   UNL     1      -6.868 -10.479  18.865  0.00  0.00    -0.208 N 
ATOM     25  C   UNL     1      -6.046 -10.409  18.833  0.00  0.00    +0.202 A 
ATOM     26  N   UNL     1      -5.746 -10.589  19.581  0.00  0.00    -0.200 NA
ATOM     27  C   UNL     1      -6.383 -10.771  20.073  0.00  0.00    +0.221 A 
ATOM     28  N   UNL     1      -7.076 -10.702  19.630  0.00  0.00    -0.141 NA
ENDBRANCH  21  24
ENDBRANCH  17  18
ENDBRANCH  16  17
ENDBRANCH   8  12
BRANCH   4   3
ATOM      1  O   UNL     1      -9.585  -9.516  11.446  0.00  0.00    -0.249 OA
ATOM      2  C   UNL     1      -9.822 -10.292  11.594  0.00  0.00    +0.344 C 
ATOM      3  N   UNL     1      -9.825 -10.582  12.367  0.00  0.00    -0.184 NA
ATOM     29  N   UNL     1     -10.056 -10.779  10.971  0.00  0.00    -0.161 NA
BRANCH  29  30
ATOM     30  C   UNL     1     -10.054 -10.490  10.198  0.00  0.00    +0.075 A 
ATOM     31  C   UNL     1     -10.713 -10.091   9.904  0.00  0.00    +0.017 A 
ATOM     32  C   UNL     1     -10.711  -9.802   9.132  0.00  0.00    +0.001 A 
ATOM     33  C   UNL     1     -10.048  -9.912   8.652  0.00  0.00    +0.000 A 
ATOM     34  C   UNL     1      -9.388 -10.311   8.946  0.00  0.00    +0.001 A 
ATOM     35  C   UNL     1      -9.392 -10.600   9.719  0.00  0.00    +0.017 A 
ENDBRANCH  29  30
ENDBRANCH   4   3
TORSDOF 6
ENDMDL
