MODEL 1
REMARK VINA RESULT:      -6.5      0.000      0.000
REMARK  Name = 
REMARK  8 active torsions:
REMARK  status: ('A' for Active; 'I' for Inactive)
REMARK    1  A    between atoms: O_2  and  C_3
REMARK    2  A    between atoms: C_6  and  S_9
REMARK    3  A    between atoms: S_9  and  N_12
REMARK    4  A    between atoms: N_12  and  C_13
REMARK    5  A    between atoms: C_13  and  C_14
REMARK    6  A    between atoms: C_18  and  C_19
REMARK    7  A    between atoms: C_19  and  C_20
REMARK    8  A    between atoms: C_35  and  C_36
REMARK                            x       y       z     vdW  Elec       q    Type
REMARK                         _______ _______ _______ _____ _____    ______ ____
ROOT
ATOM     14  C   UNL     1      -1.250   0.925  24.203  0.00  0.00    +0.041 C 
ATOM     15  C   UNL     1      -1.327   0.138  23.968  0.00  0.00    -0.033 C 
ATOM     16  C   UNL     1      -0.666  -0.282  23.712  0.00  0.00    -0.048 C 
ATOM     17  C   UNL     1      -0.743  -1.070  23.477  0.00  0.00    +0.026 C 
ATOM     18  C   UNL     1       0.073   0.083  23.691  0.00  0.00    +0.027 C 
ATOM     34  C   UNL     1       0.151   0.871  23.926  0.00  0.00    +0.005 C 
ATOM     35  C   UNL     1      -0.510   1.291  24.182  0.00  0.00    +0.006 C 
ENDROOT
BRANCH  35  36
ATOM     36  C   UNL     1      -0.434   2.078  24.417  0.00  0.00    +0.000 C 
ATOM     37  C   UNL     1      -0.542   2.685  23.869  0.00  0.00    +0.000 C 
ATOM     38  C   UNL     1      -0.248   2.257  25.200  0.00  0.00    +0.000 C 
ENDBRANCH  35  36
BRANCH  14  13
ATOM     13  C   UNL     1      -1.912   1.346  24.460  0.00  0.00    +0.120 C 
BRANCH  13  12
ATOM     12  N   UNL     1      -2.665   1.016  24.386  0.00  0.00    -0.077 NA
BRANCH  12   9
ATOM      9  S   UNL     1      -3.328   1.447  24.618  0.00  0.00    +0.077 S 
ATOM     10  O   UNL     1      -3.437   1.697  23.840  0.00  0.00    -0.152 OA
ATOM     11  O   UNL     1      -3.219   1.196  25.396  0.00  0.00    -0.152 OA
BRANCH   9   6
ATOM      3  C   UNL     1      -5.319   2.741  25.314  0.00  0.00    +0.139 A 
ATOM      4  C   UNL     1      -5.363   1.919  25.252  0.00  0.00    +0.038 A 
ATOM      5  C   UNL     1      -4.699   1.488  25.020  0.00  0.00    +0.023 A 
ATOM      6  C   UNL     1      -3.993   1.879  24.850  0.00  0.00    +0.124 A 
ATOM      7  C   UNL     1      -3.950   2.699  24.912  0.00  0.00    +0.023 A 
ATOM      8  C   UNL     1      -4.613   3.131  25.144  0.00  0.00    +0.038 A 
BRANCH   3   2
ATOM      1  C   UNL     1      -5.938   3.993  25.618  0.00  0.00    +0.252 C 
ATOM      2  O   UNL     1      -5.984   3.173  25.546  0.00  0.00    -0.471 OA
ENDBRANCH   3   2
ENDBRANCH   9   6
ENDBRANCH  12   9
ENDBRANCH  13  12
ENDBRANCH  14  13
BRANCH  18  19
ATOM     19  C   UNL     1       0.735  -0.338  23.434  0.00  0.00    +0.089 C 
BRANCH  19  20
ATOM     20  C   UNL     1       1.237  -0.012  22.866  0.00  0.00    +0.226 C 
ATOM     21  O   UNL     1       0.920   0.350  22.195  0.00  0.00    -0.275 OA
ATOM     22  N   UNL     1       2.055  -0.049  22.969  0.00  0.00    -0.276 N 
ATOM     23  C   UNL     1       2.556   0.277  22.400  0.00  0.00    +0.115 C 
ATOM     24  C   UNL     1       3.374   0.241  22.502  0.00  0.00    +0.114 C 
ATOM     25  N   UNL     1       3.690  -0.121  23.173  0.00  0.00    -0.290 N 
ATOM     26  C   UNL     1       3.189  -0.447  23.741  0.00  0.00    +0.114 C 
ATOM     27  C   UNL     1       2.371  -0.410  23.639  0.00  0.00    +0.115 C 
ATOM     28  C   UNL     1       4.507  -0.157  23.275  0.00  0.00    +0.132 A 
ATOM     29  N   UNL     1       5.010   0.169  22.706  0.00  0.00    -0.229 NA
ATOM     30  C   UNL     1       5.827   0.132  22.809  0.00  0.00    +0.100 A 
ATOM     31  C   UNL     1       6.144  -0.230  23.480  0.00  0.00    +0.021 A 
ATOM     32  C   UNL     1       5.642  -0.555  24.047  0.00  0.00    +0.004 A 
ATOM     33  C   UNL     1       4.824  -0.519  23.945  0.00  0.00    +0.034 A 
ENDBRANCH  19  20
ENDBRANCH  18  19
TORSDOF 8
ENDMDL
MODEL 2
REMARK VINA RESULT:      -6.2      1.728      7.694
REMARK  Name = 
REMARK  8 active torsions:
REMARK  status: ('A' for Active; 'I' for Inactive)
REMARK    1  A    between atoms: O_2  and  C_3
REMARK    2  A    between atoms: C_6  and  S_9
REMARK    3  A    between atoms: S_9  and  N_12
REMARK    4  A    between atoms: N_12  and  C_13
REMARK    5  A    between atoms: C_13  and  C_14
REMARK    6  A    between atoms: C_18  and  C_19
REMARK    7  A    between atoms: C_19  and  C_20
REMARK    8  A    between atoms: C_35  and  C_36
REMARK                            x       y       z     vdW  Elec       q    Type
REMARK                         _______ _______ _______ _____ _____    ______ ____
ROOT
ATOM     14  C   UNL     1       0.582   0.942  23.695  0.00  0.00    +0.041 C 
ATOM     15  C   UNL     1       0.577   1.766  23.729  0.00  0.00    -0.033 C 
ATOM     16  C   UNL     1      -0.117   2.167  23.921  0.00  0.00    -0.048 C 
ATOM     17  C   UNL     1      -0.121   2.992  23.954  0.00  0.00    +0.026 C 
ATOM     18  C   UNL     1      -0.808   1.745  24.078  0.00  0.00    +0.027 C 
ATOM     34  C   UNL     1      -0.803   0.920  24.044  0.00  0.00    +0.005 C 
ATOM     35  C   UNL     1      -0.109   0.519  23.853  0.00  0.00    +0.006 C 
ENDROOT
BRANCH  35  36
ATOM     36  C   UNL     1      -0.104  -0.305  23.819  0.00  0.00    +0.000 C 
ATOM     37  C   UNL     1      -0.012  -0.747  24.510  0.00  0.00    +0.000 C 
ATOM     38  C   UNL     1      -0.190  -0.688  23.094  0.00  0.00    +0.000 C 
ENDBRANCH  35  36
BRANCH  14  13
ATOM     13  C   UNL     1       1.277   0.541  23.504  0.00  0.00    +0.120 C 
BRANCH  13  12
ATOM     12  N   UNL     1       1.829   0.889  22.998  0.00  0.00    -0.077 NA
BRANCH  12   9
ATOM      9  S   UNL     1       2.621   0.661  23.032  0.00  0.00    +0.077 S 
ATOM     10  O   UNL     1       2.483   0.097  22.446  0.00  0.00    -0.152 OA
ATOM     11  O   UNL     1       2.758   1.226  23.618  0.00  0.00    -0.152 OA
BRANCH   9   6
ATOM      3  C   UNL     1       4.997  -0.023  23.133  0.00  0.00    +0.139 A 
ATOM      4  C   UNL     1       4.404  -0.561  23.335  0.00  0.00    +0.038 A 
ATOM      5  C   UNL     1       3.612  -0.333  23.302  0.00  0.00    +0.023 A 
ATOM      6  C   UNL     1       3.414   0.433  23.066  0.00  0.00    +0.124 A 
ATOM      7  C   UNL     1       4.006   0.970  22.864  0.00  0.00    +0.023 A 
ATOM      8  C   UNL     1       4.798   0.741  22.898  0.00  0.00    +0.038 A 
BRANCH   3   2
ATOM      1  C   UNL     1       6.153  -0.371  23.897  0.00  0.00    +0.252 C 
ATOM      2  O   UNL     1       5.790  -0.251  23.167  0.00  0.00    -0.471 OA
ENDBRANCH   3   2
ENDBRANCH   9   6
ENDBRANCH  12   9
ENDBRANCH  13  12
ENDBRANCH  14  13
BRANCH  18  19
ATOM     19  C   UNL     1      -1.502   2.146  24.270  0.00  0.00    +0.089 C 
BRANCH  19  20
ATOM     20  C   UNL     1      -2.168   2.073  23.787  0.00  0.00    +0.226 C 
ATOM     21  O   UNL     1      -2.077   1.996  22.970  0.00  0.00    -0.275 OA
ATOM     22  N   UNL     1      -2.922   2.078  24.120  0.00  0.00    -0.276 N 
ATOM     23  C   UNL     1      -3.587   2.005  23.636  0.00  0.00    +0.115 C 
ATOM     24  C   UNL     1      -4.341   2.010  23.970  0.00  0.00    +0.114 C 
ATOM     25  N   UNL     1      -4.431   2.087  24.786  0.00  0.00    -0.290 N 
ATOM     26  C   UNL     1      -3.767   2.159  25.269  0.00  0.00    +0.114 C 
ATOM     27  C   UNL     1      -3.012   2.155  24.936  0.00  0.00    +0.115 C 
ATOM     28  C   UNL     1      -5.185   2.091  25.120  0.00  0.00    +0.132 A 
ATOM     29  N   UNL     1      -5.851   2.019  24.636  0.00  0.00    -0.229 NA
ATOM     30  C   UNL     1      -6.605   2.023  24.969  0.00  0.00    +0.100 A 
ATOM     31  C   UNL     1      -6.696   2.100  25.787  0.00  0.00    +0.021 A 
ATOM     32  C   UNL     1      -6.031   2.173  26.269  0.00  0.00    +0.004 A 
ATOM     33  C   UNL     1      -5.276   2.168  25.936  0.00  0.00    +0.034 A 
ENDBRANCH  19  20
ENDBRANCH  18  19
TORSDOF 8
ENDMDL
