MODEL 1
REMARK VINA RESULT:      -9.6      0.000      0.000
REMARK  Name = 
REMARK  8 active torsions:
REMARK  status: ('A' for Active; 'I' for Inactive)
REMARK    1  A    between atoms: C_2  and  O_3
REMARK    2  A    between atoms: O_3  and  C_4
REMARK    3  A    between atoms: C_4  and  C_6
REMARK    4  A    between atoms: C_6  and  C_7
REMARK    5  A    between atoms: C_9  and  C_10
REMARK    6  A    between atoms: C_13  and  C_14
REMARK    7  A    between atoms: C_14  and  N_15
REMARK    8  A    between atoms: C_16  and  C_18
REMARK                            x       y       z     vdW  Elec       q    Type
REMARK                         _______ _______ _______ _____ _____    ______ ____
ROOT
ATOM      7  C   UNL     1      -2.924   0.461  24.697  0.00  0.00    +0.029 C 
ATOM      8  C   UNL     1      -3.652   0.846  24.648  0.00  0.00    +0.005 C 
ATOM      9  C   UNL     1      -3.700   1.656  24.796  0.00  0.00    +0.006 C 
ATOM     13  C   UNL     1      -3.022   2.081  24.992  0.00  0.00    +0.043 C 
ATOM     21  C   UNL     1      -2.294   1.696  25.041  0.00  0.00    -0.033 C 
ATOM     22  C   UNL     1      -2.245   0.885  24.893  0.00  0.00    -0.048 C 
ATOM     23  C   UNL     1      -1.517   0.501  24.942  0.00  0.00    +0.026 C 
ENDROOT
BRANCH   9  10
ATOM     10  C   UNL     1      -4.429   2.041  24.747  0.00  0.00    +0.000 C 
ATOM     11  C   UNL     1      -4.663   2.391  24.037  0.00  0.00    +0.000 C 
ATOM     12  C   UNL     1      -4.922   2.077  25.407  0.00  0.00    +0.000 C 
ENDBRANCH   9  10
BRANCH   7   6
ATOM      6  C   UNL     1      -2.876  -0.349  24.549  0.00  0.00    +0.114 C 
BRANCH   6   4
ATOM      4  C   UNL     1      -3.465  -0.855  24.830  0.00  0.00    +0.317 C 
ATOM      5  O   UNL     1      -3.572  -0.952  25.641  0.00  0.00    -0.250 OA
BRANCH   4   3
ATOM      3  O   UNL     1      -3.945  -1.263  24.298  0.00  0.00    -0.448 OA
BRANCH   3   2
ATOM      1  C   UNL     1      -4.347  -2.498  23.701  0.00  0.00    +0.051 C 
ATOM      2  C   UNL     1      -3.952  -2.088  24.299  0.00  0.00    +0.209 C 
ENDBRANCH   3   2
ENDBRANCH   4   3
ENDBRANCH   6   4
ENDBRANCH   7   6
BRANCH  13  14
ATOM     14  C   UNL     1      -3.071   2.891  25.140  0.00  0.00    +0.119 C 
BRANCH  14  15
ATOM     15  N   UNL     1      -2.428   3.381  24.972  0.00  0.00    -0.205 NA
ATOM     16  C   UNL     1      -2.345   4.101  25.365  0.00  0.00    +0.241 C 
ATOM     17  O   UNL     1      -2.904   4.333  25.926  0.00  0.00    -0.273 OA
BRANCH  16  18
ATOM     18  C   UNL     1      -1.701   4.591  25.197  0.00  0.00    +0.078 C 
ATOM     19  C   UNL     1      -0.897   4.684  25.042  0.00  0.00    +0.010 C 
ATOM     20  C   UNL     1      -1.393   5.343  25.061  0.00  0.00    +0.010 C 
ENDBRANCH  16  18
ENDBRANCH  14  15
ENDBRANCH  13  14
TORSDOF 8
ENDMDL
MODEL 2
REMARK VINA RESULT:      -9.5      1.101      4.949
REMARK  Name = 
REMARK  8 active torsions:
REMARK  status: ('A' for Active; 'I' for Inactive)
REMARK    1  A    between atoms: C_2  and  O_3
REMARK    2  A    between atoms: O_3  and  C_4
REMARK    3  A    between atoms: C_4  and  C_6
REMARK    4  A    between atoms: C_6  and  C_7
REMARK    5  A    between atoms: C_9  and  C_10
REMARK    6  A    between atoms: C_13  and  C_14
REMARK    7  A    between atoms: C_14  and  N_15
REMARK    8  A    between atoms: C_16  and  C_18
REMARK                            x       y       z     vdW  Elec       q    Type
REMARK                         _______ _______ _______ _____ _____    ______ ____
ROOT
ATOM      7  C   UNL     1      -2.951   2.340  24.738  0.00  0.00    +0.029 C 
ATOM      8  C   UNL     1      -2.179   2.055  24.811  0.00  0.00    +0.005 C 
ATOM      9  C   UNL     1      -2.038   1.242  24.804  0.00  0.00    +0.006 C 
ATOM     13  C   UNL     1      -2.666   0.715  24.724  0.00  0.00    +0.043 C 
ATOM     21  C   UNL     1      -3.437   0.999  24.651  0.00  0.00    -0.033 C 
ATOM     22  C   UNL     1      -3.579   1.813  24.658  0.00  0.00    -0.048 C 
ATOM     23  C   UNL     1      -4.350   2.097  24.585  0.00  0.00    +0.026 C 
ENDROOT
BRANCH   9  10
ATOM     10  C   UNL     1      -1.266   0.958  24.876  0.00  0.00    +0.000 C 
ATOM     11  C   UNL     1      -0.967   0.766  25.621  0.00  0.00    +0.000 C 
ATOM     12  C   UNL     1      -0.796   0.864  24.205  0.00  0.00    +0.000 C 
ENDBRANCH   9  10
BRANCH   7   6
ATOM      6  C   UNL     1      -3.092   3.153  24.745  0.00  0.00    +0.114 C 
BRANCH   6   4
ATOM      4  C   UNL     1      -2.655   3.642  25.246  0.00  0.00    +0.317 C 
ATOM      5  O   UNL     1      -2.833   3.675  26.049  0.00  0.00    -0.250 OA
BRANCH   4   3
ATOM      3  O   UNL     1      -2.040   4.099  24.940  0.00  0.00    -0.448 OA
BRANCH   3   2
ATOM      1  C   UNL     1      -1.230   5.275  24.992  0.00  0.00    +0.051 C 
ATOM      2  C   UNL     1      -1.863   4.830  25.279  0.00  0.00    +0.209 C 
ENDBRANCH   3   2
ENDBRANCH   4   3
ENDBRANCH   6   4
ENDBRANCH   7   6
BRANCH  13  14
ATOM     14  C   UNL     1      -2.524  -0.098  24.717  0.00  0.00    +0.119 C 
BRANCH  14  15
ATOM     15  N   UNL     1      -3.105  -0.616  24.443  0.00  0.00    -0.205 NA
ATOM     16  C   UNL     1      -3.011  -1.429  24.540  0.00  0.00    +0.241 C 
ATOM     17  O   UNL     1      -2.336  -1.726  24.910  0.00  0.00    -0.273 OA
BRANCH  16  18
ATOM     18  C   UNL     1      -3.593  -1.948  24.267  0.00  0.00    +0.078 C 
ATOM     19  C   UNL     1      -3.913  -2.707  24.231  0.00  0.00    +0.010 C 
ATOM     20  C   UNL     1      -4.278  -2.086  23.829  0.00  0.00    +0.010 C 
ENDBRANCH  16  18
ENDBRANCH  14  15
ENDBRANCH  13  14
TORSDOF 8
ENDMDL
MODEL 3
REMARK VINA RESULT:      -9.4      1.312      4.661
REMARK  Name = 
REMARK  8 active torsions:
REMARK  status: ('A' for Active; 'I' for Inactive)
REMARK    1  A    between atoms: C_2  and  O_3
REMARK    2  A    between atoms: O_3  and  C_4
REMARK    3  A    between atoms: C_4  and  C_6
REMARK    4  A    between atoms: C_6  and  C_7
REMARK    5  A    between atoms: C_9  and  C_10
REMARK    6  A    between atoms: C_13  and  C_14
REMARK    7  A    between atoms: C_14  and  N_15
REMARK    8  A    between atoms: C_16  and  C_18
REMARK                            x       y       z     vdW  Elec       q    Type
REMARK                         _______ _______ _______ _____ _____    ______ ____
ROOT
ATOM      7  C   UNL     1      -1.797   1.956  25.144  0.00  0.00    +0.029 C 
ATOM      8  C   UNL     1      -2.547   2.179  24.883  0.00  0.00    +0.005 C 
ATOM      9  C   UNL     1      -3.092   1.603  24.654  0.00  0.00    +0.006 C 
ATOM     13  C   UNL     1      -2.887   0.805  24.688  0.00  0.00    +0.043 C 
ATOM     21  C   UNL     1      -2.137   0.582  24.949  0.00  0.00    -0.033 C 
ATOM     22  C   UNL     1      -1.592   1.158  25.178  0.00  0.00    -0.048 C 
ATOM     23  C   UNL     1      -0.842   0.935  25.439  0.00  0.00    +0.026 C 
ENDROOT
BRANCH   9  10
ATOM     10  C   UNL     1      -3.842   1.826  24.393  0.00  0.00    +0.000 C 
ATOM     11  C   UNL     1      -3.967   1.996  23.595  0.00  0.00    +0.000 C 
ATOM     12  C   UNL     1      -4.467   1.879  24.929  0.00  0.00    +0.000 C 
ENDBRANCH   9  10
BRANCH   7   6
ATOM      6  C   UNL     1      -1.252   2.532  25.373  0.00  0.00    +0.114 C 
BRANCH   6   4
ATOM      4  C   UNL     1      -1.129   3.195  24.896  0.00  0.00    +0.317 C 
ATOM      5  O   UNL     1      -0.717   3.121  24.186  0.00  0.00    -0.250 OA
BRANCH   4   3
ATOM      3  O   UNL     1      -1.420   3.930  25.131  0.00  0.00    -0.448 OA
BRANCH   3   2
ATOM      1  C   UNL     1      -1.345   5.351  24.998  0.00  0.00    +0.051 C 
ATOM      2  C   UNL     1      -0.977   4.612  24.988  0.00  0.00    +0.209 C 
ENDBRANCH   3   2
ENDBRANCH   4   3
ENDBRANCH   6   4
ENDBRANCH   7   6
BRANCH  13  14
ATOM     14  C   UNL     1      -3.432   0.229  24.459  0.00  0.00    +0.119 C 
BRANCH  14  15
ATOM     15  N   UNL     1      -3.287  -0.566  24.625  0.00  0.00    -0.205 NA
ATOM     16  C   UNL     1      -3.793  -1.147  24.333  0.00  0.00    +0.241 C 
ATOM     17  O   UNL     1      -4.445  -0.935  23.874  0.00  0.00    -0.273 OA
BRANCH  16  18
ATOM     18  C   UNL     1      -3.647  -1.943  24.499  0.00  0.00    +0.078 C 
ATOM     19  C   UNL     1      -3.594  -2.727  24.248  0.00  0.00    +0.010 C 
ATOM     20  C   UNL     1      -3.448  -2.535  25.037  0.00  0.00    +0.010 C 
ENDBRANCH  16  18
ENDBRANCH  14  15
ENDBRANCH  13  14
TORSDOF 8
ENDMDL
MODEL 4
REMARK VINA RESULT:      -8.8      2.017      3.379
REMARK  Name = 
REMARK  8 active torsions:
REMARK  status: ('A' for Active; 'I' for Inactive)
REMARK    1  A    between atoms: C_2  and  O_3
REMARK    2  A    between atoms: O_3  and  C_4
REMARK    3  A    between atoms: C_4  and  C_6
REMARK    4  A    between atoms: C_6  and  C_7
REMARK    5  A    between atoms: C_9  and  C_10
REMARK    6  A    between atoms: C_13  and  C_14
REMARK    7  A    between atoms: C_14  and  N_15
REMARK    8  A    between atoms: C_16  and  C_18
REMARK                            x       y       z     vdW  Elec       q    Type
REMARK                         _______ _______ _______ _____ _____    ______ ____
ROOT
ATOM      7  C   UNL     1      -1.600   0.380  24.940  0.00  0.00    +0.029 C 
ATOM      8  C   UNL     1      -2.132  -0.242  24.832  0.00  0.00    +0.005 C 
ATOM      9  C   UNL     1      -2.942  -0.091  24.806  0.00  0.00    +0.006 C 
ATOM     13  C   UNL     1      -3.221   0.680  24.887  0.00  0.00    +0.043 C 
ATOM     21  C   UNL     1      -2.691   1.302  24.995  0.00  0.00    -0.033 C 
ATOM     22  C   UNL     1      -1.879   1.151  25.021  0.00  0.00    -0.048 C 
ATOM     23  C   UNL     1      -1.348   1.773  25.129  0.00  0.00    +0.026 C 
ENDROOT
BRANCH   9  10
ATOM     10  C   UNL     1      -3.474  -0.714  24.698  0.00  0.00    +0.000 C 
ATOM     11  C   UNL     1      -3.733  -1.151  25.348  0.00  0.00    +0.000 C 
ATOM     12  C   UNL     1      -3.746  -0.898  23.942  0.00  0.00    +0.000 C 
ENDBRANCH   9  10
BRANCH   7   6
ATOM      6  C   UNL     1      -0.790   0.229  24.966  0.00  0.00    +0.114 C 
BRANCH   6   4
ATOM      4  C   UNL     1      -0.458  -0.331  24.458  0.00  0.00    +0.317 C 
ATOM      5  O   UNL     1      -0.435  -1.125  24.679  0.00  0.00    -0.250 OA
BRANCH   4   3
ATOM      3  O   UNL     1      -0.150  -0.096  23.730  0.00  0.00    -0.448 OA
BRANCH   3   2
ATOM      1  C   UNL     1       0.940  -0.087  22.807  0.00  0.00    +0.051 C 
ATOM      2  C   UNL     1       0.558  -0.419  23.459  0.00  0.00    +0.209 C 
ENDBRANCH   3   2
ENDBRANCH   4   3
ENDBRANCH   6   4
ENDBRANCH   7   6
BRANCH  13  14
ATOM     14  C   UNL     1      -4.033   0.830  24.861  0.00  0.00    +0.119 C 
BRANCH  14  15
ATOM     15  N   UNL     1      -4.339   1.507  25.220  0.00  0.00    -0.205 NA
ATOM     16  C   UNL     1      -5.117   1.735  25.073  0.00  0.00    +0.241 C 
ATOM     17  O   UNL     1      -5.591   1.287  24.568  0.00  0.00    -0.273 OA
BRANCH  16  18
ATOM     18  C   UNL     1      -5.424   2.413  25.433  0.00  0.00    +0.078 C 
ATOM     19  C   UNL     1      -5.885   2.763  26.020  0.00  0.00    +0.010 C 
ATOM     20  C   UNL     1      -5.492   3.234  25.468  0.00  0.00    +0.010 C 
ENDBRANCH  16  18
ENDBRANCH  14  15
ENDBRANCH  13  14
TORSDOF 8
ENDMDL
MODEL 5
REMARK VINA RESULT:      -8.4      2.340      3.937
REMARK  Name = 
REMARK  8 active torsions:
REMARK  status: ('A' for Active; 'I' for Inactive)
REMARK    1  A    between atoms: C_2  and  O_3
REMARK    2  A    between atoms: O_3  and  C_4
REMARK    3  A    between atoms: C_4  and  C_6
REMARK    4  A    between atoms: C_6  and  C_7
REMARK    5  A    between atoms: C_9  and  C_10
REMARK    6  A    between atoms: C_13  and  C_14
REMARK    7  A    between atoms: C_14  and  N_15
REMARK    8  A    between atoms: C_16  and  C_18
REMARK                            x       y       z     vdW  Elec       q    Type
REMARK                         _______ _______ _______ _____ _____    ______ ____
ROOT
ATOM      7  C   UNL     1      -3.196   2.895  24.221  0.00  0.00    +0.029 C 
ATOM      8  C   UNL     1      -2.668   3.244  24.751  0.00  0.00    +0.005 C 
ATOM      9  C   UNL     1      -1.882   2.993  24.775  0.00  0.00    +0.006 C 
ATOM     13  C   UNL     1      -1.625   2.395  24.270  0.00  0.00    +0.043 C 
ATOM     21  C   UNL     1      -2.152   2.046  23.740  0.00  0.00    -0.033 C 
ATOM     22  C   UNL     1      -2.939   2.297  23.716  0.00  0.00    -0.048 C 
ATOM     23  C   UNL     1      -3.466   1.948  23.187  0.00  0.00    +0.026 C 
ENDROOT
BRANCH   9  10
ATOM     10  C   UNL     1      -1.354   3.342  25.305  0.00  0.00    +0.000 C 
ATOM     11  C   UNL     1      -0.949   4.028  25.090  0.00  0.00    +0.000 C 
ATOM     12  C   UNL     1      -1.231   3.005  26.047  0.00  0.00    +0.000 C 
ENDBRANCH   9  10
BRANCH   7   6
ATOM      6  C   UNL     1      -3.981   3.146  24.198  0.00  0.00    +0.114 C 
BRANCH   6   4
ATOM      4  C   UNL     1      -4.391   3.285  24.902  0.00  0.00    +0.317 C 
ATOM      5  O   UNL     1      -4.391   4.039  25.235  0.00  0.00    -0.250 OA
BRANCH   4   3
ATOM      3  O   UNL     1      -4.798   2.670  25.270  0.00  0.00    -0.448 OA
BRANCH   3   2
ATOM      1  C   UNL     1      -5.959   2.197  25.957  0.00  0.00    +0.051 C 
ATOM      2  C   UNL     1      -5.509   2.823  25.659  0.00  0.00    +0.209 C 
ENDBRANCH   3   2
ENDBRANCH   4   3
ENDBRANCH   6   4
ENDBRANCH   7   6
BRANCH  13  14
ATOM     14  C   UNL     1      -0.838   2.145  24.293  0.00  0.00    +0.119 C 
BRANCH  14  15
ATOM     15  N   UNL     1      -0.634   1.398  24.008  0.00  0.00    -0.205 NA
ATOM     16  C   UNL     1       0.159   1.200  23.902  0.00  0.00    +0.241 C 
ATOM     17  O   UNL     1       0.749   1.748  24.081  0.00  0.00    -0.273 OA
BRANCH  16  18
ATOM     18  C   UNL     1       0.363   0.453  23.616  0.00  0.00    +0.078 C 
ATOM     19  C   UNL     1       0.783  -0.018  23.085  0.00  0.00    +0.010 C 
ATOM     20  C   UNL     1       0.297  -0.368  23.653  0.00  0.00    +0.010 C 
ENDBRANCH  16  18
ENDBRANCH  14  15
ENDBRANCH  13  14
TORSDOF 8
ENDMDL
