MODEL 1
REMARK VINA RESULT:      -8.7      0.000      0.000
REMARK  Name = 
REMARK  8 active torsions:
REMARK  status: ('A' for Active; 'I' for Inactive)
REMARK    1  A    between atoms: O_2  and  C_3
REMARK    2  A    between atoms: C_3  and  C_4
REMARK    3  A    between atoms: C_6  and  C_7
REMARK    4  A    between atoms: C_7  and  C_8
REMARK    5  A    between atoms: C_8  and  N_12
REMARK    6  A    between atoms: N_12  and  C_13
REMARK    7  A    between atoms: C_13  and  C_14
REMARK    8  A    between atoms: C_19  and  O_20
REMARK                            x       y       z     vdW  Elec       q    Type
REMARK                         _______ _______ _______ _____ _____    ______ ____
ROOT
ATOM      8  C   UNL     1      -4.555   1.494  24.750  0.00  0.00    +0.120 C 
ATOM      9  C   UNL     1      -5.256   1.205  25.078  0.00  0.00    +0.161 C 
ATOM     10  O   UNL     1      -5.660   1.867  24.797  0.00  0.00    -0.351 OA
ATOM     11  C   UNL     1      -4.961   2.156  24.469  0.00  0.00    +0.161 C 
ENDROOT
BRANCH   8   7
ATOM      7  C   UNL     1      -3.856   1.783  24.423  0.00  0.00    +0.070 C 
BRANCH   7   6
ATOM      4  C   UNL     1      -2.555   3.354  25.054  0.00  0.00    +0.184 A 
ATOM      5  C   UNL     1      -2.733   2.723  24.553  0.00  0.00    +0.056 A 
ATOM      6  C   UNL     1      -3.466   2.418  24.776  0.00  0.00    +0.102 A 
ATOM     22  N   UNL     1      -3.742   2.860  25.416  0.00  0.00    -0.082 NA
ATOM     23  O   UNL     1      -3.178   3.438  25.587  0.00  0.00    -0.356 OA
BRANCH   4   3
ATOM      3  C   UNL     1      -1.874   3.818  25.027  0.00  0.00    +0.209 C 
BRANCH   3   2
ATOM      1  C   UNL     1      -1.252   5.103  25.066  0.00  0.00    +0.175 C 
ATOM      2  O   UNL     1      -1.923   4.631  25.154  0.00  0.00    -0.343 OA
ENDBRANCH   3   2
ENDBRANCH   4   3
ENDBRANCH   7   6
ENDBRANCH   8   7
BRANCH   8  12
ATOM     12  N   UNL     1      -4.151   0.832  25.031  0.00  0.00    -0.211 NA
BRANCH  12  13
ATOM     13  C   UNL     1      -4.343   0.082  24.747  0.00  0.00    +0.118 C 
BRANCH  13  14
ATOM     14  C   UNL     1      -3.952  -0.583  25.043  0.00  0.00    +0.029 A 
ATOM     15  C   UNL     1      -3.566  -0.543  25.772  0.00  0.00    +0.000 A 
ATOM     16  C   UNL     1      -3.176  -1.206  26.069  0.00  0.00    -0.000 A 
ATOM     17  C   UNL     1      -3.171  -1.909  25.636  0.00  0.00    +0.003 A 
ATOM     18  C   UNL     1      -3.557  -1.949  24.908  0.00  0.00    +0.037 A 
ATOM     19  C   UNL     1      -3.948  -1.285  24.612  0.00  0.00    +0.136 A 
BRANCH  19  20
ATOM     20  O   UNL     1      -4.334  -1.325  23.884  0.00  0.00    -0.472 OA
ATOM     21  C   UNL     1      -4.389  -2.045  23.486  0.00  0.00    +0.252 C 
ENDBRANCH  19  20
ENDBRANCH  13  14
ENDBRANCH  12  13
ENDBRANCH   8  12
TORSDOF 8
ENDMDL
MODEL 2
REMARK VINA RESULT:      -8.1      1.011      4.487
REMARK  Name = 
REMARK  8 active torsions:
REMARK  status: ('A' for Active; 'I' for Inactive)
REMARK    1  A    between atoms: O_2  and  C_3
REMARK    2  A    between atoms: C_3  and  C_4
REMARK    3  A    between atoms: C_6  and  C_7
REMARK    4  A    between atoms: C_7  and  C_8
REMARK    5  A    between atoms: C_8  and  N_12
REMARK    6  A    between atoms: N_12  and  C_13
REMARK    7  A    between atoms: C_13  and  C_14
REMARK    8  A    between atoms: C_19  and  O_20
REMARK                            x       y       z     vdW  Elec       q    Type
REMARK                         _______ _______ _______ _____ _____    ______ ____
ROOT
ATOM      8  C   UNL     1      -3.928   2.303  24.807  0.00  0.00    +0.120 C 
ATOM      9  C   UNL     1      -4.108   2.902  25.347  0.00  0.00    +0.161 C 
ATOM     10  O   UNL     1      -4.891   2.901  25.085  0.00  0.00    -0.351 OA
ATOM     11  C   UNL     1      -4.711   2.304  24.546  0.00  0.00    +0.161 C 
ENDROOT
BRANCH   8   7
ATOM      7  C   UNL     1      -3.748   1.706  24.268  0.00  0.00    +0.070 C 
BRANCH   7   6
ATOM      4  C   UNL     1      -4.078  -0.402  24.349  0.00  0.00    +0.184 A 
ATOM      5  C   UNL     1      -3.747   0.262  23.989  0.00  0.00    +0.056 A 
ATOM      6  C   UNL     1      -3.960   0.925  24.431  0.00  0.00    +0.102 A 
ATOM     22  N   UNL     1      -4.423   0.672  25.064  0.00  0.00    -0.082 NA
ATOM     23  O   UNL     1      -4.496  -0.149  25.014  0.00  0.00    -0.356 OA
BRANCH   4   3
ATOM      3  C   UNL     1      -4.004  -1.182  24.091  0.00  0.00    +0.209 C 
BRANCH   3   2
ATOM      1  C   UNL     1      -3.703  -2.550  24.369  0.00  0.00    +0.175 C 
ATOM      2  O   UNL     1      -3.853  -1.784  24.634  0.00  0.00    -0.343 OA
ENDBRANCH   3   2
ENDBRANCH   4   3
ENDBRANCH   7   6
ENDBRANCH   8   7
BRANCH   8  12
ATOM     12  N   UNL     1      -3.145   2.304  25.069  0.00  0.00    -0.211 NA
BRANCH  12  13
ATOM     13  C   UNL     1      -2.721   3.010  25.095  0.00  0.00    +0.118 C 
BRANCH  13  14
ATOM     14  C   UNL     1      -1.923   3.004  25.308  0.00  0.00    +0.029 A 
ATOM     15  C   UNL     1      -1.576   2.307  25.580  0.00  0.00    +0.000 A 
ATOM     16  C   UNL     1      -0.779   2.299  25.793  0.00  0.00    -0.000 A 
ATOM     17  C   UNL     1      -0.330   2.989  25.735  0.00  0.00    +0.003 A 
ATOM     18  C   UNL     1      -0.678   3.686  25.463  0.00  0.00    +0.037 A 
ATOM     19  C   UNL     1      -1.475   3.693  25.249  0.00  0.00    +0.136 A 
BRANCH  19  20
ATOM     20  O   UNL     1      -1.822   4.390  24.977  0.00  0.00    -0.472 OA
ATOM     21  C   UNL     1      -1.409   5.102  25.024  0.00  0.00    +0.252 C 
ENDBRANCH  19  20
ENDBRANCH  13  14
ENDBRANCH  12  13
ENDBRANCH   8  12
TORSDOF 8
ENDMDL
MODEL 3
REMARK VINA RESULT:      -8.1      2.037      4.010
REMARK  Name = 
REMARK  8 active torsions:
REMARK  status: ('A' for Active; 'I' for Inactive)
REMARK    1  A    between atoms: O_2  and  C_3
REMARK    2  A    between atoms: C_3  and  C_4
REMARK    3  A    between atoms: C_6  and  C_7
REMARK    4  A    between atoms: C_7  and  C_8
REMARK    5  A    between atoms: C_8  and  N_12
REMARK    6  A    between atoms: N_12  and  C_13
REMARK    7  A    between atoms: C_13  and  C_14
REMARK    8  A    between atoms: C_19  and  O_20
REMARK                            x       y       z     vdW  Elec       q    Type
REMARK                         _______ _______ _______ _____ _____    ______ ____
ROOT
ATOM      8  C   UNL     1      -3.664  -0.741  24.635  0.00  0.00    +0.120 C 
ATOM      9  C   UNL     1      -4.295  -0.805  24.106  0.00  0.00    +0.161 C 
ATOM     10  O   UNL     1      -4.330  -1.617  24.249  0.00  0.00    -0.351 OA
ATOM     11  C   UNL     1      -3.700  -1.553  24.776  0.00  0.00    +0.161 C 
ENDROOT
BRANCH   8   7
ATOM      7  C   UNL     1      -3.034  -0.676  25.163  0.00  0.00    +0.070 C 
BRANCH   7   6
ATOM      4  C   UNL     1      -0.997  -0.969  24.594  0.00  0.00    +0.184 A 
ATOM      5  C   UNL     1      -1.626  -0.473  24.789  0.00  0.00    +0.056 A 
ATOM      6  C   UNL     1      -2.284  -0.945  24.946  0.00  0.00    +0.102 A 
ATOM     22  N   UNL     1      -2.062  -1.733  24.847  0.00  0.00    -0.082 NA
ATOM     23  O   UNL     1      -1.267  -1.748  24.630  0.00  0.00    -0.356 OA
BRANCH   4   3
ATOM      3  C   UNL     1      -0.233  -0.729  24.397  0.00  0.00    +0.209 C 
BRANCH   3   2
ATOM      1  C   UNL     1       0.695  -0.218  23.439  0.00  0.00    +0.175 C 
ATOM      2  O   UNL     1      -0.058  -0.498  23.625  0.00  0.00    -0.343 OA
ENDBRANCH   3   2
ENDBRANCH   4   3
ENDBRANCH   7   6
ENDBRANCH   8   7
BRANCH   8  12
ATOM     12  N   UNL     1      -3.629   0.071  24.493  0.00  0.00    -0.211 NA
BRANCH  12  13
ATOM     13  C   UNL     1      -4.287   0.545  24.646  0.00  0.00    +0.118 C 
BRANCH  13  14
ATOM     14  C   UNL     1      -4.252   1.357  24.502  0.00  0.00    +0.029 A 
ATOM     15  C   UNL     1      -3.712   1.655  23.954  0.00  0.00    +0.000 A 
ATOM     16  C   UNL     1      -3.676   2.467  23.809  0.00  0.00    -0.000 A 
ATOM     17  C   UNL     1      -4.182   2.979  24.213  0.00  0.00    +0.003 A 
ATOM     18  C   UNL     1      -4.722   2.681  24.761  0.00  0.00    +0.037 A 
ATOM     19  C   UNL     1      -4.756   1.869  24.905  0.00  0.00    +0.136 A 
BRANCH  19  20
ATOM     20  O   UNL     1      -5.296   1.571  25.453  0.00  0.00    -0.472 OA
ATOM     21  C   UNL     1      -5.833   2.078  25.820  0.00  0.00    +0.252 C 
ENDBRANCH  19  20
ENDBRANCH  13  14
ENDBRANCH  12  13
ENDBRANCH   8  12
TORSDOF 8
ENDMDL
MODEL 4
REMARK VINA RESULT:      -8.0      1.803      2.458
REMARK  Name = 
REMARK  8 active torsions:
REMARK  status: ('A' for Active; 'I' for Inactive)
REMARK    1  A    between atoms: O_2  and  C_3
REMARK    2  A    between atoms: C_3  and  C_4
REMARK    3  A    between atoms: C_6  and  C_7
REMARK    4  A    between atoms: C_7  and  C_8
REMARK    5  A    between atoms: C_8  and  N_12
REMARK    6  A    between atoms: N_12  and  C_13
REMARK    7  A    between atoms: C_13  and  C_14
REMARK    8  A    between atoms: C_19  and  O_20
REMARK                            x       y       z     vdW  Elec       q    Type
REMARK                         _______ _______ _______ _____ _____    ______ ____
ROOT
ATOM      8  C   UNL     1      -3.508   0.987  24.072  0.00  0.00    +0.120 C 
ATOM      9  C   UNL     1      -3.219   0.843  23.312  0.00  0.00    +0.161 C 
ATOM     10  O   UNL     1      -3.011   1.638  23.240  0.00  0.00    -0.351 OA
ATOM     11  C   UNL     1      -3.299   1.782  23.999  0.00  0.00    +0.161 C 
ENDROOT
BRANCH   8   7
ATOM      7  C   UNL     1      -3.796   1.131  24.831  0.00  0.00    +0.070 C 
BRANCH   7   6
ATOM      4  C   UNL     1      -5.333   2.525  25.333  0.00  0.00    +0.184 A 
ATOM      5  C   UNL     1      -4.551   2.265  25.382  0.00  0.00    +0.056 A 
ATOM      6  C   UNL     1      -4.483   1.576  24.934  0.00  0.00    +0.102 A 
ATOM     22  N   UNL     1      -5.221   1.409  24.608  0.00  0.00    -0.082 NA
ATOM     23  O   UNL     1      -5.747   1.995  24.854  0.00  0.00    -0.356 OA
BRANCH   4   3
ATOM      3  C   UNL     1      -5.646   3.195  25.697  0.00  0.00    +0.209 C 
BRANCH   3   2
ATOM      1  C   UNL     1      -5.904   4.600  25.674  0.00  0.00    +0.175 C 
ATOM      2  O   UNL     1      -5.500   3.943  25.381  0.00  0.00    -0.343 OA
ENDBRANCH   3   2
ENDBRANCH   4   3
ENDBRANCH   7   6
ENDBRANCH   8   7
BRANCH   8  12
ATOM     12  N   UNL     1      -3.716   0.192  24.143  0.00  0.00    -0.211 NA
BRANCH  12  13
ATOM     13  C   UNL     1      -3.127  -0.384  24.201  0.00  0.00    +0.118 C 
BRANCH  13  14
ATOM     14  C   UNL     1      -3.335  -1.182  24.245  0.00  0.00    +0.029 A 
ATOM     15  C   UNL     1      -4.075  -1.430  23.978  0.00  0.00    +0.000 A 
ATOM     16  C   UNL     1      -4.284  -2.227  24.021  0.00  0.00    -0.000 A 
ATOM     17  C   UNL     1      -3.752  -2.776  24.332  0.00  0.00    +0.003 A 
ATOM     18  C   UNL     1      -3.011  -2.527  24.599  0.00  0.00    +0.037 A 
ATOM     19  C   UNL     1      -2.804  -1.730  24.555  0.00  0.00    +0.136 A 
BRANCH  19  20
ATOM     20  O   UNL     1      -2.063  -1.482  24.822  0.00  0.00    -0.472 OA
ATOM     21  C   UNL     1      -1.463  -2.034  24.942  0.00  0.00    +0.252 C 
ENDBRANCH  19  20
ENDBRANCH  13  14
ENDBRANCH  12  13
ENDBRANCH   8  12
TORSDOF 8
ENDMDL
MODEL 5
REMARK VINA RESULT:      -7.8      1.684      4.561
REMARK  Name = 
REMARK  8 active torsions:
REMARK  status: ('A' for Active; 'I' for Inactive)
REMARK    1  A    between atoms: O_2  and  C_3
REMARK    2  A    between atoms: C_3  and  C_4
REMARK    3  A    between atoms: C_6  and  C_7
REMARK    4  A    between atoms: C_7  and  C_8
REMARK    5  A    between atoms: C_8  and  N_12
REMARK    6  A    between atoms: N_12  and  C_13
REMARK    7  A    between atoms: C_13  and  C_14
REMARK    8  A    between atoms: C_19  and  O_20
REMARK                            x       y       z     vdW  Elec       q    Type
REMARK                         _______ _______ _______ _____ _____    ______ ____
ROOT
ATOM      8  C   UNL     1      -2.321   1.357  24.032  0.00  0.00    +0.120 C 
ATOM      9  C   UNL     1      -2.504   1.781  23.347  0.00  0.00    +0.161 C 
ATOM     10  O   UNL     1      -1.754   1.616  23.045  0.00  0.00    -0.351 OA
ATOM     11  C   UNL     1      -1.571   1.193  23.729  0.00  0.00    +0.161 C 
ENDROOT
BRANCH   8   7
ATOM      7  C   UNL     1      -2.138   0.934  24.716  0.00  0.00    +0.070 C 
BRANCH   7   6
ATOM      4  C   UNL     1      -2.324  -1.192  24.762  0.00  0.00    +0.184 A 
ATOM      5  C   UNL     1      -2.642  -0.438  24.869  0.00  0.00    +0.056 A 
ATOM      6  C   UNL     1      -2.058   0.114  24.685  0.00  0.00    +0.102 A 
ATOM     22  N   UNL     1      -1.378  -0.297  24.464  0.00  0.00    -0.082 NA
ATOM     23  O   UNL     1      -1.542  -1.105  24.512  0.00  0.00    -0.356 OA
BRANCH   4   3
ATOM      3  C   UNL     1      -2.717  -1.906  24.884  0.00  0.00    +0.209 C 
BRANCH   3   2
ATOM      1  C   UNL     1      -3.599  -2.928  24.416  0.00  0.00    +0.175 C 
ATOM      2  O   UNL     1      -3.167  -2.239  24.278  0.00  0.00    -0.343 OA
ENDBRANCH   3   2
ENDBRANCH   4   3
ENDBRANCH   7   6
ENDBRANCH   8   7
BRANCH   8  12
ATOM     12  N   UNL     1      -3.071   1.522  24.333  0.00  0.00    -0.211 NA
BRANCH  12  13
ATOM     13  C   UNL     1      -3.295   2.303  24.477  0.00  0.00    +0.118 C 
BRANCH  13  14
ATOM     14  C   UNL     1      -4.039   2.467  24.793  0.00  0.00    +0.029 A 
ATOM     15  C   UNL     1      -4.686   1.997  24.589  0.00  0.00    +0.000 A 
ATOM     16  C   UNL     1      -5.430   2.160  24.905  0.00  0.00    -0.000 A 
ATOM     17  C   UNL     1      -5.528   2.793  25.424  0.00  0.00    +0.003 A 
ATOM     18  C   UNL     1      -4.881   3.264  25.628  0.00  0.00    +0.037 A 
ATOM     19  C   UNL     1      -4.137   3.100  25.312  0.00  0.00    +0.136 A 
BRANCH  19  20
ATOM     20  O   UNL     1      -3.490   3.570  25.516  0.00  0.00    -0.472 OA
ATOM     21  C   UNL     1      -3.560   4.126  26.121  0.00  0.00    +0.252 C 
ENDBRANCH  19  20
ENDBRANCH  13  14
ENDBRANCH  12  13
ENDBRANCH   8  12
TORSDOF 8
ENDMDL
MODEL 6
REMARK VINA RESULT:      -7.7      2.115      2.764
REMARK  Name = 
REMARK  8 active torsions:
REMARK  status: ('A' for Active; 'I' for Inactive)
REMARK    1  A    between atoms: O_2  and  C_3
REMARK    2  A    between atoms: C_3  and  C_4
REMARK    3  A    between atoms: C_6  and  C_7
REMARK    4  A    between atoms: C_7  and  C_8
REMARK    5  A    between atoms: C_8  and  N_12
REMARK    6  A    between atoms: N_12  and  C_13
REMARK    7  A    between atoms: C_13  and  C_14
REMARK    8  A    between atoms: C_19  and  O_20
REMARK                            x       y       z     vdW  Elec       q    Type
REMARK                         _______ _______ _______ _____ _____    ______ ____
ROOT
ATOM      8  C   UNL     1      -0.919   0.781  24.616  0.00  0.00    +0.120 C 
ATOM      9  C   UNL     1      -0.797   0.507  23.846  0.00  0.00    +0.161 C 
ATOM     10  O   UNL     1      -0.004   0.729  23.894  0.00  0.00    -0.351 OA
ATOM     11  C   UNL     1      -0.125   1.002  24.662  0.00  0.00    +0.161 C 
ENDROOT
BRANCH   8   7
ATOM      7  C   UNL     1      -1.040   1.055  25.384  0.00  0.00    +0.070 C 
BRANCH   7   6
ATOM      4  C   UNL     1      -1.130   3.170  25.658  0.00  0.00    +0.184 A 
ATOM      5  C   UNL     1      -1.458   2.464  25.384  0.00  0.00    +0.056 A 
ATOM      6  C   UNL     1      -0.933   1.854  25.560  0.00  0.00    +0.102 A 
ATOM     22  N   UNL     1      -0.279   2.181  25.941  0.00  0.00    -0.082 NA
ATOM     23  O   UNL     1      -0.401   2.995  26.002  0.00  0.00    -0.356 OA
BRANCH   4   3
ATOM      3  C   UNL     1      -1.471   3.919  25.598  0.00  0.00    +0.209 C 
BRANCH   3   2
ATOM      1  C   UNL     1      -1.439   5.256  25.096  0.00  0.00    +0.175 C 
ATOM      2  O   UNL     1      -1.095   4.510  25.162  0.00  0.00    -0.343 OA
ENDBRANCH   3   2
ENDBRANCH   4   3
ENDBRANCH   7   6
ENDBRANCH   8   7
BRANCH   8  12
ATOM     12  N   UNL     1      -1.712   0.559  24.569  0.00  0.00    -0.211 NA
BRANCH  12  13
ATOM     13  C   UNL     1      -1.914  -0.239  24.515  0.00  0.00    +0.118 C 
BRANCH  13  14
ATOM     14  C   UNL     1      -2.706  -0.460  24.451  0.00  0.00    +0.029 A 
ATOM     15  C   UNL     1      -3.283   0.112  24.307  0.00  0.00    +0.000 A 
ATOM     16  C   UNL     1      -4.076  -0.107  24.243  0.00  0.00    -0.000 A 
ATOM     17  C   UNL     1      -4.291  -0.900  24.322  0.00  0.00    +0.003 A 
ATOM     18  C   UNL     1      -3.714  -1.472  24.466  0.00  0.00    +0.037 A 
ATOM     19  C   UNL     1      -2.922  -1.252  24.530  0.00  0.00    +0.136 A 
BRANCH  19  20
ATOM     20  O   UNL     1      -2.345  -1.824  24.674  0.00  0.00    -0.472 OA
ATOM     21  C   UNL     1      -2.542  -2.624  24.641  0.00  0.00    +0.252 C 
ENDBRANCH  19  20
ENDBRANCH  13  14
ENDBRANCH  12  13
ENDBRANCH   8  12
TORSDOF 8
ENDMDL
MODEL 7
REMARK VINA RESULT:      -7.7      2.244      3.431
REMARK  Name = 
REMARK  8 active torsions:
REMARK  status: ('A' for Active; 'I' for Inactive)
REMARK    1  A    between atoms: O_2  and  C_3
REMARK    2  A    between atoms: C_3  and  C_4
REMARK    3  A    between atoms: C_6  and  C_7
REMARK    4  A    between atoms: C_7  and  C_8
REMARK    5  A    between atoms: C_8  and  N_12
REMARK    6  A    between atoms: N_12  and  C_13
REMARK    7  A    between atoms: C_13  and  C_14
REMARK    8  A    between atoms: C_19  and  O_20
REMARK                            x       y       z     vdW  Elec       q    Type
REMARK                         _______ _______ _______ _____ _____    ______ ____
ROOT
ATOM      8  C   UNL     1      -1.305   2.533  25.238  0.00  0.00    +0.120 C 
ATOM      9  C   UNL     1      -0.694   2.491  25.792  0.00  0.00    +0.161 C 
ATOM     10  O   UNL     1      -0.629   3.314  25.782  0.00  0.00    -0.351 OA
ATOM     11  C   UNL     1      -1.240   3.356  25.229  0.00  0.00    +0.161 C 
ENDROOT
BRANCH   8   7
ATOM      7  C   UNL     1      -1.916   2.575  24.685  0.00  0.00    +0.070 C 
BRANCH   7   6
ATOM      4  C   UNL     1      -4.006   2.862  25.013  0.00  0.00    +0.184 A 
ATOM      5  C   UNL     1      -3.382   2.500  24.612  0.00  0.00    +0.056 A 
ATOM      6  C   UNL     1      -2.676   2.789  24.925  0.00  0.00    +0.102 A 
ATOM     22  N   UNL     1      -2.862   3.330  25.519  0.00  0.00    -0.082 NA
ATOM     23  O   UNL     1      -3.684   3.375  25.573  0.00  0.00    -0.356 OA
BRANCH   4   3
ATOM      3  C   UNL     1      -4.809   2.734  24.878  0.00  0.00    +0.209 C 
BRANCH   3   2
ATOM      1  C   UNL     1      -6.002   1.995  25.143  0.00  0.00    +0.175 C 
ATOM      2  O   UNL     1      -5.221   2.181  25.331  0.00  0.00    -0.343 OA
ENDBRANCH   3   2
ENDBRANCH   4   3
ENDBRANCH   7   6
ENDBRANCH   8   7
BRANCH   8  12
ATOM     12  N   UNL     1      -1.370   1.711  25.249  0.00  0.00    -0.211 NA
BRANCH  12  13
ATOM     13  C   UNL     1      -0.738   1.245  24.995  0.00  0.00    +0.118 C 
BRANCH  13  14
ATOM     14  C   UNL     1      -0.799   0.422  25.016  0.00  0.00    +0.029 A 
ATOM     15  C   UNL     1      -1.236   0.057  25.613  0.00  0.00    +0.000 A 
ATOM     16  C   UNL     1      -1.297  -0.766  25.636  0.00  0.00    -0.000 A 
ATOM     17  C   UNL     1      -0.922  -1.223  25.060  0.00  0.00    +0.003 A 
ATOM     18  C   UNL     1      -0.485  -0.857  24.463  0.00  0.00    +0.037 A 
ATOM     19  C   UNL     1      -0.424  -0.035  24.442  0.00  0.00    +0.136 A 
BRANCH  19  20
ATOM     20  O   UNL     1       0.013   0.331  23.844  0.00  0.00    -0.472 OA
ATOM     21  C   UNL     1       0.473  -0.124  23.334  0.00  0.00    +0.252 C 
ENDBRANCH  19  20
ENDBRANCH  13  14
ENDBRANCH  12  13
ENDBRANCH   8  12
TORSDOF 8
ENDMDL
