MODEL 1
REMARK VINA RESULT:     -11.0      0.000      0.000
REMARK  Name = 
REMARK  8 active torsions:
REMARK  status: ('A' for Active; 'I' for Inactive)
REMARK    1  A    between atoms: O_2  and  C_3
REMARK    2  A    between atoms: C_3  and  C_4
REMARK    3  A    between atoms: C_4  and  O_5
REMARK    4  A    between atoms: O_5  and  C_6
REMARK    5  A    between atoms: C_8  and  C_12
REMARK    6  A    between atoms: C_15  and  C_17
REMARK    7  A    between atoms: N_21  and  C_22
REMARK    8  A    between atoms: C_22  and  C_23
REMARK                            x       y       z     vdW  Elec       q    Type
REMARK                         _______ _______ _______ _____ _____    ______ ____
ROOT
ATOM     12  C   UNL     1      -1.581   1.912  24.577  0.00  0.00    +0.221 A 
ATOM     13  N   UNL     1      -1.372   1.754  23.795  0.00  0.00    -0.054 NA
ATOM     14  O   UNL     1      -1.201   0.948  23.734  0.00  0.00    -0.336 OA
ATOM     15  C   UNL     1      -1.305   0.609  24.479  0.00  0.00    +0.251 A 
ATOM     16  N   UNL     1      -1.540   1.205  25.000  0.00  0.00    -0.188 NA
ENDROOT
BRANCH  12   8
ATOM      6  C   UNL     1      -2.796   3.625  25.171  0.00  0.00    +0.142 A 
ATOM      7  C   UNL     1      -2.583   2.889  24.865  0.00  0.00    +0.059 A 
ATOM      8  C   UNL     1      -1.794   2.648  24.883  0.00  0.00    +0.123 A 
ATOM      9  N   UNL     1      -1.218   3.143  25.205  0.00  0.00    -0.240 NA
ATOM     10  C   UNL     1      -1.431   3.879  25.510  0.00  0.00    +0.102 A 
ATOM     11  C   UNL     1      -2.220   4.121  25.493  0.00  0.00    +0.058 A 
BRANCH   6   5
ATOM      5  O   UNL     1      -3.584   3.867  25.154  0.00  0.00    -0.473 OA
BRANCH   5   4
ATOM      4  C   UNL     1      -4.146   3.476  25.615  0.00  0.00    +0.237 C 
BRANCH   4   3
ATOM      3  C   UNL     1      -4.950   3.589  25.467  0.00  0.00    +0.189 C 
BRANCH   3   2
ATOM      1  C   UNL     1      -6.024   2.710  25.812  0.00  0.00    +0.174 C 
ATOM      2  O   UNL     1      -5.510   3.324  26.013  0.00  0.00    -0.347 OA
ENDBRANCH   3   2
ENDBRANCH   4   3
ENDBRANCH   5   4
ENDBRANCH   6   5
ENDBRANCH  12   8
BRANCH  15  17
ATOM     17  C   UNL     1      -1.194  -0.185  24.670  0.00  0.00    +0.138 C 
ATOM     18  C   UNL     1      -0.472  -0.547  24.839  0.00  0.00    +0.027 C 
ATOM     19  C   UNL     1      -0.617  -1.344  24.999  0.00  0.00    +0.019 C 
ATOM     20  C   UNL     1      -1.429  -1.474  24.930  0.00  0.00    +0.073 C 
ATOM     21  N   UNL     1      -1.786  -0.758  24.726  0.00  0.00    -0.263 NA
BRANCH  21  22
ATOM     22  C   UNL     1      -2.592  -0.637  24.601  0.00  0.00    +0.102 C 
BRANCH  22  23
ATOM     23  C   UNL     1      -3.094  -1.281  24.495  0.00  0.00    +0.021 A 
ATOM     24  C   UNL     1      -2.979  -1.971  24.934  0.00  0.00    -0.001 A 
ATOM     25  C   UNL     1      -3.482  -2.616  24.828  0.00  0.00    -0.000 A 
ATOM     26  C   UNL     1      -4.100  -2.572  24.283  0.00  0.00    +0.002 A 
ATOM     27  C   UNL     1      -4.216  -1.883  23.845  0.00  0.00    +0.029 A 
ATOM     28  C   UNL     1      -3.713  -1.238  23.951  0.00  0.00    +0.137 A 
ATOM     29  F   UNL     1      -3.829  -0.549  23.512  0.00  0.00    -0.204 F 
ENDBRANCH  22  23
ENDBRANCH  21  22
ENDBRANCH  15  17
TORSDOF 8
ENDMDL
MODEL 2
REMARK VINA RESULT:     -10.8      1.773      3.502
REMARK  Name = 
REMARK  8 active torsions:
REMARK  status: ('A' for Active; 'I' for Inactive)
REMARK    1  A    between atoms: O_2  and  C_3
REMARK    2  A    between atoms: C_3  and  C_4
REMARK    3  A    between atoms: C_4  and  O_5
REMARK    4  A    between atoms: O_5  and  C_6
REMARK    5  A    between atoms: C_8  and  C_12
REMARK    6  A    between atoms: C_15  and  C_17
REMARK    7  A    between atoms: N_21  and  C_22
REMARK    8  A    between atoms: C_22  and  C_23
REMARK                            x       y       z     vdW  Elec       q    Type
REMARK                         _______ _______ _______ _____ _____    ______ ____
ROOT
ATOM     12  C   UNL     1      -3.136   3.335  24.694  0.00  0.00    +0.221 A 
ATOM     13  N   UNL     1      -3.598   3.484  24.026  0.00  0.00    -0.054 NA
ATOM     14  O   UNL     1      -4.266   2.999  24.066  0.00  0.00    -0.336 OA
ATOM     15  C   UNL     1      -4.215   2.552  24.757  0.00  0.00    +0.251 A 
ATOM     16  N   UNL     1      -3.517   2.760  25.145  0.00  0.00    -0.188 NA
ENDROOT
BRANCH  12   8
ATOM      6  C   UNL     1      -1.016   3.609  25.131  0.00  0.00    +0.142 A 
ATOM      7  C   UNL     1      -1.733   3.246  24.948  0.00  0.00    +0.059 A 
ATOM      8  C   UNL     1      -2.419   3.699  24.877  0.00  0.00    +0.123 A 
ATOM      9  N   UNL     1      -2.388   4.515  24.990  0.00  0.00    -0.240 NA
ATOM     10  C   UNL     1      -1.670   4.879  25.174  0.00  0.00    +0.102 A 
ATOM     11  C   UNL     1      -0.984   4.427  25.244  0.00  0.00    +0.058 A 
BRANCH   6   5
ATOM      5  O   UNL     1      -0.329   3.157  25.202  0.00  0.00    -0.473 OA
BRANCH   5   4
ATOM      4  C   UNL     1      -0.076   2.690  24.571  0.00  0.00    +0.237 C 
BRANCH   4   3
ATOM      3  C   UNL     1       0.447   2.065  24.705  0.00  0.00    +0.189 C 
BRANCH   3   2
ATOM      1  C   UNL     1       0.917   1.059  23.806  0.00  0.00    +0.174 C 
ATOM      2  O   UNL     1       0.963   1.825  24.108  0.00  0.00    -0.347 OA
ENDBRANCH   3   2
ENDBRANCH   4   3
ENDBRANCH   5   4
ENDBRANCH   6   5
ENDBRANCH  12   8
BRANCH  15  17
ATOM     17  C   UNL     1      -4.766   1.995  25.015  0.00  0.00    +0.138 C 
ATOM     18  C   UNL     1      -5.465   2.156  25.423  0.00  0.00    +0.027 C 
ATOM     19  C   UNL     1      -5.846   1.439  25.571  0.00  0.00    +0.019 C 
ATOM     20  C   UNL     1      -5.382   0.835  25.254  0.00  0.00    +0.073 C 
ATOM     21  N   UNL     1      -4.715   1.178  24.911  0.00  0.00    -0.263 NA
BRANCH  21  22
ATOM     22  C   UNL     1      -4.105   0.775  24.530  0.00  0.00    +0.102 C 
BRANCH  22  23
ATOM     23  C   UNL     1      -3.997  -0.032  24.662  0.00  0.00    +0.021 A 
ATOM     24  C   UNL     1      -3.881  -0.312  25.430  0.00  0.00    -0.001 A 
ATOM     25  C   UNL     1      -3.774  -1.119  25.563  0.00  0.00    -0.000 A 
ATOM     26  C   UNL     1      -3.782  -1.646  24.929  0.00  0.00    +0.002 A 
ATOM     27  C   UNL     1      -3.897  -1.367  24.161  0.00  0.00    +0.029 A 
ATOM     28  C   UNL     1      -4.005  -0.559  24.028  0.00  0.00    +0.137 A 
ATOM     29  F   UNL     1      -4.121  -0.280  23.261  0.00  0.00    -0.204 F 
ENDBRANCH  22  23
ENDBRANCH  21  22
ENDBRANCH  15  17
TORSDOF 8
ENDMDL
MODEL 3
REMARK VINA RESULT:     -10.5      1.681      4.748
REMARK  Name = 
REMARK  8 active torsions:
REMARK  status: ('A' for Active; 'I' for Inactive)
REMARK    1  A    between atoms: O_2  and  C_3
REMARK    2  A    between atoms: C_3  and  C_4
REMARK    3  A    between atoms: C_4  and  O_5
REMARK    4  A    between atoms: O_5  and  C_6
REMARK    5  A    between atoms: C_8  and  C_12
REMARK    6  A    between atoms: C_15  and  C_17
REMARK    7  A    between atoms: N_21  and  C_22
REMARK    8  A    between atoms: C_22  and  C_23
REMARK                            x       y       z     vdW  Elec       q    Type
REMARK                         _______ _______ _______ _____ _____    ______ ____
ROOT
ATOM     12  C   UNL     1      -0.508   1.504  24.994  0.00  0.00    +0.221 A 
ATOM     13  N   UNL     1      -0.293   1.685  25.770  0.00  0.00    -0.054 NA
ATOM     14  O   UNL     1      -0.579   2.439  25.945  0.00  0.00    -0.336 OA
ATOM     15  C   UNL     1      -0.971   2.724  25.277  0.00  0.00    +0.251 A 
ATOM     16  N   UNL     1      -0.927   2.146  24.690  0.00  0.00    -0.188 NA
ENDROOT
BRANCH  12   8
ATOM      6  C   UNL     1      -0.499  -0.607  24.440  0.00  0.00    +0.142 A 
ATOM      7  C   UNL     1      -0.673   0.093  24.841  0.00  0.00    +0.059 A 
ATOM      8  C   UNL     1      -0.335   0.804  24.593  0.00  0.00    +0.123 A 
ATOM      9  N   UNL     1       0.175   0.816  23.946  0.00  0.00    -0.240 NA
ATOM     10  C   UNL     1       0.349   0.116  23.545  0.00  0.00    +0.102 A 
ATOM     11  C   UNL     1       0.012  -0.596  23.792  0.00  0.00    +0.058 A 
BRANCH   6   5
ATOM      5  O   UNL     1      -0.836  -1.318  24.687  0.00  0.00    -0.473 OA
BRANCH   5   4
ATOM      4  C   UNL     1      -1.568  -1.554  24.388  0.00  0.00    +0.237 C 
BRANCH   4   3
ATOM      3  C   UNL     1      -1.955  -2.206  24.714  0.00  0.00    +0.189 C 
BRANCH   3   2
ATOM      1  C   UNL     1      -3.310  -2.660  24.750  0.00  0.00    +0.174 C 
ATOM      2  O   UNL     1      -2.611  -2.529  24.331  0.00  0.00    -0.347 OA
ENDBRANCH   3   2
ENDBRANCH   4   3
ENDBRANCH   5   4
ENDBRANCH   6   5
ENDBRANCH  12   8
BRANCH  15  17
ATOM     17  C   UNL     1      -1.341   3.458  25.209  0.00  0.00    +0.138 C 
ATOM     18  C   UNL     1      -0.964   4.192  25.187  0.00  0.00    +0.027 C 
ATOM     19  C   UNL     1      -1.543   4.775  25.115  0.00  0.00    +0.019 C 
ATOM     20  C   UNL     1      -2.278   4.401  25.092  0.00  0.00    +0.073 C 
ATOM     21  N   UNL     1      -2.154   3.588  25.150  0.00  0.00    -0.263 NA
BRANCH  21  22
ATOM     22  C   UNL     1      -2.739   3.006  25.149  0.00  0.00    +0.102 C 
BRANCH  22  23
ATOM     23  C   UNL     1      -3.530   3.217  25.246  0.00  0.00    +0.021 A 
ATOM     24  C   UNL     1      -3.763   3.653  25.908  0.00  0.00    -0.001 A 
ATOM     25  C   UNL     1      -4.554   3.863  26.005  0.00  0.00    -0.000 A 
ATOM     26  C   UNL     1      -5.113   3.639  25.442  0.00  0.00    +0.002 A 
ATOM     27  C   UNL     1      -4.881   3.204  24.781  0.00  0.00    +0.029 A 
ATOM     28  C   UNL     1      -4.089   2.993  24.683  0.00  0.00    +0.137 A 
ATOM     29  F   UNL     1      -3.857   2.558  24.022  0.00  0.00    -0.204 F 
ENDBRANCH  22  23
ENDBRANCH  21  22
ENDBRANCH  15  17
TORSDOF 8
ENDMDL
MODEL 4
REMARK VINA RESULT:     -10.4      1.579      2.917
REMARK  Name = 
REMARK  8 active torsions:
REMARK  status: ('A' for Active; 'I' for Inactive)
REMARK    1  A    between atoms: O_2  and  C_3
REMARK    2  A    between atoms: C_3  and  C_4
REMARK    3  A    between atoms: C_4  and  O_5
REMARK    4  A    between atoms: O_5  and  C_6
REMARK    5  A    between atoms: C_8  and  C_12
REMARK    6  A    between atoms: C_15  and  C_17
REMARK    7  A    between atoms: N_21  and  C_22
REMARK    8  A    between atoms: C_22  and  C_23
REMARK                            x       y       z     vdW  Elec       q    Type
REMARK                         _______ _______ _______ _____ _____    ______ ____
ROOT
ATOM     12  C   UNL     1      -4.052   1.512  24.408  0.00  0.00    +0.221 A 
ATOM     13  N   UNL     1      -3.807   1.437  23.623  0.00  0.00    -0.054 NA
ATOM     14  O   UNL     1      -3.666   0.637  23.476  0.00  0.00    -0.336 OA
ATOM     15  C   UNL     1      -3.824   0.219  24.170  0.00  0.00    +0.251 A 
ATOM     16  N   UNL     1      -4.062   0.760  24.745  0.00  0.00    -0.188 NA
ENDROOT
BRANCH  12   8
ATOM      6  C   UNL     1      -3.858   3.403  25.482  0.00  0.00    +0.142 A 
ATOM      7  C   UNL     1      -3.659   2.698  25.102  0.00  0.00    +0.059 A 
ATOM      8  C   UNL     1      -4.252   2.217  24.788  0.00  0.00    +0.123 A 
ATOM      9  N   UNL     1      -5.042   2.440  24.853  0.00  0.00    -0.240 NA
ATOM     10  C   UNL     1      -5.242   3.145  25.233  0.00  0.00    +0.102 A 
ATOM     11  C   UNL     1      -4.651   3.627  25.547  0.00  0.00    +0.058 A 
BRANCH   6   5
ATOM      5  O   UNL     1      -3.267   3.884  25.796  0.00  0.00    -0.473 OA
BRANCH   5   4
ATOM      4  C   UNL     1      -2.719   4.245  25.296  0.00  0.00    +0.237 C 
BRANCH   4   3
ATOM      3  C   UNL     1      -2.027   4.569  25.609  0.00  0.00    +0.189 C 
BRANCH   3   2
ATOM      1  C   UNL     1      -0.853   5.003  24.920  0.00  0.00    +0.174 C 
ATOM      2  O   UNL     1      -1.619   5.150  25.189  0.00  0.00    -0.347 OA
ENDBRANCH   3   2
ENDBRANCH   4   3
ENDBRANCH   5   4
ENDBRANCH   6   5
ENDBRANCH  12   8
BRANCH  15  17
ATOM     17  C   UNL     1      -3.755  -0.597  24.271  0.00  0.00    +0.138 C 
ATOM     18  C   UNL     1      -4.350  -1.154  24.137  0.00  0.00    +0.027 C 
ATOM     19  C   UNL     1      -4.042  -1.901  24.306  0.00  0.00    +0.019 C 
ATOM     20  C   UNL     1      -3.258  -1.806  24.545  0.00  0.00    +0.073 C 
ATOM     21  N   UNL     1      -3.081  -1.000  24.522  0.00  0.00    -0.263 NA
BRANCH  21  22
ATOM     22  C   UNL     1      -2.356  -0.658  24.718  0.00  0.00    +0.102 C 
BRANCH  22  23
ATOM     23  C   UNL     1      -1.704  -1.136  24.878  0.00  0.00    +0.021 A 
ATOM     24  C   UNL     1      -1.518  -1.762  24.374  0.00  0.00    -0.001 A 
ATOM     25  C   UNL     1      -0.865  -2.240  24.535  0.00  0.00    -0.000 A 
ATOM     26  C   UNL     1      -0.398  -2.093  25.198  0.00  0.00    +0.002 A 
ATOM     27  C   UNL     1      -0.584  -1.467  25.703  0.00  0.00    +0.029 A 
ATOM     28  C   UNL     1      -1.237  -0.988  25.542  0.00  0.00    +0.137 A 
ATOM     29  F   UNL     1      -1.423  -0.362  26.046  0.00  0.00    -0.204 F 
ENDBRANCH  22  23
ENDBRANCH  21  22
ENDBRANCH  15  17
TORSDOF 8
ENDMDL
MODEL 5
REMARK VINA RESULT:     -10.3      1.794      5.384
REMARK  Name = 
REMARK  8 active torsions:
REMARK  status: ('A' for Active; 'I' for Inactive)
REMARK    1  A    between atoms: O_2  and  C_3
REMARK    2  A    between atoms: C_3  and  C_4
REMARK    3  A    between atoms: C_4  and  O_5
REMARK    4  A    between atoms: O_5  and  C_6
REMARK    5  A    between atoms: C_8  and  C_12
REMARK    6  A    between atoms: C_15  and  C_17
REMARK    7  A    between atoms: N_21  and  C_22
REMARK    8  A    between atoms: C_22  and  C_23
REMARK                            x       y       z     vdW  Elec       q    Type
REMARK                         _______ _______ _______ _____ _____    ______ ____
ROOT
ATOM     12  C   UNL     1      -4.137   0.280  24.723  0.00  0.00    +0.221 A 
ATOM     13  N   UNL     1      -4.558   0.556  25.377  0.00  0.00    -0.054 NA
ATOM     14  O   UNL     1      -4.602   1.378  25.323  0.00  0.00    -0.336 OA
ATOM     15  C   UNL     1      -4.209   1.610  24.636  0.00  0.00    +0.251 A 
ATOM     16  N   UNL     1      -3.921   0.931  24.265  0.00  0.00    -0.188 NA
ENDROOT
BRANCH  12   8
ATOM      6  C   UNL     1      -3.067  -1.620  24.631  0.00  0.00    +0.142 A 
ATOM      7  C   UNL     1      -3.241  -0.831  24.797  0.00  0.00    +0.059 A 
ATOM      8  C   UNL     1      -3.962  -0.509  24.557  0.00  0.00    +0.123 A 
ATOM      9  N   UNL     1      -4.508  -0.975  24.152  0.00  0.00    -0.240 NA
ATOM     10  C   UNL     1      -4.333  -1.764  23.985  0.00  0.00    +0.102 A 
ATOM     11  C   UNL     1      -3.613  -2.087  24.225  0.00  0.00    +0.058 A 
BRANCH   6   5
ATOM      5  O   UNL     1      -2.347  -1.943  24.871  0.00  0.00    -0.473 OA
BRANCH   5   4
ATOM      4  C   UNL     1      -1.639  -1.567  24.674  0.00  0.00    +0.237 C 
BRANCH   4   3
ATOM      3  C   UNL     1      -0.920  -1.884  24.925  0.00  0.00    +0.189 C 
BRANCH   3   2
ATOM      1  C   UNL     1       0.136  -1.088  24.385  0.00  0.00    +0.174 C 
ATOM      2  O   UNL     1      -0.268  -1.391  25.036  0.00  0.00    -0.347 OA
ENDBRANCH   3   2
ENDBRANCH   4   3
ENDBRANCH   5   4
ENDBRANCH   6   5
ENDBRANCH  12   8
BRANCH  15  17
ATOM     17  C   UNL     1      -4.118   2.384  24.366  0.00  0.00    +0.138 C 
ATOM     18  C   UNL     1      -4.640   2.789  23.871  0.00  0.00    +0.027 C 
ATOM     19  C   UNL     1      -4.335   3.545  23.743  0.00  0.00    +0.019 C 
ATOM     20  C   UNL     1      -3.625   3.607  24.159  0.00  0.00    +0.073 C 
ATOM     21  N   UNL     1      -3.491   2.890  24.544  0.00  0.00    -0.263 NA
BRANCH  21  22
ATOM     22  C   UNL     1      -2.844   2.710  25.023  0.00  0.00    +0.102 C 
BRANCH  22  23
ATOM     23  C   UNL     1      -2.233   3.256  25.112  0.00  0.00    +0.021 A 
ATOM     24  C   UNL     1      -2.399   4.022  25.375  0.00  0.00    -0.001 A 
ATOM     25  C   UNL     1      -1.788   4.568  25.464  0.00  0.00    -0.000 A 
ATOM     26  C   UNL     1      -1.011   4.350  25.292  0.00  0.00    +0.002 A 
ATOM     27  C   UNL     1      -0.845   3.586  25.030  0.00  0.00    +0.029 A 
ATOM     28  C   UNL     1      -1.456   3.039  24.941  0.00  0.00    +0.137 A 
ATOM     29  F   UNL     1      -1.290   2.274  24.679  0.00  0.00    -0.204 F 
ENDBRANCH  22  23
ENDBRANCH  21  22
ENDBRANCH  15  17
TORSDOF 8
ENDMDL
MODEL 6
REMARK VINA RESULT:     -10.1      2.063      5.155
REMARK  Name = 
REMARK  8 active torsions:
REMARK  status: ('A' for Active; 'I' for Inactive)
REMARK    1  A    between atoms: O_2  and  C_3
REMARK    2  A    between atoms: C_3  and  C_4
REMARK    3  A    between atoms: C_4  and  O_5
REMARK    4  A    between atoms: O_5  and  C_6
REMARK    5  A    between atoms: C_8  and  C_12
REMARK    6  A    between atoms: C_15  and  C_17
REMARK    7  A    between atoms: N_21  and  C_22
REMARK    8  A    between atoms: C_22  and  C_23
REMARK                            x       y       z     vdW  Elec       q    Type
REMARK                         _______ _______ _______ _____ _____    ______ ____
ROOT
ATOM     12  C   UNL     1      -1.177   1.412  24.022  0.00  0.00    +0.221 A 
ATOM     13  N   UNL     1      -1.433   1.865  23.381  0.00  0.00    -0.054 NA
ATOM     14  O   UNL     1      -1.853   2.511  23.678  0.00  0.00    -0.336 OA
ATOM     15  C   UNL     1      -1.856   2.457  24.501  0.00  0.00    +0.251 A 
ATOM     16  N   UNL     1      -1.438   1.778  24.713  0.00  0.00    -0.188 NA
ENDROOT
BRANCH  12   8
ATOM      6  C   UNL     1       0.334  -0.036  23.404  0.00  0.00    +0.142 A 
ATOM      7  C   UNL     1      -0.106   0.660  23.448  0.00  0.00    +0.059 A 
ATOM      8  C   UNL     1      -0.737   0.716  23.978  0.00  0.00    +0.123 A 
ATOM      9  N   UNL     1      -0.927   0.077  24.462  0.00  0.00    -0.240 NA
ATOM     10  C   UNL     1      -0.487  -0.619  24.418  0.00  0.00    +0.102 A 
ATOM     11  C   UNL     1       0.144  -0.676  23.890  0.00  0.00    +0.058 A 
BRANCH   6   5
ATOM      5  O   UNL     1       0.965  -0.093  22.876  0.00  0.00    -0.473 OA
BRANCH   5   4
ATOM      4  C   UNL     1       1.729   0.098  23.122  0.00  0.00    +0.237 C 
BRANCH   4   3
ATOM      3  C   UNL     1       2.334   0.171  22.566  0.00  0.00    +0.189 C 
BRANCH   3   2
ATOM      1  C   UNL     1       3.681   0.642  22.489  0.00  0.00    +0.174 C 
ATOM      2  O   UNL     1       3.122   0.126  22.806  0.00  0.00    -0.347 OA
ENDBRANCH   3   2
ENDBRANCH   4   3
ENDBRANCH   5   4
ENDBRANCH   6   5
ENDBRANCH  12   8
BRANCH  15  17
ATOM     17  C   UNL     1      -2.214   2.988  25.020  0.00  0.00    +0.138 C 
ATOM     18  C   UNL     1      -1.826   3.555  25.478  0.00  0.00    +0.027 C 
ATOM     19  C   UNL     1      -2.395   3.964  25.915  0.00  0.00    +0.019 C 
ATOM     20  C   UNL     1      -3.134   3.650  25.727  0.00  0.00    +0.073 C 
ATOM     21  N   UNL     1      -3.023   3.047  25.174  0.00  0.00    -0.263 NA
BRANCH  21  22
ATOM     22  C   UNL     1      -3.615   2.584  24.835  0.00  0.00    +0.102 C 
BRANCH  22  23
ATOM     23  C   UNL     1      -4.388   2.632  25.118  0.00  0.00    +0.021 A 
ATOM     24  C   UNL     1      -4.747   3.369  25.216  0.00  0.00    -0.001 A 
ATOM     25  C   UNL     1      -5.520   3.417  25.499  0.00  0.00    -0.000 A 
ATOM     26  C   UNL     1      -5.936   2.729  25.684  0.00  0.00    +0.002 A 
ATOM     27  C   UNL     1      -5.578   1.992  25.586  0.00  0.00    +0.029 A 
ATOM     28  C   UNL     1      -4.804   1.944  25.302  0.00  0.00    +0.137 A 
ATOM     29  F   UNL     1      -4.446   1.207  25.204  0.00  0.00    -0.204 F 
ENDBRANCH  22  23
ENDBRANCH  21  22
ENDBRANCH  15  17
TORSDOF 8
ENDMDL
