MODEL 1
REMARK VINA RESULT:      -7.7      0.000      0.000
REMARK  Name = 
REMARK  3 active torsions:
REMARK  status: ('A' for Active; 'I' for Inactive)
REMARK    1  A    between atoms: O_2  and  C_3
REMARK    2  A    between atoms: N_8  and  C_9
REMARK    3  A    between atoms: C_9  and  C_10
REMARK                            x       y       z     vdW  Elec       q    Type
REMARK                         _______ _______ _______ _____ _____    ______ ____
ROOT
ATOM      3  C   UNL     1      -3.499   1.622  24.234  0.00  0.00    +0.161 C 
ATOM      4  C   UNL     1      -2.713   1.863  24.169  0.00  0.00    +0.173 C 
ATOM      5  O   UNL     1      -2.035   1.482  24.444  0.00  0.00    -0.350 OA
ATOM      6  C   UNL     1      -1.975   0.768  24.852  0.00  0.00    +0.160 C 
ATOM      7  C   UNL     1      -2.579   0.258  25.086  0.00  0.00    +0.105 C 
ATOM      8  N   UNL     1      -3.393   0.335  24.969  0.00  0.00    -0.263 NA
ATOM     16  C   UNL     1      -3.802   0.943  24.590  0.00  0.00    +0.105 C 
ENDROOT
BRANCH   3   2
ATOM      1  C   UNL     1      -3.943   2.946  23.925  0.00  0.00    +0.174 C 
ATOM      2  O   UNL     1      -4.057   2.129  23.899  0.00  0.00    -0.350 OA
ENDBRANCH   3   2
BRANCH   8   9
ATOM      9  C   UNL     1      -3.857  -0.275  25.272  0.00  0.00    +0.119 C 
BRANCH   9  10
ATOM     10  C   UNL     1      -3.845  -1.019  24.915  0.00  0.00    +0.075 A 
ATOM     11  N   UNL     1      -4.235  -1.138  24.197  0.00  0.00    -0.247 NA
ATOM     12  C   UNL     1      -4.223  -1.882  23.839  0.00  0.00    +0.098 A 
ATOM     13  C   UNL     1      -3.821  -2.506  24.200  0.00  0.00    +0.021 A 
ATOM     14  C   UNL     1      -3.431  -2.387  24.916  0.00  0.00    +0.003 A 
ATOM     15  C   UNL     1      -3.443  -1.643  25.273  0.00  0.00    +0.016 A 
ENDBRANCH   9  10
ENDBRANCH   8   9
TORSDOF 3
ENDMDL
MODEL 2
REMARK VINA RESULT:      -7.6      1.624      1.981
REMARK  Name = 
REMARK  3 active torsions:
REMARK  status: ('A' for Active; 'I' for Inactive)
REMARK    1  A    between atoms: O_2  and  C_3
REMARK    2  A    between atoms: N_8  and  C_9
REMARK    3  A    between atoms: C_9  and  C_10
REMARK                            x       y       z     vdW  Elec       q    Type
REMARK                         _______ _______ _______ _____ _____    ______ ____
ROOT
ATOM      3  C   UNL     1      -1.364   0.577  25.087  0.00  0.00    +0.161 C 
ATOM      4  C   UNL     1      -0.609   0.379  24.820  0.00  0.00    +0.173 C 
ATOM      5  O   UNL     1      -0.284  -0.370  24.709  0.00  0.00    -0.350 OA
ATOM      6  C   UNL     1      -0.633  -1.107  24.835  0.00  0.00    +0.160 C 
ATOM      7  C   UNL     1      -1.393  -1.276  25.105  0.00  0.00    +0.105 C 
ATOM      8  N   UNL     1      -1.994  -0.750  25.315  0.00  0.00    -0.263 NA
ATOM     16  C   UNL     1      -1.981   0.075  25.307  0.00  0.00    +0.105 C 
ENDROOT
BRANCH   3   2
ATOM      1  C   UNL     1      -0.984   1.890  25.504  0.00  0.00    +0.174 C 
ATOM      2  O   UNL     1      -1.525   1.384  25.140  0.00  0.00    -0.350 OA
ENDBRANCH   3   2
BRANCH   8   9
ATOM      9  C   UNL     1      -2.700  -1.095  25.566  0.00  0.00    +0.119 C 
BRANCH   9  10
ATOM     10  C   UNL     1      -3.220  -1.419  25.013  0.00  0.00    +0.075 A 
ATOM     11  N   UNL     1      -3.728  -0.927  24.587  0.00  0.00    -0.247 NA
ATOM     12  C   UNL     1      -4.248  -1.251  24.034  0.00  0.00    +0.098 A 
ATOM     13  C   UNL     1      -4.260  -2.067  23.909  0.00  0.00    +0.021 A 
ATOM     14  C   UNL     1      -3.752  -2.558  24.334  0.00  0.00    +0.003 A 
ATOM     15  C   UNL     1      -3.232  -2.234  24.887  0.00  0.00    +0.016 A 
ENDBRANCH   9  10
ENDBRANCH   8   9
TORSDOF 3
ENDMDL
MODEL 3
REMARK VINA RESULT:      -7.6      1.443      2.358
REMARK  Name = 
REMARK  3 active torsions:
REMARK  status: ('A' for Active; 'I' for Inactive)
REMARK    1  A    between atoms: O_2  and  C_3
REMARK    2  A    between atoms: N_8  and  C_9
REMARK    3  A    between atoms: C_9  and  C_10
REMARK                            x       y       z     vdW  Elec       q    Type
REMARK                         _______ _______ _______ _____ _____    ______ ____
ROOT
ATOM      3  C   UNL     1      -3.936   3.055  25.189  0.00  0.00    +0.161 C 
ATOM      4  C   UNL     1      -4.626   3.283  25.581  0.00  0.00    +0.173 C 
ATOM      5  O   UNL     1      -5.334   2.868  25.656  0.00  0.00    -0.350 OA
ATOM      6  C   UNL     1      -5.529   2.123  25.358  0.00  0.00    +0.160 C 
ATOM      7  C   UNL     1      -5.062   1.610  24.913  0.00  0.00    +0.105 C 
ATOM      8  N   UNL     1      -4.286   1.713  24.653  0.00  0.00    -0.263 NA
ATOM     16  C   UNL     1      -3.784   2.357  24.776  0.00  0.00    +0.105 C 
ENDROOT
BRANCH   3   2
ATOM      1  C   UNL     1      -3.064   3.906  25.937  0.00  0.00    +0.174 C 
ATOM      2  O   UNL     1      -3.315   3.598  25.213  0.00  0.00    -0.350 OA
ENDBRANCH   3   2
BRANCH   8   9
ATOM      9  C   UNL     1      -3.969   1.092  24.214  0.00  0.00    +0.119 C 
BRANCH   9  10
ATOM     10  C   UNL     1      -3.707   0.409  24.594  0.00  0.00    +0.075 A 
ATOM     11  N   UNL     1      -2.951   0.385  24.925  0.00  0.00    -0.247 NA
ATOM     12  C   UNL     1      -2.688  -0.298  25.306  0.00  0.00    +0.098 A 
ATOM     13  C   UNL     1      -3.182  -0.957  25.356  0.00  0.00    +0.021 A 
ATOM     14  C   UNL     1      -3.937  -0.934  25.026  0.00  0.00    +0.003 A 
ATOM     15  C   UNL     1      -4.199  -0.251  24.645  0.00  0.00    +0.016 A 
ENDBRANCH   9  10
ENDBRANCH   8   9
TORSDOF 3
ENDMDL
MODEL 4
REMARK VINA RESULT:      -7.5      2.881      3.541
REMARK  Name = 
REMARK  3 active torsions:
REMARK  status: ('A' for Active; 'I' for Inactive)
REMARK    1  A    between atoms: O_2  and  C_3
REMARK    2  A    between atoms: N_8  and  C_9
REMARK    3  A    between atoms: C_9  and  C_10
REMARK                            x       y       z     vdW  Elec       q    Type
REMARK                         _______ _______ _______ _____ _____    ______ ____
ROOT
ATOM      3  C   UNL     1      -2.038   3.871  25.285  0.00  0.00    +0.161 C 
ATOM      4  C   UNL     1      -1.420   3.368  25.500  0.00  0.00    +0.173 C 
ATOM      5  O   UNL     1      -1.362   2.552  25.399  0.00  0.00    -0.350 OA
ATOM      6  C   UNL     1      -1.908   2.036  25.057  0.00  0.00    +0.160 C 
ATOM      7  C   UNL     1      -2.646   2.210  24.732  0.00  0.00    +0.105 C 
ATOM      8  N   UNL     1      -3.021   2.942  24.669  0.00  0.00    -0.263 NA
ATOM     16  C   UNL     1      -2.750   3.682  24.915  0.00  0.00    +0.105 C 
ENDROOT
BRANCH   3   2
ATOM      1  C   UNL     1      -1.304   5.087  25.122  0.00  0.00    +0.174 C 
ATOM      2  O   UNL     1      -1.929   4.669  25.463  0.00  0.00    -0.350 OA
ENDBRANCH   3   2
BRANCH   8   9
ATOM      9  C   UNL     1      -3.765   2.934  24.313  0.00  0.00    +0.119 C 
BRANCH   9  10
ATOM     10  C   UNL     1      -4.424   2.683  24.741  0.00  0.00    +0.075 A 
ATOM     11  N   UNL     1      -4.792   3.197  25.272  0.00  0.00    -0.247 NA
ATOM     12  C   UNL     1      -5.451   2.946  25.700  0.00  0.00    +0.098 A 
ATOM     13  C   UNL     1      -5.743   2.181  25.597  0.00  0.00    +0.021 A 
ATOM     14  C   UNL     1      -5.376   1.668  25.066  0.00  0.00    +0.003 A 
ATOM     15  C   UNL     1      -4.717   1.918  24.638  0.00  0.00    +0.016 A 
ENDBRANCH   9  10
ENDBRANCH   8   9
TORSDOF 3
ENDMDL
MODEL 5
REMARK VINA RESULT:      -7.5      2.180      4.318
REMARK  Name = 
REMARK  3 active torsions:
REMARK  status: ('A' for Active; 'I' for Inactive)
REMARK    1  A    between atoms: O_2  and  C_3
REMARK    2  A    between atoms: N_8  and  C_9
REMARK    3  A    between atoms: C_9  and  C_10
REMARK                            x       y       z     vdW  Elec       q    Type
REMARK                         _______ _______ _______ _____ _____    ______ ____
ROOT
ATOM      3  C   UNL     1      -4.655   1.588  24.802  0.00  0.00    +0.161 C 
ATOM      4  C   UNL     1      -5.273   1.654  25.345  0.00  0.00    +0.173 C 
ATOM      5  O   UNL     1      -5.536   2.326  25.744  0.00  0.00    -0.350 OA
ATOM      6  C   UNL     1      -5.247   3.098  25.700  0.00  0.00    +0.160 C 
ATOM      7  C   UNL     1      -4.624   3.388  25.245  0.00  0.00    +0.105 C 
ATOM      8  N   UNL     1      -4.134   2.978  24.721  0.00  0.00    -0.263 NA
ATOM     16  C   UNL     1      -4.148   2.177  24.524  0.00  0.00    +0.105 C 
ENDROOT
BRANCH   3   2
ATOM      1  C   UNL     1      -4.399   0.197  25.006  0.00  0.00    +0.174 C 
ATOM      2  O   UNL     1      -4.526   0.833  24.496  0.00  0.00    -0.350 OA
ENDBRANCH   3   2
BRANCH   8   9
ATOM      9  C   UNL     1      -3.555   3.429  24.346  0.00  0.00    +0.119 C 
BRANCH   9  10
ATOM     10  C   UNL     1      -2.829   3.558  24.715  0.00  0.00    +0.075 A 
ATOM     11  N   UNL     1      -2.216   3.012  24.622  0.00  0.00    -0.247 NA
ATOM     12  C   UNL     1      -1.489   3.141  24.991  0.00  0.00    +0.098 A 
ATOM     13  C   UNL     1      -1.376   3.815  25.454  0.00  0.00    +0.021 A 
ATOM     14  C   UNL     1      -1.988   4.359  25.547  0.00  0.00    +0.003 A 
ATOM     15  C   UNL     1      -2.714   4.231  25.178  0.00  0.00    +0.016 A 
ENDBRANCH   9  10
ENDBRANCH   8   9
TORSDOF 3
ENDMDL
