MODEL 1
REMARK VINA RESULT:      -8.2      0.000      0.000
REMARK  Name = 
REMARK  7 active torsions:
REMARK  status: ('A' for Active; 'I' for Inactive)
REMARK    1  A    between atoms: N_2  and  C_4
REMARK    2  A    between atoms: C_7  and  C_8
REMARK    3  A    between atoms: C_8  and  N_9
REMARK    4  A    between atoms: N_9  and  C_10
REMARK    5  A    between atoms: C_14  and  O_18
REMARK    6  A    between atoms: O_18  and  C_19
REMARK    7  A    between atoms: N_21  and  C_22
REMARK                            x       y       z     vdW  Elec       q    Type
REMARK                         _______ _______ _______ _____ _____    ______ ____
ROOT
ATOM     10  C   UNL     1      -1.416   0.128  24.263  0.00  0.00    +0.132 C 
ATOM     11  C   UNL     1      -1.320  -0.691  24.261  0.00  0.00    +0.162 C 
ATOM     12  O   UNL     1      -0.583  -0.860  23.932  0.00  0.00    -0.348 OA
ATOM     13  C   UNL     1      -0.223  -0.146  23.731  0.00  0.00    +0.186 C 
ATOM     14  C   UNL     1       0.454   0.192  23.404  0.00  0.00    +0.229 C 
ATOM     15  C   UNL     1       0.358   1.011  23.405  0.00  0.00    +0.188 C 
ATOM     16  O   UNL     1      -0.379   1.180  23.734  0.00  0.00    -0.348 OA
ATOM     17  C   UNL     1      -0.739   0.465  23.936  0.00  0.00    +0.164 C 
ENDROOT
BRANCH  10   9
ATOM      9  N   UNL     1      -2.075   0.538  24.544  0.00  0.00    -0.210 NA
BRANCH   9   8
ATOM      8  C   UNL     1      -2.834   0.298  24.327  0.00  0.00    +0.115 C 
BRANCH   8   7
ATOM      4  C   UNL     1      -4.798   1.651  24.988  0.00  0.00    +0.048 A 
ATOM      5  C   UNL     1      -4.259   1.948  24.439  0.00  0.00    +0.014 A 
ATOM      6  C   UNL     1      -3.605   1.497  24.218  0.00  0.00    -0.002 A 
ATOM      7  C   UNL     1      -3.488   0.749  24.547  0.00  0.00    -0.005 A 
ATOM     28  C   UNL     1      -4.027   0.452  25.096  0.00  0.00    -0.002 A 
ATOM     29  C   UNL     1      -4.682   0.903  25.317  0.00  0.00    +0.014 A 
BRANCH   4   2
ATOM      1  C   UNL     1      -5.349   2.791  25.650  0.00  0.00    +0.112 C 
ATOM      2  N   UNL     1      -5.453   2.102  25.209  0.00  0.00    -0.304 N 
ATOM      3  C   UNL     1      -6.211   1.863  24.989  0.00  0.00    +0.112 C 
ENDBRANCH   4   2
ENDBRANCH   8   7
ENDBRANCH   9   8
ENDBRANCH  10   9
BRANCH  14  18
ATOM     18  O   UNL     1       1.113  -0.218  23.123  0.00  0.00    -0.432 OA
BRANCH  18  19
ATOM     19  C   UNL     1       1.865   0.117  23.183  0.00  0.00    +0.421 C 
ATOM     20  O   UNL     1       1.971   0.819  23.603  0.00  0.00    -0.225 OA
ATOM     21  N   UNL     1       2.510  -0.248  22.822  0.00  0.00    -0.170 NA
BRANCH  21  22
ATOM     22  C   UNL     1       3.261   0.087  22.882  0.00  0.00    +0.099 C 
ATOM     23  C   UNL     1       3.442   0.772  22.460  0.00  0.00    +0.022 C 
ATOM     24  C   UNL     1       4.193   1.107  22.519  0.00  0.00    +0.002 C 
ATOM     25  C   UNL     1       4.764   0.758  23.002  0.00  0.00    +0.000 C 
ATOM     26  C   UNL     1       4.583   0.072  23.424  0.00  0.00    +0.002 C 
ATOM     27  C   UNL     1       3.832  -0.263  23.364  0.00  0.00    +0.022 C 
ENDBRANCH  21  22
ENDBRANCH  18  19
ENDBRANCH  14  18
TORSDOF 7
ENDMDL
MODEL 2
REMARK VINA RESULT:      -8.2      4.151      5.429
REMARK  Name = 
REMARK  7 active torsions:
REMARK  status: ('A' for Active; 'I' for Inactive)
REMARK    1  A    between atoms: N_2  and  C_4
REMARK    2  A    between atoms: C_7  and  C_8
REMARK    3  A    between atoms: C_8  and  N_9
REMARK    4  A    between atoms: N_9  and  C_10
REMARK    5  A    between atoms: C_14  and  O_18
REMARK    6  A    between atoms: O_18  and  C_19
REMARK    7  A    between atoms: N_21  and  C_22
REMARK                            x       y       z     vdW  Elec       q    Type
REMARK                         _______ _______ _______ _____ _____    ______ ____
ROOT
ATOM     10  C   UNL     1      -4.720   1.129  24.897  0.00  0.00    +0.132 C 
ATOM     11  C   UNL     1      -5.021   1.474  25.584  0.00  0.00    +0.162 C 
ATOM     12  O   UNL     1      -4.816   2.273  25.578  0.00  0.00    -0.348 OA
ATOM     13  C   UNL     1      -4.389   2.422  24.889  0.00  0.00    +0.186 C 
ATOM     14  C   UNL     1      -3.999   3.008  24.459  0.00  0.00    +0.229 C 
ATOM     15  C   UNL     1      -3.697   2.663  23.773  0.00  0.00    +0.188 C 
ATOM     16  O   UNL     1      -3.902   1.864  23.778  0.00  0.00    -0.348 OA
ATOM     17  C   UNL     1      -4.330   1.715  24.468  0.00  0.00    +0.164 C 
ENDROOT
BRANCH  10   9
ATOM      9  N   UNL     1      -4.796   0.337  24.679  0.00  0.00    -0.210 NA
BRANCH   9   8
ATOM      8  C   UNL     1      -4.638  -0.259  25.227  0.00  0.00    +0.115 C 
BRANCH   8   7
ATOM      4  C   UNL     1      -3.285  -2.223  24.567  0.00  0.00    +0.048 A 
ATOM      5  C   UNL     1      -3.135  -1.840  25.283  0.00  0.00    +0.014 A 
ATOM      6  C   UNL     1      -3.586  -1.186  25.503  0.00  0.00    -0.002 A 
ATOM      7  C   UNL     1      -4.187  -0.914  25.007  0.00  0.00    -0.005 A 
ATOM     28  C   UNL     1      -4.337  -1.296  24.292  0.00  0.00    -0.002 A 
ATOM     29  C   UNL     1      -3.886  -1.951  24.072  0.00  0.00    +0.014 A 
BRANCH   4   2
ATOM      1  C   UNL     1      -2.015  -2.810  24.278  0.00  0.00    +0.112 C 
ATOM      2  N   UNL     1      -2.834  -2.878  24.347  0.00  0.00    -0.304 N 
ATOM      3  C   UNL     1      -3.201  -3.601  24.196  0.00  0.00    +0.112 C 
ENDBRANCH   4   2
ENDBRANCH   8   7
ENDBRANCH   9   8
ENDBRANCH  10   9
BRANCH  14  18
ATOM     18  O   UNL     1      -3.923   3.800  24.677  0.00  0.00    -0.432 OA
BRANCH  18  19
ATOM     19  C   UNL     1      -3.201   4.188  24.580  0.00  0.00    +0.421 C 
ATOM     20  O   UNL     1      -3.015   4.537  23.856  0.00  0.00    -0.225 OA
ATOM     21  N   UNL     1      -2.665   4.226  25.205  0.00  0.00    -0.170 NA
BRANCH  21  22
ATOM     22  C   UNL     1      -1.943   4.614  25.107  0.00  0.00    +0.099 C 
ATOM     23  C   UNL     1      -1.249   4.179  25.023  0.00  0.00    +0.022 C 
ATOM     24  C   UNL     1      -0.528   4.566  24.925  0.00  0.00    +0.002 C 
ATOM     25  C   UNL     1      -0.501   5.391  24.912  0.00  0.00    +0.000 C 
ATOM     26  C   UNL     1      -1.196   5.827  24.996  0.00  0.00    +0.002 C 
ATOM     27  C   UNL     1      -1.917   5.439  25.094  0.00  0.00    +0.022 C 
ENDBRANCH  21  22
ENDBRANCH  18  19
ENDBRANCH  14  18
TORSDOF 7
ENDMDL
MODEL 3
REMARK VINA RESULT:      -7.9      1.082      6.983
REMARK  Name = 
REMARK  7 active torsions:
REMARK  status: ('A' for Active; 'I' for Inactive)
REMARK    1  A    between atoms: N_2  and  C_4
REMARK    2  A    between atoms: C_7  and  C_8
REMARK    3  A    between atoms: C_8  and  N_9
REMARK    4  A    between atoms: N_9  and  C_10
REMARK    5  A    between atoms: C_14  and  O_18
REMARK    6  A    between atoms: O_18  and  C_19
REMARK    7  A    between atoms: N_21  and  C_22
REMARK                            x       y       z     vdW  Elec       q    Type
REMARK                         _______ _______ _______ _____ _____    ______ ____
ROOT
ATOM     10  C   UNL     1       0.981   0.363  23.256  0.00  0.00    +0.132 C 
ATOM     11  C   UNL     1       0.619  -0.274  22.879  0.00  0.00    +0.162 C 
ATOM     12  O   UNL     1      -0.165  -0.308  23.132  0.00  0.00    -0.348 OA
ATOM     13  C   UNL     1      -0.288   0.307  23.666  0.00  0.00    +0.186 C 
ATOM     14  C   UNL     1      -0.847   0.668  24.154  0.00  0.00    +0.229 C 
ATOM     15  C   UNL     1      -0.485   1.305  24.532  0.00  0.00    +0.188 C 
ATOM     16  O   UNL     1       0.299   1.339  24.278  0.00  0.00    -0.348 OA
ATOM     17  C   UNL     1       0.421   0.723  23.743  0.00  0.00    +0.164 C 
ENDROOT
BRANCH  10   9
ATOM      9  N   UNL     1       1.766   0.600  23.163  0.00  0.00    -0.210 NA
BRANCH   9   8
ATOM      8  C   UNL     1       2.291   0.131  22.733  0.00  0.00    +0.115 C 
BRANCH   8   7
ATOM      4  C   UNL     1       4.704   0.145  23.281  0.00  0.00    +0.048 A 
ATOM      5  C   UNL     1       4.354   0.810  22.940  0.00  0.00    +0.014 A 
ATOM      6  C   UNL     1       3.551   0.805  22.757  0.00  0.00    -0.002 A 
ATOM      7  C   UNL     1       3.095   0.135  22.915  0.00  0.00    -0.005 A 
ATOM     28  C   UNL     1       3.444  -0.529  23.257  0.00  0.00    -0.002 A 
ATOM     29  C   UNL     1       4.249  -0.525  23.440  0.00  0.00    +0.014 A 
BRANCH   4   2
ATOM      1  C   UNL     1       5.770   0.494  24.166  0.00  0.00    +0.112 C 
ATOM      2  N   UNL     1       5.508   0.149  23.464  0.00  0.00    -0.304 N 
ATOM      3  C   UNL     1       6.052  -0.191  22.945  0.00  0.00    +0.112 C 
ENDBRANCH   4   2
ENDBRANCH   8   7
ENDBRANCH   9   8
ENDBRANCH  10   9
BRANCH  14  18
ATOM     18  O   UNL     1      -1.632   0.431  24.247  0.00  0.00    -0.432 OA
BRANCH  18  19
ATOM     19  C   UNL     1      -2.214   0.990  24.420  0.00  0.00    +0.421 C 
ATOM     20  O   UNL     1      -2.115   1.505  25.056  0.00  0.00    -0.225 OA
ATOM     21  N   UNL     1      -2.895   1.034  23.956  0.00  0.00    -0.170 NA
BRANCH  21  22
ATOM     22  C   UNL     1      -3.477   1.593  24.129  0.00  0.00    +0.099 C 
ATOM     23  C   UNL     1      -4.082   1.409  24.657  0.00  0.00    +0.022 C 
ATOM     24  C   UNL     1      -4.664   1.967  24.829  0.00  0.00    +0.002 C 
ATOM     25  C   UNL     1      -4.640   2.711  24.473  0.00  0.00    +0.000 C 
ATOM     26  C   UNL     1      -4.034   2.896  23.944  0.00  0.00    +0.002 C 
ATOM     27  C   UNL     1      -3.453   2.337  23.773  0.00  0.00    +0.022 C 
ENDBRANCH  21  22
ENDBRANCH  18  19
ENDBRANCH  14  18
TORSDOF 7
ENDMDL
MODEL 4
REMARK VINA RESULT:      -7.8      4.065      5.558
REMARK  Name = 
REMARK  7 active torsions:
REMARK  status: ('A' for Active; 'I' for Inactive)
REMARK    1  A    between atoms: N_2  and  C_4
REMARK    2  A    between atoms: C_7  and  C_8
REMARK    3  A    between atoms: C_8  and  N_9
REMARK    4  A    between atoms: N_9  and  C_10
REMARK    5  A    between atoms: C_14  and  O_18
REMARK    6  A    between atoms: O_18  and  C_19
REMARK    7  A    between atoms: N_21  and  C_22
REMARK                            x       y       z     vdW  Elec       q    Type
REMARK                         _______ _______ _______ _____ _____    ______ ____
ROOT
ATOM     10  C   UNL     1      -4.634   2.384  25.070  0.00  0.00    +0.132 C 
ATOM     11  C   UNL     1      -5.180   2.118  25.628  0.00  0.00    +0.162 C 
ATOM     12  O   UNL     1      -5.260   1.302  25.537  0.00  0.00    -0.348 OA
ATOM     13  C   UNL     1      -4.764   1.064  24.924  0.00  0.00    +0.186 C 
ATOM     14  C   UNL     1      -4.505   0.413  24.488  0.00  0.00    +0.229 C 
ATOM     15  C   UNL     1      -3.959   0.678  23.930  0.00  0.00    +0.188 C 
ATOM     16  O   UNL     1      -3.879   1.494  24.021  0.00  0.00    -0.348 OA
ATOM     17  C   UNL     1      -4.377   1.732  24.635  0.00  0.00    +0.164 C 
ENDROOT
BRANCH  10   9
ATOM      9  N   UNL     1      -4.388   3.165  24.966  0.00  0.00    -0.210 NA
BRANCH   9   8
ATOM      8  C   UNL     1      -4.000   3.561  25.576  0.00  0.00    +0.115 C 
BRANCH   8   7
ATOM      4  C   UNL     1      -1.840   4.689  25.146  0.00  0.00    +0.048 A 
ATOM      5  C   UNL     1      -2.450   4.740  24.592  0.00  0.00    +0.014 A 
ATOM      6  C   UNL     1      -3.169   4.364  24.736  0.00  0.00    -0.002 A 
ATOM      7  C   UNL     1      -3.280   3.937  25.433  0.00  0.00    -0.005 A 
ATOM     28  C   UNL     1      -2.671   3.886  25.986  0.00  0.00    -0.002 A 
ATOM     29  C   UNL     1      -1.950   4.262  25.843  0.00  0.00    +0.014 A 
BRANCH   4   2
ATOM      1  C   UNL     1      -1.088   5.887  24.944  0.00  0.00    +0.112 C 
ATOM      2  N   UNL     1      -1.120   5.065  25.002  0.00  0.00    -0.304 N 
ATOM      3  C   UNL     1      -0.431   4.619  24.916  0.00  0.00    +0.112 C 
ENDBRANCH   4   2
ENDBRANCH   8   7
ENDBRANCH   9   8
ENDBRANCH  10   9
BRANCH  14  18
ATOM     18  O   UNL     1      -4.751  -0.369  24.592  0.00  0.00    -0.432 OA
BRANCH  18  19
ATOM     19  C   UNL     1      -4.243  -0.990  24.400  0.00  0.00    +0.421 C 
ATOM     20  O   UNL     1      -4.146  -1.215  23.612  0.00  0.00    -0.225 OA
ATOM     21  N   UNL     1      -3.833  -1.387  24.995  0.00  0.00    -0.170 NA
BRANCH  21  22
ATOM     22  C   UNL     1      -3.325  -2.009  24.803  0.00  0.00    +0.099 C 
ATOM     23  C   UNL     1      -3.633  -2.753  24.626  0.00  0.00    +0.022 C 
ATOM     24  C   UNL     1      -3.126  -3.374  24.434  0.00  0.00    +0.002 C 
ATOM     25  C   UNL     1      -2.310  -3.251  24.419  0.00  0.00    +0.000 C 
ATOM     26  C   UNL     1      -2.002  -2.506  24.596  0.00  0.00    +0.002 C 
ATOM     27  C   UNL     1      -2.510  -1.885  24.788  0.00  0.00    +0.022 C 
ENDBRANCH  21  22
ENDBRANCH  18  19
ENDBRANCH  14  18
TORSDOF 7
ENDMDL
MODEL 5
REMARK VINA RESULT:      -7.7      3.127      4.623
REMARK  Name = 
REMARK  7 active torsions:
REMARK  status: ('A' for Active; 'I' for Inactive)
REMARK    1  A    between atoms: N_2  and  C_4
REMARK    2  A    between atoms: C_7  and  C_8
REMARK    3  A    between atoms: C_8  and  N_9
REMARK    4  A    between atoms: N_9  and  C_10
REMARK    5  A    between atoms: C_14  and  O_18
REMARK    6  A    between atoms: O_18  and  C_19
REMARK    7  A    between atoms: N_21  and  C_22
REMARK                            x       y       z     vdW  Elec       q    Type
REMARK                         _______ _______ _______ _____ _____    ______ ____
ROOT
ATOM     10  C   UNL     1      -0.897  -0.062  25.235  0.00  0.00    +0.132 C 
ATOM     11  C   UNL     1      -0.822   0.232  26.002  0.00  0.00    +0.162 C 
ATOM     12  O   UNL     1      -0.513   0.995  25.952  0.00  0.00    -0.348 OA
ATOM     13  C   UNL     1      -0.397   1.173  25.156  0.00  0.00    +0.186 C 
ATOM     14  C   UNL     1      -0.133   1.753  24.632  0.00  0.00    +0.229 C 
ATOM     15  C   UNL     1      -0.208   1.459  23.865  0.00  0.00    +0.188 C 
ATOM     16  O   UNL     1      -0.517   0.696  23.915  0.00  0.00    -0.348 OA
ATOM     17  C   UNL     1      -0.634   0.519  24.712  0.00  0.00    +0.164 C 
ENDROOT
BRANCH  10   9
ATOM      9  N   UNL     1      -1.184  -0.807  25.028  0.00  0.00    -0.210 NA
BRANCH   9   8
ATOM      8  C   UNL     1      -1.793  -1.152  25.466  0.00  0.00    +0.115 C 
BRANCH   8   7
ATOM      4  C   UNL     1      -3.575  -2.429  24.320  0.00  0.00    +0.048 A 
ATOM      5  C   UNL     1      -2.794  -2.691  24.286  0.00  0.00    +0.014 A 
ATOM      6  C   UNL     1      -2.200  -2.265  24.668  0.00  0.00    -0.002 A 
ATOM      7  C   UNL     1      -2.387  -1.577  25.084  0.00  0.00    -0.005 A 
ATOM     28  C   UNL     1      -3.168  -1.316  25.118  0.00  0.00    -0.002 A 
ATOM     29  C   UNL     1      -3.763  -1.742  24.736  0.00  0.00    +0.014 A 
BRANCH   4   2
ATOM      1  C   UNL     1      -4.144  -3.679  23.924  0.00  0.00    +0.112 C 
ATOM      2  N   UNL     1      -4.170  -2.855  23.938  0.00  0.00    -0.304 N 
ATOM      3  C   UNL     1      -4.792  -2.456  23.570  0.00  0.00    +0.112 C 
ENDBRANCH   4   2
ENDBRANCH   8   7
ENDBRANCH   9   8
ENDBRANCH  10   9
BRANCH  14  18
ATOM     18  O   UNL     1       0.154   2.499  24.839  0.00  0.00    -0.432 OA
BRANCH  18  19
ATOM     19  C   UNL     1      -0.315   3.168  24.726  0.00  0.00    +0.421 C 
ATOM     20  O   UNL     1      -0.576   3.365  23.969  0.00  0.00    -0.225 OA
ATOM     21  N   UNL     1      -0.522   3.641  25.369  0.00  0.00    -0.170 NA
BRANCH  21  22
ATOM     22  C   UNL     1      -0.990   4.310  25.256  0.00  0.00    +0.099 C 
ATOM     23  C   UNL     1      -1.783   4.302  25.481  0.00  0.00    +0.022 C 
ATOM     24  C   UNL     1      -2.252   4.971  25.368  0.00  0.00    +0.002 C 
ATOM     25  C   UNL     1      -1.927   5.650  25.029  0.00  0.00    +0.000 C 
ATOM     26  C   UNL     1      -1.133   5.658  24.803  0.00  0.00    +0.002 C 
ATOM     27  C   UNL     1      -0.665   4.988  24.917  0.00  0.00    +0.022 C 
ENDBRANCH  21  22
ENDBRANCH  18  19
ENDBRANCH  14  18
TORSDOF 7
ENDMDL
MODEL 6
REMARK VINA RESULT:      -7.7      1.241      2.066
REMARK  Name = 
REMARK  7 active torsions:
REMARK  status: ('A' for Active; 'I' for Inactive)
REMARK    1  A    between atoms: N_2  and  C_4
REMARK    2  A    between atoms: C_7  and  C_8
REMARK    3  A    between atoms: C_8  and  N_9
REMARK    4  A    between atoms: N_9  and  C_10
REMARK    5  A    between atoms: C_14  and  O_18
REMARK    6  A    between atoms: O_18  and  C_19
REMARK    7  A    between atoms: N_21  and  C_22
REMARK                            x       y       z     vdW  Elec       q    Type
REMARK                         _______ _______ _______ _____ _____    ______ ____
ROOT
ATOM     10  C   UNL     1       0.117   0.846  23.933  0.00  0.00    +0.132 C 
ATOM     11  C   UNL     1       0.430   1.564  24.192  0.00  0.00    +0.162 C 
ATOM     12  O   UNL     1       1.185   1.643  23.868  0.00  0.00    -0.348 OA
ATOM     13  C   UNL     1       1.338   0.976  23.410  0.00  0.00    +0.186 C 
ATOM     14  C   UNL     1       1.898   0.611  22.926  0.00  0.00    +0.229 C 
ATOM     15  C   UNL     1       1.584  -0.106  22.667  0.00  0.00    +0.188 C 
ATOM     16  O   UNL     1       0.830  -0.186  22.991  0.00  0.00    -0.348 OA
ATOM     17  C   UNL     1       0.677   0.483  23.450  0.00  0.00    +0.164 C 
ENDROOT
BRANCH  10   9
ATOM      9  N   UNL     1      -0.627   0.545  24.125  0.00  0.00    -0.210 NA
BRANCH   9   8
ATOM      8  C   UNL     1      -1.227   1.054  24.373  0.00  0.00    +0.115 C 
BRANCH   8   7
ATOM      4  C   UNL     1      -3.546   0.220  24.596  0.00  0.00    +0.048 A 
ATOM      5  C   UNL     1      -2.958  -0.057  25.104  0.00  0.00    +0.014 A 
ATOM      6  C   UNL     1      -2.185   0.221  25.030  0.00  0.00    -0.002 A 
ATOM      7  C   UNL     1      -2.000   0.776  24.448  0.00  0.00    -0.005 A 
ATOM     28  C   UNL     1      -2.588   1.052  23.940  0.00  0.00    -0.002 A 
ATOM     29  C   UNL     1      -3.362   0.774  24.014  0.00  0.00    +0.014 A 
BRANCH   4   2
ATOM      1  C   UNL     1      -4.899   0.420  25.011  0.00  0.00    +0.112 C 
ATOM      2  N   UNL     1      -4.320  -0.058  24.670  0.00  0.00    -0.304 N 
ATOM      3  C   UNL     1      -4.514  -0.814  24.403  0.00  0.00    +0.112 C 
ENDBRANCH   4   2
ENDBRANCH   8   7
ENDBRANCH   9   8
ENDBRANCH  10   9
BRANCH  14  18
ATOM     18  O   UNL     1       2.642   0.912  22.735  0.00  0.00    -0.432 OA
BRANCH  18  19
ATOM     19  C   UNL     1       3.322   0.487  22.928  0.00  0.00    +0.421 C 
ATOM     20  O   UNL     1       3.328  -0.335  22.858  0.00  0.00    -0.225 OA
ATOM     21  N   UNL     1       3.995   0.883  23.192  0.00  0.00    -0.170 NA
BRANCH  21  22
ATOM     22  C   UNL     1       4.675   0.458  23.386  0.00  0.00    +0.099 C 
ATOM     23  C   UNL     1       4.847   0.290  24.174  0.00  0.00    +0.022 C 
ATOM     24  C   UNL     1       5.526  -0.135  24.368  0.00  0.00    +0.002 C 
ATOM     25  C   UNL     1       6.035  -0.393  23.772  0.00  0.00    +0.000 C 
ATOM     26  C   UNL     1       5.864  -0.225  22.982  0.00  0.00    +0.002 C 
ATOM     27  C   UNL     1       5.184   0.200  22.789  0.00  0.00    +0.022 C 
ENDBRANCH  21  22
ENDBRANCH  18  19
ENDBRANCH  14  18
TORSDOF 7
ENDMDL
MODEL 7
REMARK VINA RESULT:      -7.6      1.351      6.892
REMARK  Name = 
REMARK  7 active torsions:
REMARK  status: ('A' for Active; 'I' for Inactive)
REMARK    1  A    between atoms: N_2  and  C_4
REMARK    2  A    between atoms: C_7  and  C_8
REMARK    3  A    between atoms: C_8  and  N_9
REMARK    4  A    between atoms: N_9  and  C_10
REMARK    5  A    between atoms: C_14  and  O_18
REMARK    6  A    between atoms: O_18  and  C_19
REMARK    7  A    between atoms: N_21  and  C_22
REMARK                            x       y       z     vdW  Elec       q    Type
REMARK                         _______ _______ _______ _____ _____    ______ ____
ROOT
ATOM     10  C   UNL     1      -0.647   0.563  23.807  0.00  0.00    +0.132 C 
ATOM     11  C   UNL     1      -0.894  -0.044  24.308  0.00  0.00    +0.162 C 
ATOM     12  O   UNL     1      -1.709   0.028  24.412  0.00  0.00    -0.348 OA
ATOM     13  C   UNL     1      -1.966   0.679  23.975  0.00  0.00    +0.186 C 
ATOM     14  C   UNL     1      -2.628   1.126  23.769  0.00  0.00    +0.229 C 
ATOM     15  C   UNL     1      -2.381   1.733  23.268  0.00  0.00    +0.188 C 
ATOM     16  O   UNL     1      -1.566   1.661  23.164  0.00  0.00    -0.348 OA
ATOM     17  C   UNL     1      -1.309   1.009  23.601  0.00  0.00    +0.164 C 
ENDROOT
BRANCH  10   9
ATOM      9  N   UNL     1       0.127   0.700  23.556  0.00  0.00    -0.210 NA
BRANCH   9   8
ATOM      8  C   UNL     1       0.619   0.064  23.370  0.00  0.00    +0.115 C 
BRANCH   8   7
ATOM      4  C   UNL     1       2.976   0.465  22.735  0.00  0.00    +0.048 A 
ATOM      5  C   UNL     1       2.561  -0.164  22.402  0.00  0.00    +0.014 A 
ATOM      6  C   UNL     1       1.776  -0.298  22.613  0.00  0.00    -0.002 A 
ATOM      7  C   UNL     1       1.404   0.198  23.158  0.00  0.00    -0.005 A 
ATOM     28  C   UNL     1       1.820   0.827  23.492  0.00  0.00    -0.002 A 
ATOM     29  C   UNL     1       2.606   0.962  23.280  0.00  0.00    +0.014 A 
BRANCH   4   2
ATOM      1  C   UNL     1       3.953   0.789  21.744  0.00  0.00    +0.112 C 
ATOM      2  N   UNL     1       3.763   0.600  22.524  0.00  0.00    -0.304 N 
ATOM      3  C   UNL     1       4.358   0.544  23.092  0.00  0.00    +0.112 C 
ENDBRANCH   4   2
ENDBRANCH   8   7
ENDBRANCH   9   8
ENDBRANCH  10   9
BRANCH  14  18
ATOM     18  O   UNL     1      -3.402   0.989  24.020  0.00  0.00    -0.432 OA
BRANCH  18  19
ATOM     19  C   UNL     1      -3.883   1.623  24.239  0.00  0.00    +0.421 C 
ATOM     20  O   UNL     1      -4.094   2.193  23.681  0.00  0.00    -0.225 OA
ATOM     21  N   UNL     1      -4.153   1.687  25.016  0.00  0.00    -0.170 NA
BRANCH  21  22
ATOM     22  C   UNL     1      -4.634   2.321  25.235  0.00  0.00    +0.099 C 
ATOM     23  C   UNL     1      -4.296   3.049  25.425  0.00  0.00    +0.022 C 
ATOM     24  C   UNL     1      -4.776   3.682  25.644  0.00  0.00    +0.002 C 
ATOM     25  C   UNL     1      -5.596   3.588  25.673  0.00  0.00    +0.000 C 
ATOM     26  C   UNL     1      -5.934   2.859  25.483  0.00  0.00    +0.002 C 
ATOM     27  C   UNL     1      -5.453   2.226  25.264  0.00  0.00    +0.022 C 
ENDBRANCH  21  22
ENDBRANCH  18  19
ENDBRANCH  14  18
TORSDOF 7
ENDMDL
MODEL 8
REMARK VINA RESULT:      -7.6      3.313      5.192
REMARK  Name = 
REMARK  7 active torsions:
REMARK  status: ('A' for Active; 'I' for Inactive)
REMARK    1  A    between atoms: N_2  and  C_4
REMARK    2  A    between atoms: C_7  and  C_8
REMARK    3  A    between atoms: C_8  and  N_9
REMARK    4  A    between atoms: N_9  and  C_10
REMARK    5  A    between atoms: C_14  and  O_18
REMARK    6  A    between atoms: O_18  and  C_19
REMARK    7  A    between atoms: N_21  and  C_22
REMARK                            x       y       z     vdW  Elec       q    Type
REMARK                         _______ _______ _______ _____ _____    ______ ____
ROOT
ATOM     10  C   UNL     1      -0.630   0.949  25.499  0.00  0.00    +0.132 C 
ATOM     11  C   UNL     1      -0.963   0.657  26.195  0.00  0.00    +0.162 C 
ATOM     12  O   UNL     1      -1.128  -0.143  26.082  0.00  0.00    -0.348 OA
ATOM     13  C   UNL     1      -0.898  -0.346  25.317  0.00  0.00    +0.186 C 
ATOM     14  C   UNL     1      -0.858  -0.965  24.774  0.00  0.00    +0.229 C 
ATOM     15  C   UNL     1      -0.525  -0.673  24.078  0.00  0.00    +0.188 C 
ATOM     16  O   UNL     1      -0.360   0.127  24.191  0.00  0.00    -0.348 OA
ATOM     17  C   UNL     1      -0.590   0.330  24.957  0.00  0.00    +0.164 C 
ENDROOT
BRANCH  10   9
ATOM      9  N   UNL     1      -0.381   1.725  25.369  0.00  0.00    -0.210 NA
BRANCH   9   8
ATOM      8  C   UNL     1      -0.535   2.308  25.932  0.00  0.00    +0.115 C 
BRANCH   8   7
ATOM      4  C   UNL     1      -1.178   4.586  25.212  0.00  0.00    +0.048 A 
ATOM      5  C   UNL     1      -1.681   4.151  25.699  0.00  0.00    +0.014 A 
ATOM      6  C   UNL     1      -1.467   3.392  25.939  0.00  0.00    -0.002 A 
ATOM      7  C   UNL     1      -0.750   3.067  25.692  0.00  0.00    -0.005 A 
ATOM     28  C   UNL     1      -0.247   3.503  25.205  0.00  0.00    -0.002 A 
ATOM     29  C   UNL     1      -0.461   4.263  24.965  0.00  0.00    +0.014 A 
BRANCH   4   2
ATOM      1  C   UNL     1      -0.834   5.841  24.622  0.00  0.00    +0.112 C 
ATOM      2  N   UNL     1      -1.393   5.346  24.972  0.00  0.00    -0.304 N 
ATOM      3  C   UNL     1      -2.166   5.612  25.082  0.00  0.00    +0.112 C 
ENDBRANCH   4   2
ENDBRANCH   8   7
ENDBRANCH   9   8
ENDBRANCH  10   9
BRANCH  14  18
ATOM     18  O   UNL     1      -1.106  -1.741  24.904  0.00  0.00    -0.432 OA
BRANCH  18  19
ATOM     19  C   UNL     1      -1.778  -2.029  24.521  0.00  0.00    +0.421 C 
ATOM     20  O   UNL     1      -1.713  -2.363  23.770  0.00  0.00    -0.225 OA
ATOM     21  N   UNL     1      -2.515  -1.983  24.889  0.00  0.00    -0.170 NA
BRANCH  21  22
ATOM     22  C   UNL     1      -3.186  -2.271  24.506  0.00  0.00    +0.099 C 
ATOM     23  C   UNL     1      -3.336  -3.082  24.489  0.00  0.00    +0.022 C 
ATOM     24  C   UNL     1      -4.007  -3.369  24.106  0.00  0.00    +0.002 C 
ATOM     25  C   UNL     1      -4.530  -2.846  23.740  0.00  0.00    +0.000 C 
ATOM     26  C   UNL     1      -4.381  -2.035  23.758  0.00  0.00    +0.002 C 
ATOM     27  C   UNL     1      -3.709  -1.747  24.141  0.00  0.00    +0.022 C 
ENDBRANCH  21  22
ENDBRANCH  18  19
ENDBRANCH  14  18
TORSDOF 7
ENDMDL
MODEL 9
REMARK VINA RESULT:      -6.7     17.382     17.866
REMARK  Name = 
REMARK  7 active torsions:
REMARK  status: ('A' for Active; 'I' for Inactive)
REMARK    1  A    between atoms: N_2  and  C_4
REMARK    2  A    between atoms: C_7  and  C_8
REMARK    3  A    between atoms: C_8  and  N_9
REMARK    4  A    between atoms: N_9  and  C_10
REMARK    5  A    between atoms: C_14  and  O_18
REMARK    6  A    between atoms: O_18  and  C_19
REMARK    7  A    between atoms: N_21  and  C_22
REMARK                            x       y       z     vdW  Elec       q    Type
REMARK                         _______ _______ _______ _____ _____    ______ ____
ROOT
ATOM     10  C   UNL     1      -6.528  -8.420   8.940  0.00  0.00    +0.132 C 
ATOM     11  C   UNL     1      -6.441  -9.032   8.394  0.00  0.00    +0.162 C 
ATOM     12  O   UNL     1      -5.865  -9.549   8.680  0.00  0.00    -0.348 OA
ATOM     13  C   UNL     1      -5.596  -9.256   9.403  0.00  0.00    +0.186 C 
ATOM     14  C   UNL     1      -5.075  -9.394  10.027  0.00  0.00    +0.229 C 
ATOM     15  C   UNL     1      -5.162  -8.782  10.573  0.00  0.00    +0.188 C 
ATOM     16  O   UNL     1      -5.738  -8.266  10.286  0.00  0.00    -0.348 OA
ATOM     17  C   UNL     1      -6.006  -8.559   9.563  0.00  0.00    +0.164 C 
ENDROOT
BRANCH  10   9
ATOM      9  N   UNL     1      -7.047  -7.782   8.874  0.00  0.00    -0.210 NA
BRANCH   9   8
ATOM      8  C   UNL     1      -7.750  -7.863   8.449  0.00  0.00    +0.115 C 
BRANCH   8   7
ATOM      4  C   UNL     1      -9.410  -6.028   8.439  0.00  0.00    +0.048 A 
ATOM      5  C   UNL     1      -8.658  -5.905   8.124  0.00  0.00    +0.014 A 
ATOM      6  C   UNL     1      -8.105  -6.517   8.127  0.00  0.00    -0.002 A 
ATOM      7  C   UNL     1      -8.303  -7.252   8.446  0.00  0.00    -0.005 A 
ATOM     28  C   UNL     1      -9.055  -7.375   8.761  0.00  0.00    -0.002 A 
ATOM     29  C   UNL     1      -9.609  -6.763   8.758  0.00  0.00    +0.014 A 
BRANCH   4   2
ATOM      1  C   UNL     1      -9.765  -4.678   8.745  0.00  0.00    +0.112 C 
ATOM      2  N   UNL     1      -9.964  -5.417   8.436  0.00  0.00    -0.304 N 
ATOM      3  C   UNL     1     -10.717  -5.543   8.124  0.00  0.00    +0.112 C 
ENDBRANCH   4   2
ENDBRANCH   8   7
ENDBRANCH   9   8
ENDBRANCH  10   9
BRANCH  14  18
ATOM     18  O   UNL     1      -4.556 -10.032  10.093  0.00  0.00    -0.432 OA
BRANCH  18  19
ATOM     19  C   UNL     1      -3.932 -10.003  10.632  0.00  0.00    +0.421 C 
ATOM     20  O   UNL     1      -3.432  -9.347  10.648  0.00  0.00    -0.225 OA
ATOM     21  N   UNL     1      -3.807 -10.629  11.154  0.00  0.00    -0.170 NA
BRANCH  21  22
ATOM     22  C   UNL     1      -3.183 -10.600  11.693  0.00  0.00    +0.099 C 
ATOM     23  C   UNL     1      -2.405 -10.578  11.422  0.00  0.00    +0.022 C 
ATOM     24  C   UNL     1      -1.781 -10.549  11.959  0.00  0.00    +0.002 C 
ATOM     25  C   UNL     1      -1.935 -10.541  12.770  0.00  0.00    +0.000 C 
ATOM     26  C   UNL     1      -2.714 -10.563  13.042  0.00  0.00    +0.002 C 
ATOM     27  C   UNL     1      -3.338 -10.592  12.503  0.00  0.00    +0.022 C 
ENDBRANCH  21  22
ENDBRANCH  18  19
ENDBRANCH  14  18
TORSDOF 7
ENDMDL
MODEL 10
REMARK VINA RESULT:      -6.6     14.422     16.384
REMARK  Name = 
REMARK  7 active torsions:
REMARK  status: ('A' for Active; 'I' for Inactive)
REMARK    1  A    between atoms: N_2  and  C_4
REMARK    2  A    between atoms: C_7  and  C_8
REMARK    3  A    between atoms: C_8  and  N_9
REMARK    4  A    between atoms: N_9  and  C_10
REMARK    5  A    between atoms: C_14  and  O_18
REMARK    6  A    between atoms: O_18  and  C_19
REMARK    7  A    between atoms: N_21  and  C_22
REMARK                            x       y       z     vdW  Elec       q    Type
REMARK                         _______ _______ _______ _____ _____    ______ ____
ROOT
ATOM     10  C   UNL     1      -5.983 -10.336  14.484  0.00  0.00    +0.132 C 
ATOM     11  C   UNL     1      -6.629 -10.779  14.227  0.00  0.00    +0.162 C 
ATOM     12  O   UNL     1      -7.221 -10.722  14.798  0.00  0.00    -0.348 OA
ATOM     13  C   UNL     1      -6.941 -10.243  15.409  0.00  0.00    +0.186 C 
ATOM     14  C   UNL     1      -7.133  -9.912  16.139  0.00  0.00    +0.229 C 
ATOM     15  C   UNL     1      -6.487  -9.468  16.397  0.00  0.00    +0.188 C 
ATOM     16  O   UNL     1      -5.896  -9.525  15.825  0.00  0.00    -0.348 OA
ATOM     17  C   UNL     1      -6.176 -10.005  15.214  0.00  0.00    +0.164 C 
ENDROOT
BRANCH  10   9
ATOM      9  N   UNL     1      -5.269 -10.240  14.082  0.00  0.00    -0.210 NA
BRANCH   9   8
ATOM      8  C   UNL     1      -5.107 -10.697  13.414  0.00  0.00    +0.115 C 
BRANCH   8   7
ATOM      4  C   UNL     1      -3.080 -10.250  12.068  0.00  0.00    +0.048 A 
ATOM      5  C   UNL     1      -3.826 -10.088  11.756  0.00  0.00    +0.014 A 
ATOM      6  C   UNL     1      -4.502 -10.237  12.205  0.00  0.00    -0.002 A 
ATOM      7  C   UNL     1      -4.432 -10.548  12.966  0.00  0.00    -0.005 A 
ATOM     28  C   UNL     1      -3.685 -10.710  13.278  0.00  0.00    -0.002 A 
ATOM     29  C   UNL     1      -3.009 -10.561  12.829  0.00  0.00    +0.014 A 
BRANCH   4   2
ATOM      1  C   UNL     1      -1.661 -10.308  11.911  0.00  0.00    +0.112 C 
ATOM      2  N   UNL     1      -2.404 -10.100  11.619  0.00  0.00    -0.304 N 
ATOM      3  C   UNL     1      -2.470  -9.743  10.878  0.00  0.00    +0.112 C 
ENDBRANCH   4   2
ENDBRANCH   8   7
ENDBRANCH   9   8
ENDBRANCH  10   9
BRANCH  14  18
ATOM     18  O   UNL     1      -7.847 -10.007  16.542  0.00  0.00    -0.432 OA
BRANCH  18  19
ATOM     19  C   UNL     1      -8.308  -9.348  16.727  0.00  0.00    +0.421 C 
ATOM     20  O   UNL     1      -7.985  -8.729  17.166  0.00  0.00    -0.225 OA
ATOM     21  N   UNL     1      -9.092  -9.308  16.474  0.00  0.00    -0.170 NA
BRANCH  21  22
ATOM     22  C   UNL     1      -9.553  -8.650  16.659  0.00  0.00    +0.099 C 
ATOM     23  C   UNL     1      -9.925  -8.599  17.393  0.00  0.00    +0.022 C 
ATOM     24  C   UNL     1     -10.385  -7.941  17.579  0.00  0.00    +0.002 C 
ATOM     25  C   UNL     1     -10.474  -7.332  17.029  0.00  0.00    +0.000 C 
ATOM     26  C   UNL     1     -10.102  -7.382  16.294  0.00  0.00    +0.002 C 
ATOM     27  C   UNL     1      -9.642  -8.041  16.109  0.00  0.00    +0.022 C 
ENDBRANCH  21  22
ENDBRANCH  18  19
ENDBRANCH  14  18
TORSDOF 7
ENDMDL
