MODEL 1
REMARK VINA RESULT:      -9.3      0.000      0.000
REMARK  Name = 
REMARK  8 active torsions:
REMARK  status: ('A' for Active; 'I' for Inactive)
REMARK    1  A    between atoms: C_2  and  C_4
REMARK    2  A    between atoms: C_6  and  C_7
REMARK    3  A    between atoms: C_7  and  C_8
REMARK    4  A    between atoms: N_10  and  C_11
REMARK    5  A    between atoms: C_11  and  C_12
REMARK    6  A    between atoms: C_21  and  C_22
REMARK    7  A    between atoms: C_22  and  N_23
REMARK    8  A    between atoms: N_26  and  C_27
REMARK                            x       y       z     vdW  Elec       q    Type
REMARK                         _______ _______ _______ _____ _____    ______ ____
ROOT
ATOM      4  C   UNL     1      -0.462   1.407  24.416  0.00  0.00    +0.006 C 
ATOM      5  C   UNL     1       0.131   0.892  24.164  0.00  0.00    +0.005 C 
ATOM      6  C   UNL     1      -0.052   0.108  23.983  0.00  0.00    +0.027 C 
ATOM     18  C   UNL     1      -0.828  -0.161  24.054  0.00  0.00    -0.048 C 
ATOM     19  C   UNL     1      -1.011  -0.946  23.873  0.00  0.00    +0.026 C 
ATOM     20  C   UNL     1      -1.422   0.353  24.306  0.00  0.00    -0.033 C 
ATOM     21  C   UNL     1      -1.239   1.137  24.487  0.00  0.00    +0.043 C 
ENDROOT
BRANCH   4   2
ATOM      1  C   UNL     1      -0.031   2.390  25.358  0.00  0.00    +0.000 C 
ATOM      2  C   UNL     1      -0.280   2.189  24.597  0.00  0.00    +0.000 C 
ATOM      3  C   UNL     1      -0.345   2.773  24.017  0.00  0.00    +0.000 C 
ENDBRANCH   4   2
BRANCH   6   7
ATOM      7  C   UNL     1       0.541  -0.406  23.731  0.00  0.00    +0.091 C 
BRANCH   7   8
ATOM      8  C   UNL     1       1.049  -0.182  23.119  0.00  0.00    +0.242 C 
ATOM      9  O   UNL     1       0.745  -0.024  22.369  0.00  0.00    -0.273 OA
ATOM     10  N   UNL     1       1.859  -0.116  23.259  0.00  0.00    -0.200 NA
BRANCH  10  11
ATOM     11  C   UNL     1       2.366   0.108  22.648  0.00  0.00    +0.143 C 
BRANCH  11  12
ATOM     12  C   UNL     1       3.170   0.217  22.797  0.00  0.00    +0.019 A 
ATOM     13  C   UNL     1       3.517   0.955  22.664  0.00  0.00    +0.001 A 
ATOM     14  C   UNL     1       4.321   1.064  22.813  0.00  0.00    +0.020 A 
ATOM     15  C   UNL     1       4.777   0.439  23.095  0.00  0.00    +0.099 A 
ATOM     16  N   UNL     1       4.431  -0.298  23.228  0.00  0.00    -0.243 NA
ATOM     17  C   UNL     1       3.626  -0.408  23.078  0.00  0.00    +0.096 A 
ENDBRANCH  11  12
ENDBRANCH  10  11
ENDBRANCH   7   8
ENDBRANCH   6   7
BRANCH  21  22
ATOM     22  C   UNL     1      -1.833   1.652  24.740  0.00  0.00    +0.121 C 
BRANCH  22  23
ATOM     23  N   UNL     1      -2.595   1.586  24.429  0.00  0.00    -0.187 NA
ATOM     24  C   UNL     1      -3.235   1.910  24.837  0.00  0.00    +0.339 C 
ATOM     25  O   UNL     1      -3.113   2.298  25.553  0.00  0.00    -0.249 OA
ATOM     26  N   UNL     1      -3.997   1.844  24.526  0.00  0.00    -0.189 NA
BRANCH  26  27
ATOM     27  C   UNL     1      -4.637   2.168  24.934  0.00  0.00    +0.097 C 
ATOM     28  C   UNL     1      -5.175   1.672  25.316  0.00  0.00    +0.022 C 
ATOM     29  C   UNL     1      -5.815   1.996  25.724  0.00  0.00    +0.002 C 
ATOM     30  C   UNL     1      -5.917   2.813  25.750  0.00  0.00    +0.000 C 
ATOM     31  C   UNL     1      -5.379   3.309  25.368  0.00  0.00    +0.002 C 
ATOM     32  C   UNL     1      -4.738   2.985  24.960  0.00  0.00    +0.022 C 
ENDBRANCH  26  27
ENDBRANCH  22  23
ENDBRANCH  21  22
TORSDOF 8
ENDMDL
MODEL 2
REMARK VINA RESULT:      -8.9      1.072      6.641
REMARK  Name = 
REMARK  8 active torsions:
REMARK  status: ('A' for Active; 'I' for Inactive)
REMARK    1  A    between atoms: C_2  and  C_4
REMARK    2  A    between atoms: C_6  and  C_7
REMARK    3  A    between atoms: C_7  and  C_8
REMARK    4  A    between atoms: N_10  and  C_11
REMARK    5  A    between atoms: C_11  and  C_12
REMARK    6  A    between atoms: C_21  and  C_22
REMARK    7  A    between atoms: C_22  and  N_23
REMARK    8  A    between atoms: N_26  and  C_27
REMARK                            x       y       z     vdW  Elec       q    Type
REMARK                         _______ _______ _______ _____ _____    ______ ____
ROOT
ATOM      4  C   UNL     1      -1.065   1.189  24.290  0.00  0.00    +0.006 C 
ATOM      5  C   UNL     1      -1.803   0.925  24.544  0.00  0.00    +0.005 C 
ATOM      6  C   UNL     1      -1.946   0.117  24.630  0.00  0.00    +0.027 C 
ATOM     18  C   UNL     1      -1.349  -0.427  24.463  0.00  0.00    -0.048 C 
ATOM     19  C   UNL     1      -1.491  -1.236  24.550  0.00  0.00    +0.026 C 
ATOM     20  C   UNL     1      -0.609  -0.163  24.209  0.00  0.00    -0.033 C 
ATOM     21  C   UNL     1      -0.467   0.645  24.123  0.00  0.00    +0.043 C 
ENDROOT
BRANCH   4   2
ATOM      1  C   UNL     1      -0.629   2.435  24.838  0.00  0.00    +0.000 C 
ATOM      2  C   UNL     1      -0.922   1.996  24.203  0.00  0.00    +0.000 C 
ATOM      3  C   UNL     1      -1.074   2.367  23.482  0.00  0.00    +0.000 C 
ENDBRANCH   4   2
BRANCH   6   7
ATOM      7  C   UNL     1      -2.684  -0.146  24.884  0.00  0.00    +0.091 C 
BRANCH   7   8
ATOM      8  C   UNL     1      -3.371   0.160  24.543  0.00  0.00    +0.242 C 
ATOM      9  O   UNL     1      -3.583  -0.056  23.776  0.00  0.00    -0.273 OA
ATOM     10  N   UNL     1      -3.846   0.683  24.971  0.00  0.00    -0.200 NA
BRANCH  10  11
ATOM     11  C   UNL     1      -4.532   0.989  24.630  0.00  0.00    +0.143 C 
BRANCH  11  12
ATOM     12  C   UNL     1      -4.935   1.608  24.998  0.00  0.00    +0.019 A 
ATOM     13  C   UNL     1      -4.755   2.390  24.805  0.00  0.00    +0.001 A 
ATOM     14  C   UNL     1      -5.159   3.008  25.173  0.00  0.00    +0.020 A 
ATOM     15  C   UNL     1      -5.740   2.846  25.733  0.00  0.00    +0.099 A 
ATOM     16  N   UNL     1      -5.920   2.064  25.927  0.00  0.00    -0.243 NA
ATOM     17  C   UNL     1      -5.517   1.445  25.559  0.00  0.00    +0.096 A 
ENDBRANCH  11  12
ENDBRANCH  10  11
ENDBRANCH   7   8
ENDBRANCH   6   7
BRANCH  21  22
ATOM     22  C   UNL     1       0.273   0.909  23.868  0.00  0.00    +0.121 C 
BRANCH  22  23
ATOM     23  N   UNL     1       0.748   0.419  23.405  0.00  0.00    -0.187 NA
ATOM     24  C   UNL     1       1.562   0.548  23.371  0.00  0.00    +0.339 C 
ATOM     25  O   UNL     1       1.900   1.166  23.799  0.00  0.00    -0.249 OA
ATOM     26  N   UNL     1       2.038   0.058  22.907  0.00  0.00    -0.189 NA
BRANCH  26  27
ATOM     27  C   UNL     1       2.852   0.188  22.873  0.00  0.00    +0.097 C 
ATOM     28  C   UNL     1       3.368  -0.328  23.261  0.00  0.00    +0.022 C 
ATOM     29  C   UNL     1       4.182  -0.198  23.226  0.00  0.00    +0.002 C 
ATOM     30  C   UNL     1       4.480   0.445  22.806  0.00  0.00    +0.000 C 
ATOM     31  C   UNL     1       3.965   0.960  22.419  0.00  0.00    +0.002 C 
ATOM     32  C   UNL     1       3.150   0.831  22.453  0.00  0.00    +0.022 C 
ENDBRANCH  26  27
ENDBRANCH  22  23
ENDBRANCH  21  22
TORSDOF 8
ENDMDL
MODEL 3
REMARK VINA RESULT:      -8.3      3.669      5.487
REMARK  Name = 
REMARK  8 active torsions:
REMARK  status: ('A' for Active; 'I' for Inactive)
REMARK    1  A    between atoms: C_2  and  C_4
REMARK    2  A    between atoms: C_6  and  C_7
REMARK    3  A    between atoms: C_7  and  C_8
REMARK    4  A    between atoms: N_10  and  C_11
REMARK    5  A    between atoms: C_11  and  C_12
REMARK    6  A    between atoms: C_21  and  C_22
REMARK    7  A    between atoms: C_22  and  N_23
REMARK    8  A    between atoms: N_26  and  C_27
REMARK                            x       y       z     vdW  Elec       q    Type
REMARK                         _______ _______ _______ _____ _____    ______ ____
ROOT
ATOM      4  C   UNL     1      -3.559   2.047  23.889  0.00  0.00    +0.006 C 
ATOM      5  C   UNL     1      -3.646   2.808  24.195  0.00  0.00    +0.005 C 
ATOM      6  C   UNL     1      -4.215   2.958  24.773  0.00  0.00    +0.027 C 
ATOM     18  C   UNL     1      -4.698   2.347  25.045  0.00  0.00    -0.048 C 
ATOM     19  C   UNL     1      -5.268   2.498  25.624  0.00  0.00    +0.026 C 
ATOM     20  C   UNL     1      -4.612   1.586  24.739  0.00  0.00    -0.033 C 
ATOM     21  C   UNL     1      -4.042   1.435  24.161  0.00  0.00    +0.043 C 
ENDROOT
BRANCH   4   2
ATOM      1  C   UNL     1      -3.161   2.040  22.517  0.00  0.00    +0.000 C 
ATOM      2  C   UNL     1      -2.990   1.897  23.312  0.00  0.00    +0.000 C 
ATOM      3  C   UNL     1      -2.250   1.604  23.528  0.00  0.00    +0.000 C 
ENDBRANCH   4   2
BRANCH   6   7
ATOM      7  C   UNL     1      -4.301   3.719  25.079  0.00  0.00    +0.091 C 
BRANCH   7   8
ATOM      8  C   UNL     1      -3.706   4.045  25.549  0.00  0.00    +0.242 C 
ATOM      9  O   UNL     1      -3.769   4.021  26.370  0.00  0.00    -0.273 OA
ATOM     10  N   UNL     1      -3.047   4.395  25.195  0.00  0.00    -0.200 NA
BRANCH  10  11
ATOM     11  C   UNL     1      -2.452   4.720  25.665  0.00  0.00    +0.143 C 
BRANCH  11  12
ATOM     12  C   UNL     1      -1.706   4.866  25.344  0.00  0.00    +0.019 A 
ATOM     13  C   UNL     1      -1.125   4.281  25.370  0.00  0.00    +0.001 A 
ATOM     14  C   UNL     1      -0.379   4.427  25.049  0.00  0.00    +0.020 A 
ATOM     15  C   UNL     1      -0.214   5.156  24.703  0.00  0.00    +0.099 A 
ATOM     16  N   UNL     1      -0.795   5.741  24.677  0.00  0.00    -0.243 NA
ATOM     17  C   UNL     1      -1.541   5.596  24.998  0.00  0.00    +0.096 A 
ENDBRANCH  11  12
ENDBRANCH  10  11
ENDBRANCH   7   8
ENDBRANCH   6   7
BRANCH  21  22
ATOM     22  C   UNL     1      -3.956   0.674  23.855  0.00  0.00    +0.121 C 
BRANCH  22  23
ATOM     23  N   UNL     1      -4.313   0.034  24.234  0.00  0.00    -0.187 NA
ATOM     24  C   UNL     1      -3.973  -0.715  24.186  0.00  0.00    +0.339 C 
ATOM     25  O   UNL     1      -3.277  -0.826  23.759  0.00  0.00    -0.249 OA
ATOM     26  N   UNL     1      -4.330  -1.356  24.565  0.00  0.00    -0.189 NA
BRANCH  26  27
ATOM     27  C   UNL     1      -3.990  -2.106  24.517  0.00  0.00    +0.097 C 
ATOM     28  C   UNL     1      -3.467  -2.360  25.103  0.00  0.00    +0.022 C 
ATOM     29  C   UNL     1      -3.127  -3.109  25.055  0.00  0.00    +0.002 C 
ATOM     30  C   UNL     1      -3.308  -3.605  24.421  0.00  0.00    +0.000 C 
ATOM     31  C   UNL     1      -3.830  -3.351  23.835  0.00  0.00    +0.002 C 
ATOM     32  C   UNL     1      -4.171  -2.601  23.883  0.00  0.00    +0.022 C 
ENDBRANCH  26  27
ENDBRANCH  22  23
ENDBRANCH  21  22
TORSDOF 8
ENDMDL
MODEL 4
REMARK VINA RESULT:      -8.2      1.810      6.241
REMARK  Name = 
REMARK  8 active torsions:
REMARK  status: ('A' for Active; 'I' for Inactive)
REMARK    1  A    between atoms: C_2  and  C_4
REMARK    2  A    between atoms: C_6  and  C_7
REMARK    3  A    between atoms: C_7  and  C_8
REMARK    4  A    between atoms: N_10  and  C_11
REMARK    5  A    between atoms: C_11  and  C_12
REMARK    6  A    between atoms: C_21  and  C_22
REMARK    7  A    between atoms: C_22  and  N_23
REMARK    8  A    between atoms: N_26  and  C_27
REMARK                            x       y       z     vdW  Elec       q    Type
REMARK                         _______ _______ _______ _____ _____    ______ ____
ROOT
ATOM      4  C   UNL     1      -1.128   1.449  24.746  0.00  0.00    +0.006 C 
ATOM      5  C   UNL     1      -1.950   1.510  24.718  0.00  0.00    +0.005 C 
ATOM      6  C   UNL     1      -2.337   1.549  23.991  0.00  0.00    +0.027 C 
ATOM     18  C   UNL     1      -1.902   1.527  23.291  0.00  0.00    -0.048 C 
ATOM     19  C   UNL     1      -2.290   1.567  22.562  0.00  0.00    +0.026 C 
ATOM     20  C   UNL     1      -1.080   1.466  23.317  0.00  0.00    -0.033 C 
ATOM     21  C   UNL     1      -0.692   1.427  24.044  0.00  0.00    +0.043 C 
ENDROOT
BRANCH   4   2
ATOM      1  C   UNL     1      -0.454   2.099  25.825  0.00  0.00    +0.000 C 
ATOM      2  C   UNL     1      -0.741   1.410  25.472  0.00  0.00    +0.000 C 
ATOM      3  C   UNL     1      -0.641   0.682  25.848  0.00  0.00    +0.000 C 
ENDBRANCH   4   2
BRANCH   6   7
ATOM      7  C   UNL     1      -3.159   1.610  23.964  0.00  0.00    +0.091 C 
BRANCH   7   8
ATOM      8  C   UNL     1      -3.626   1.089  24.403  0.00  0.00    +0.242 C 
ATOM      9  O   UNL     1      -4.027   1.358  25.071  0.00  0.00    -0.273 OA
ATOM     10  N   UNL     1      -3.691   0.299  24.172  0.00  0.00    -0.200 NA
BRANCH  10  11
ATOM     11  C   UNL     1      -4.157  -0.221  24.610  0.00  0.00    +0.143 C 
BRANCH  11  12
ATOM     12  C   UNL     1      -4.059  -1.036  24.525  0.00  0.00    +0.019 A 
ATOM     13  C   UNL     1      -3.660  -1.466  25.107  0.00  0.00    +0.001 A 
ATOM     14  C   UNL     1      -3.562  -2.280  25.022  0.00  0.00    +0.020 A 
ATOM     15  C   UNL     1      -3.860  -2.665  24.358  0.00  0.00    +0.099 A 
ATOM     16  N   UNL     1      -4.258  -2.236  23.776  0.00  0.00    -0.243 NA
ATOM     17  C   UNL     1      -4.357  -1.421  23.861  0.00  0.00    +0.096 A 
ENDBRANCH  11  12
ENDBRANCH  10  11
ENDBRANCH   7   8
ENDBRANCH   6   7
BRANCH  21  22
ATOM     22  C   UNL     1       0.131   1.366  24.072  0.00  0.00    +0.121 C 
BRANCH  22  23
ATOM     23  N   UNL     1       0.528   0.904  23.516  0.00  0.00    -0.187 NA
ATOM     24  C   UNL     1       1.352   0.909  23.490  0.00  0.00    +0.339 C 
ATOM     25  O   UNL     1       1.778   1.375  24.019  0.00  0.00    -0.249 OA
ATOM     26  N   UNL     1       1.750   0.447  22.934  0.00  0.00    -0.189 NA
BRANCH  26  27
ATOM     27  C   UNL     1       2.575   0.452  22.908  0.00  0.00    +0.097 C 
ATOM     28  C   UNL     1       2.998  -0.225  23.119  0.00  0.00    +0.022 C 
ATOM     29  C   UNL     1       3.822  -0.220  23.093  0.00  0.00    +0.002 C 
ATOM     30  C   UNL     1       4.223   0.460  22.858  0.00  0.00    +0.000 C 
ATOM     31  C   UNL     1       3.801   1.137  22.648  0.00  0.00    +0.002 C 
ATOM     32  C   UNL     1       2.976   1.132  22.673  0.00  0.00    +0.022 C 
ENDBRANCH  26  27
ENDBRANCH  22  23
ENDBRANCH  21  22
TORSDOF 8
ENDMDL
MODEL 5
REMARK VINA RESULT:      -8.1      1.249      6.888
REMARK  Name = 
REMARK  8 active torsions:
REMARK  status: ('A' for Active; 'I' for Inactive)
REMARK    1  A    between atoms: C_2  and  C_4
REMARK    2  A    between atoms: C_6  and  C_7
REMARK    3  A    between atoms: C_7  and  C_8
REMARK    4  A    between atoms: N_10  and  C_11
REMARK    5  A    between atoms: C_11  and  C_12
REMARK    6  A    between atoms: C_21  and  C_22
REMARK    7  A    between atoms: C_22  and  N_23
REMARK    8  A    between atoms: N_26  and  C_27
REMARK                            x       y       z     vdW  Elec       q    Type
REMARK                         _______ _______ _______ _____ _____    ______ ____
ROOT
ATOM      4  C   UNL     1      -1.340   1.756  24.869  0.00  0.00    +0.006 C 
ATOM      5  C   UNL     1      -1.891   2.293  25.166  0.00  0.00    +0.005 C 
ATOM      6  C   UNL     1      -1.694   3.091  25.235  0.00  0.00    +0.027 C 
ATOM     18  C   UNL     1      -0.945   3.352  25.007  0.00  0.00    -0.048 C 
ATOM     19  C   UNL     1      -0.748   4.151  25.076  0.00  0.00    +0.026 C 
ATOM     20  C   UNL     1      -0.393   2.815  24.710  0.00  0.00    -0.033 C 
ATOM     21  C   UNL     1      -0.591   2.017  24.641  0.00  0.00    +0.043 C 
ENDROOT
BRANCH   4   2
ATOM      1  C   UNL     1      -1.390   0.441  25.426  0.00  0.00    +0.000 C 
ATOM      2  C   UNL     1      -1.537   0.959  24.800  0.00  0.00    +0.000 C 
ATOM      3  C   UNL     1      -1.881   0.677  24.105  0.00  0.00    +0.000 C 
ENDBRANCH   4   2
BRANCH   6   7
ATOM      7  C   UNL     1      -2.245   3.628  25.532  0.00  0.00    +0.091 C 
BRANCH   7   8
ATOM      8  C   UNL     1      -2.980   3.710  25.164  0.00  0.00    +0.242 C 
ATOM      9  O   UNL     1      -3.042   4.125  24.455  0.00  0.00    -0.273 OA
ATOM     10  N   UNL     1      -3.652   3.376  25.508  0.00  0.00    -0.200 NA
BRANCH  10  11
ATOM     11  C   UNL     1      -4.386   3.458  25.141  0.00  0.00    +0.143 C 
BRANCH  11  12
ATOM     12  C   UNL     1      -5.011   2.963  25.352  0.00  0.00    +0.019 A 
ATOM     13  C   UNL     1      -5.247   2.357  24.843  0.00  0.00    +0.001 A 
ATOM     14  C   UNL     1      -5.872   1.862  25.054  0.00  0.00    +0.020 A 
ATOM     15  C   UNL     1      -6.260   1.971  25.772  0.00  0.00    +0.099 A 
ATOM     16  N   UNL     1      -6.025   2.575  26.282  0.00  0.00    -0.243 NA
ATOM     17  C   UNL     1      -5.399   3.071  26.071  0.00  0.00    +0.096 A 
ENDBRANCH  11  12
ENDBRANCH  10  11
ENDBRANCH   7   8
ENDBRANCH   6   7
BRANCH  21  22
ATOM     22  C   UNL     1      -0.039   1.480  24.344  0.00  0.00    +0.121 C 
BRANCH  22  23
ATOM     23  N   UNL     1       0.712   1.740  24.121  0.00  0.00    -0.187 NA
ATOM     24  C   UNL     1       1.217   1.235  23.710  0.00  0.00    +0.339 C 
ATOM     25  O   UNL     1       0.974   0.471  23.522  0.00  0.00    -0.249 OA
ATOM     26  N   UNL     1       1.969   1.496  23.487  0.00  0.00    -0.189 NA
BRANCH  26  27
ATOM     27  C   UNL     1       2.474   0.990  23.076  0.00  0.00    +0.097 C 
ATOM     28  C   UNL     1       3.291   1.113  23.103  0.00  0.00    +0.022 C 
ATOM     29  C   UNL     1       3.797   0.607  22.692  0.00  0.00    +0.002 C 
ATOM     30  C   UNL     1       3.488  -0.019  22.255  0.00  0.00    +0.000 C 
ATOM     31  C   UNL     1       2.673  -0.142  22.228  0.00  0.00    +0.002 C 
ATOM     32  C   UNL     1       2.166   0.364  22.639  0.00  0.00    +0.022 C 
ENDBRANCH  26  27
ENDBRANCH  22  23
ENDBRANCH  21  22
TORSDOF 8
ENDMDL
MODEL 6
REMARK VINA RESULT:      -7.9      2.760      4.820
REMARK  Name = 
REMARK  8 active torsions:
REMARK  status: ('A' for Active; 'I' for Inactive)
REMARK    1  A    between atoms: C_2  and  C_4
REMARK    2  A    between atoms: C_6  and  C_7
REMARK    3  A    between atoms: C_7  and  C_8
REMARK    4  A    between atoms: N_10  and  C_11
REMARK    5  A    between atoms: C_11  and  C_12
REMARK    6  A    between atoms: C_21  and  C_22
REMARK    7  A    between atoms: C_22  and  N_23
REMARK    8  A    between atoms: N_26  and  C_27
REMARK                            x       y       z     vdW  Elec       q    Type
REMARK                         _______ _______ _______ _____ _____    ______ ____
ROOT
ATOM      4  C   UNL     1      -0.227   0.120  24.235  0.00  0.00    +0.006 C 
ATOM      5  C   UNL     1      -0.361  -0.660  24.469  0.00  0.00    +0.005 C 
ATOM      6  C   UNL     1      -0.707  -0.818  25.201  0.00  0.00    +0.027 C 
ATOM     18  C   UNL     1      -0.919  -0.196  25.699  0.00  0.00    -0.048 C 
ATOM     19  C   UNL     1      -1.266  -0.355  26.432  0.00  0.00    +0.026 C 
ATOM     20  C   UNL     1      -0.786   0.584  25.466  0.00  0.00    -0.033 C 
ATOM     21  C   UNL     1      -0.440   0.742  24.734  0.00  0.00    +0.043 C 
ENDROOT
BRANCH   4   2
ATOM      1  C   UNL     1      -0.357   0.407  22.841  0.00  0.00    +0.000 C 
ATOM      2  C   UNL     1       0.119   0.278  23.504  0.00  0.00    +0.000 C 
ATOM      3  C   UNL     1       0.940   0.307  23.433  0.00  0.00    +0.000 C 
ENDBRANCH   4   2
BRANCH   6   7
ATOM      7  C   UNL     1      -0.840  -1.597  25.434  0.00  0.00    +0.091 C 
BRANCH   7   8
ATOM      8  C   UNL     1      -1.229  -2.119  24.926  0.00  0.00    +0.242 C 
ATOM      9  O   UNL     1      -0.796  -2.666  24.486  0.00  0.00    -0.273 OA
ATOM     10  N   UNL     1      -2.051  -2.093  24.858  0.00  0.00    -0.200 NA
BRANCH  10  11
ATOM     11  C   UNL     1      -2.440  -2.614  24.350  0.00  0.00    +0.143 C 
BRANCH  11  12
ATOM     12  C   UNL     1      -3.234  -2.495  24.164  0.00  0.00    +0.019 A 
ATOM     13  C   UNL     1      -3.519  -1.729  24.047  0.00  0.00    +0.001 A 
ATOM     14  C   UNL     1      -4.314  -1.609  23.861  0.00  0.00    +0.020 A 
ATOM     15  C   UNL     1      -4.823  -2.254  23.793  0.00  0.00    +0.099 A 
ATOM     16  N   UNL     1      -4.539  -3.019  23.910  0.00  0.00    -0.243 NA
ATOM     17  C   UNL     1      -3.743  -3.139  24.096  0.00  0.00    +0.096 A 
ENDBRANCH  11  12
ENDBRANCH  10  11
ENDBRANCH   7   8
ENDBRANCH   6   7
BRANCH  21  22
ATOM     22  C   UNL     1      -0.306   1.523  24.501  0.00  0.00    +0.121 C 
BRANCH  22  23
ATOM     23  N   UNL     1      -0.295   2.125  25.064  0.00  0.00    -0.187 NA
ATOM     24  C   UNL     1      -0.642   2.854  24.894  0.00  0.00    +0.339 C 
ATOM     25  O   UNL     1      -0.999   2.980  24.162  0.00  0.00    -0.249 OA
ATOM     26  N   UNL     1      -0.631   3.457  25.458  0.00  0.00    -0.189 NA
BRANCH  26  27
ATOM     27  C   UNL     1      -0.978   4.186  25.287  0.00  0.00    +0.097 C 
ATOM     28  C   UNL     1      -1.759   4.333  25.511  0.00  0.00    +0.022 C 
ATOM     29  C   UNL     1      -2.106   5.062  25.341  0.00  0.00    +0.002 C 
ATOM     30  C   UNL     1      -1.673   5.643  24.948  0.00  0.00    +0.000 C 
ATOM     31  C   UNL     1      -0.893   5.496  24.724  0.00  0.00    +0.002 C 
ATOM     32  C   UNL     1      -0.546   4.767  24.894  0.00  0.00    +0.022 C 
ENDBRANCH  26  27
ENDBRANCH  22  23
ENDBRANCH  21  22
TORSDOF 8
ENDMDL
