MODEL 1
REMARK VINA RESULT:     -12.9      0.000      0.000
REMARK  Name = 
REMARK  4 active torsions:
REMARK  status: ('A' for Active; 'I' for Inactive)
REMARK    1  A    between atoms: C_7  and  C_8
REMARK    2  A    between atoms: N_10  and  C_11
REMARK    3  A    between atoms: C_17  and  C_18
REMARK    4  A    between atoms: C_21  and  N_24
REMARK                            x       y       z     vdW  Elec       q    Type
REMARK                         _______ _______ _______ _____ _____    ______ ____
ROOT
ATOM     11  C   UNL     1      -4.010   1.078  24.586  0.00  0.00    +0.133 C 
ATOM     12  C   UNL     1      -4.725   1.429  24.802  0.00  0.00    +0.202 C 
ATOM     13  O   UNL     1      -5.456   1.050  24.850  0.00  0.00    -0.219 OA
ATOM     14  C   UNL     1      -4.580   2.226  24.961  0.00  0.00    +0.184 C 
ATOM     15  O   UNL     1      -5.141   2.783  25.196  0.00  0.00    -0.220 OA
ATOM     16  C   UNL     1      -3.776   2.367  24.844  0.00  0.00    +0.042 C 
ATOM     17  C   UNL     1      -3.423   1.658  24.612  0.00  0.00    +0.049 C 
ENDROOT
BRANCH  17  18
ATOM     18  C   UNL     1      -2.624   1.548  24.437  0.00  0.00    -0.001 A 
ATOM     19  C   UNL     1      -2.379   1.489  23.651  0.00  0.00    +0.000 A 
ATOM     20  C   UNL     1      -1.580   1.379  23.477  0.00  0.00    +0.034 A 
ATOM     21  C   UNL     1      -1.027   1.328  24.087  0.00  0.00    +0.132 A 
ATOM     22  N   UNL     1      -1.273   1.386  24.872  0.00  0.00    -0.229 NA
ATOM     23  C   UNL     1      -2.072   1.496  25.048  0.00  0.00    +0.096 A 
BRANCH  21  24
ATOM     24  N   UNL     1      -0.229   1.217  23.913  0.00  0.00    -0.288 N 
ATOM     25  C   UNL     1       0.025   0.508  23.577  0.00  0.00    +0.124 C 
ATOM     26  C   UNL     1       0.825   0.398  23.402  0.00  0.00    +0.164 C 
ATOM     27  O   UNL     1       1.369   0.996  23.563  0.00  0.00    -0.350 OA
ATOM     28  C   UNL     1       1.114   1.706  23.898  0.00  0.00    +0.164 C 
ATOM     29  C   UNL     1       0.315   1.816  24.073  0.00  0.00    +0.124 C 
ENDBRANCH  21  24
ENDBRANCH  17  18
BRANCH  11  10
ATOM      8  C   UNL     1      -4.112  -0.309  24.910  0.00  0.00    +0.265 C 
ATOM      9  O   UNL     1      -4.432  -0.114  25.644  0.00  0.00    -0.268 OA
ATOM     10  N   UNL     1      -3.901   0.288  24.381  0.00  0.00    -0.200 NA
BRANCH   8   7
ATOM      1  C   UNL     1      -3.391  -1.346  25.972  0.00  0.00    +0.031 C 
ATOM      2  C   UNL     1      -3.643  -1.618  25.235  0.00  0.00    -0.017 A 
ATOM      3  C   UNL     1      -3.534  -2.411  25.029  0.00  0.00    -0.004 A 
ATOM      4  C   UNL     1      -3.785  -2.684  24.293  0.00  0.00    -0.000 A 
ATOM      5  C   UNL     1      -4.145  -2.166  23.762  0.00  0.00    +0.000 A 
ATOM      6  C   UNL     1      -4.254  -1.374  23.968  0.00  0.00    +0.004 A 
ATOM      7  C   UNL     1      -4.003  -1.101  24.704  0.00  0.00    +0.051 A 
ENDBRANCH   8   7
ENDBRANCH  11  10
TORSDOF 4
ENDMDL
MODEL 2
REMARK VINA RESULT:     -12.2      2.381      3.723
REMARK  Name = 
REMARK  4 active torsions:
REMARK  status: ('A' for Active; 'I' for Inactive)
REMARK    1  A    between atoms: C_7  and  C_8
REMARK    2  A    between atoms: N_10  and  C_11
REMARK    3  A    between atoms: C_17  and  C_18
REMARK    4  A    between atoms: C_21  and  N_24
REMARK                            x       y       z     vdW  Elec       q    Type
REMARK                         _______ _______ _______ _____ _____    ______ ____
ROOT
ATOM     11  C   UNL     1      -2.015   3.728  25.224  0.00  0.00    +0.133 C 
ATOM     12  C   UNL     1      -1.889   4.542  25.212  0.00  0.00    +0.202 C 
ATOM     13  O   UNL     1      -2.461   5.123  25.342  0.00  0.00    -0.219 OA
ATOM     14  C   UNL     1      -1.092   4.676  25.047  0.00  0.00    +0.184 C 
ATOM     15  O   UNL     1      -0.726   5.412  24.983  0.00  0.00    -0.220 OA
ATOM     16  C   UNL     1      -0.724   3.942  24.956  0.00  0.00    +0.042 C 
ATOM     17  C   UNL     1      -1.295   3.356  25.066  0.00  0.00    +0.049 C 
ENDROOT
BRANCH  17  18
ATOM     18  C   UNL     1      -1.168   2.542  25.025  0.00  0.00    -0.001 A 
ATOM     19  C   UNL     1      -1.082   2.102  25.718  0.00  0.00    +0.000 A 
ATOM     20  C   UNL     1      -0.955   1.289  25.677  0.00  0.00    +0.034 A 
ATOM     21  C   UNL     1      -0.913   0.914  24.943  0.00  0.00    +0.132 A 
ATOM     22  N   UNL     1      -0.998   1.354  24.250  0.00  0.00    -0.229 NA
ATOM     23  C   UNL     1      -1.126   2.168  24.290  0.00  0.00    +0.096 A 
BRANCH  21  24
ATOM     24  N   UNL     1      -0.786   0.100  24.901  0.00  0.00    -0.288 N 
ATOM     25  C   UNL     1      -1.150  -0.402  25.445  0.00  0.00    +0.124 C 
ATOM     26  C   UNL     1      -1.023  -1.216  25.404  0.00  0.00    +0.164 C 
ATOM     27  O   UNL     1      -0.532  -1.529  24.819  0.00  0.00    -0.350 OA
ATOM     28  C   UNL     1      -0.168  -1.026  24.275  0.00  0.00    +0.164 C 
ATOM     29  C   UNL     1      -0.295  -0.212  24.316  0.00  0.00    +0.124 C 
ENDBRANCH  21  24
ENDBRANCH  17  18
BRANCH  11  10
ATOM      8  C   UNL     1      -3.399   3.545  24.922  0.00  0.00    +0.265 C 
ATOM      9  O   UNL     1      -3.345   4.119  24.331  0.00  0.00    -0.268 OA
ATOM     10  N   UNL     1      -2.733   3.350  25.368  0.00  0.00    -0.200 NA
BRANCH   8   7
ATOM      1  C   UNL     1      -4.189   2.778  23.693  0.00  0.00    +0.031 C 
ATOM      2  C   UNL     1      -4.513   2.784  24.452  0.00  0.00    -0.017 A 
ATOM      3  C   UNL     1      -5.232   2.405  24.596  0.00  0.00    -0.004 A 
ATOM      4  C   UNL     1      -5.556   2.411  25.354  0.00  0.00    -0.000 A 
ATOM      5  C   UNL     1      -5.162   2.794  25.968  0.00  0.00    +0.000 A 
ATOM      6  C   UNL     1      -4.442   3.173  25.824  0.00  0.00    +0.004 A 
ATOM      7  C   UNL     1      -4.118   3.167  25.066  0.00  0.00    +0.051 A 
ENDBRANCH   8   7
ENDBRANCH  11  10
TORSDOF 4
ENDMDL
MODEL 3
REMARK VINA RESULT:     -12.1      1.717      4.138
REMARK  Name = 
REMARK  4 active torsions:
REMARK  status: ('A' for Active; 'I' for Inactive)
REMARK    1  A    between atoms: C_7  and  C_8
REMARK    2  A    between atoms: N_10  and  C_11
REMARK    3  A    between atoms: C_17  and  C_18
REMARK    4  A    between atoms: C_21  and  N_24
REMARK                            x       y       z     vdW  Elec       q    Type
REMARK                         _______ _______ _______ _____ _____    ______ ____
ROOT
ATOM     11  C   UNL     1      -3.605   2.505  25.197  0.00  0.00    +0.133 C 
ATOM     12  C   UNL     1      -3.963   3.245  25.263  0.00  0.00    +0.202 C 
ATOM     13  O   UNL     1      -3.593   3.943  25.501  0.00  0.00    -0.219 OA
ATOM     14  C   UNL     1      -4.757   3.165  25.049  0.00  0.00    +0.184 C 
ATOM     15  O   UNL     1      -5.318   3.768  25.036  0.00  0.00    -0.220 OA
ATOM     16  C   UNL     1      -4.889   2.375  24.851  0.00  0.00    +0.042 C 
ATOM     17  C   UNL     1      -4.177   1.966  24.942  0.00  0.00    +0.049 C 
ENDROOT
BRANCH  17  18
ATOM     18  C   UNL     1      -4.059   1.162  24.803  0.00  0.00    -0.001 A 
ATOM     19  C   UNL     1      -4.099   0.625  25.429  0.00  0.00    +0.000 A 
ATOM     20  C   UNL     1      -3.980  -0.179  25.290  0.00  0.00    +0.034 A 
ATOM     21  C   UNL     1      -3.822  -0.447  24.526  0.00  0.00    +0.132 A 
ATOM     22  N   UNL     1      -3.782   0.090  23.901  0.00  0.00    -0.229 NA
ATOM     23  C   UNL     1      -3.900   0.894  24.039  0.00  0.00    +0.096 A 
BRANCH  21  24
ATOM     24  N   UNL     1      -3.703  -1.251  24.387  0.00  0.00    -0.288 N 
ATOM     25  C   UNL     1      -3.023  -1.623  24.670  0.00  0.00    +0.124 C 
ATOM     26  C   UNL     1      -2.904  -2.427  24.531  0.00  0.00    +0.164 C 
ATOM     27  O   UNL     1      -3.465  -2.861  24.109  0.00  0.00    -0.350 OA
ATOM     28  C   UNL     1      -4.145  -2.489  23.826  0.00  0.00    +0.164 C 
ATOM     29  C   UNL     1      -4.264  -1.684  23.965  0.00  0.00    +0.124 C 
ENDBRANCH  21  24
ENDBRANCH  17  18
BRANCH  11  10
ATOM      8  C   UNL     1      -2.217   2.793  25.026  0.00  0.00    +0.265 C 
ATOM      9  O   UNL     1      -2.410   3.427  24.534  0.00  0.00    -0.268 OA
ATOM     10  N   UNL     1      -2.816   2.332  25.357  0.00  0.00    -0.200 NA
BRANCH   8   7
ATOM      1  C   UNL     1      -1.136   2.654  23.787  0.00  0.00    +0.031 C 
ATOM      2  C   UNL     1      -0.886   2.551  24.567  0.00  0.00    -0.017 A 
ATOM      3  C   UNL     1      -0.095   2.379  24.727  0.00  0.00    -0.004 A 
ATOM      4  C   UNL     1       0.155   2.276  25.506  0.00  0.00    -0.000 A 
ATOM      5  C   UNL     1      -0.385   2.346  26.125  0.00  0.00    +0.000 A 
ATOM      6  C   UNL     1      -1.177   2.518  25.965  0.00  0.00    +0.004 A 
ATOM      7  C   UNL     1      -1.426   2.621  25.186  0.00  0.00    +0.051 A 
ENDBRANCH   8   7
ENDBRANCH  11  10
TORSDOF 4
ENDMDL
MODEL 4
REMARK VINA RESULT:     -11.8      1.356      3.771
REMARK  Name = 
REMARK  4 active torsions:
REMARK  status: ('A' for Active; 'I' for Inactive)
REMARK    1  A    between atoms: C_7  and  C_8
REMARK    2  A    between atoms: N_10  and  C_11
REMARK    3  A    between atoms: C_17  and  C_18
REMARK    4  A    between atoms: C_21  and  N_24
REMARK                            x       y       z     vdW  Elec       q    Type
REMARK                         _______ _______ _______ _____ _____    ______ ____
ROOT
ATOM     11  C   UNL     1      -1.383   0.476  24.203  0.00  0.00    +0.133 C 
ATOM     12  C   UNL     1      -0.590   0.342  24.020  0.00  0.00    +0.202 C 
ATOM     13  O   UNL     1      -0.246  -0.391  23.862  0.00  0.00    -0.219 OA
ATOM     14  C   UNL     1      -0.201   1.070  24.022  0.00  0.00    +0.184 C 
ATOM     15  O   UNL     1       0.600   1.192  23.867  0.00  0.00    -0.220 OA
ATOM     16  C   UNL     1      -0.754   1.654  24.207  0.00  0.00    +0.042 C 
ATOM     17  C   UNL     1      -1.485   1.287  24.318  0.00  0.00    +0.049 C 
ENDROOT
BRANCH  17  18
ATOM     18  C   UNL     1      -2.193   1.665  24.512  0.00  0.00    -0.001 A 
ATOM     19  C   UNL     1      -2.788   1.740  23.945  0.00  0.00    +0.000 A 
ATOM     20  C   UNL     1      -3.495   2.118  24.138  0.00  0.00    +0.034 A 
ATOM     21  C   UNL     1      -3.608   2.420  24.898  0.00  0.00    +0.132 A 
ATOM     22  N   UNL     1      -3.012   2.345  25.464  0.00  0.00    -0.229 NA
ATOM     23  C   UNL     1      -2.304   1.967  25.271  0.00  0.00    +0.096 A 
BRANCH  21  24
ATOM     24  N   UNL     1      -4.315   2.797  25.091  0.00  0.00    -0.288 N 
ATOM     25  C   UNL     1      -4.998   2.353  25.216  0.00  0.00    +0.124 C 
ATOM     26  C   UNL     1      -5.706   2.731  25.410  0.00  0.00    +0.164 C 
ATOM     27  O   UNL     1      -5.730   3.553  25.478  0.00  0.00    -0.350 OA
ATOM     28  C   UNL     1      -5.047   3.997  25.353  0.00  0.00    +0.164 C 
ATOM     29  C   UNL     1      -4.339   3.619  25.160  0.00  0.00    +0.124 C 
ENDBRANCH  21  24
ENDBRANCH  17  18
BRANCH  11  10
ATOM      8  C   UNL     1      -1.874  -0.739  24.771  0.00  0.00    +0.265 C 
ATOM      9  O   UNL     1      -1.187  -0.803  25.224  0.00  0.00    -0.268 OA
ATOM     10  N   UNL     1      -1.971  -0.099  24.260  0.00  0.00    -0.200 NA
BRANCH   8   7
ATOM      1  C   UNL     1      -2.449  -1.185  26.252  0.00  0.00    +0.031 C 
ATOM      2  C   UNL     1      -2.750  -1.537  25.569  0.00  0.00    -0.017 A 
ATOM      3  C   UNL     1      -3.339  -2.113  25.626  0.00  0.00    -0.004 A 
ATOM      4  C   UNL     1      -3.639  -2.465  24.944  0.00  0.00    -0.000 A 
ATOM      5  C   UNL     1      -3.352  -2.242  24.204  0.00  0.00    +0.000 A 
ATOM      6  C   UNL     1      -2.763  -1.666  24.147  0.00  0.00    +0.004 A 
ATOM      7  C   UNL     1      -2.462  -1.314  24.829  0.00  0.00    +0.051 A 
ENDBRANCH   8   7
ENDBRANCH  11  10
TORSDOF 4
ENDMDL
MODEL 5
REMARK VINA RESULT:     -11.7      1.815      4.414
REMARK  Name = 
REMARK  4 active torsions:
REMARK  status: ('A' for Active; 'I' for Inactive)
REMARK    1  A    between atoms: C_7  and  C_8
REMARK    2  A    between atoms: N_10  and  C_11
REMARK    3  A    between atoms: C_17  and  C_18
REMARK    4  A    between atoms: C_21  and  N_24
REMARK                            x       y       z     vdW  Elec       q    Type
REMARK                         _______ _______ _______ _____ _____    ______ ____
ROOT
ATOM     11  C   UNL     1      -1.553   1.981  25.351  0.00  0.00    +0.133 C 
ATOM     12  C   UNL     1      -0.906   2.474  25.482  0.00  0.00    +0.202 C 
ATOM     13  O   UNL     1      -0.938   3.275  25.677  0.00  0.00    -0.219 OA
ATOM     14  C   UNL     1      -0.219   2.026  25.384  0.00  0.00    +0.184 C 
ATOM     15  O   UNL     1       0.554   2.301  25.464  0.00  0.00    -0.220 OA
ATOM     16  C   UNL     1      -0.443   1.256  25.193  0.00  0.00    +0.042 C 
ATOM     17  C   UNL     1      -1.267   1.227  25.172  0.00  0.00    +0.049 C 
ENDROOT
BRANCH  17  18
ATOM     18  C   UNL     1      -1.725   0.562  25.002  0.00  0.00    -0.001 A 
ATOM     19  C   UNL     1      -2.106   0.156  25.612  0.00  0.00    +0.000 A 
ATOM     20  C   UNL     1      -2.563  -0.508  25.442  0.00  0.00    +0.034 A 
ATOM     21  C   UNL     1      -2.641  -0.767  24.663  0.00  0.00    +0.132 A 
ATOM     22  N   UNL     1      -2.261  -0.362  24.053  0.00  0.00    -0.229 NA
ATOM     23  C   UNL     1      -1.803   0.303  24.222  0.00  0.00    +0.096 A 
BRANCH  21  24
ATOM     24  N   UNL     1      -3.099  -1.432  24.493  0.00  0.00    -0.288 N 
ATOM     25  C   UNL     1      -3.827  -1.345  24.115  0.00  0.00    +0.124 C 
ATOM     26  C   UNL     1      -4.285  -2.010  23.944  0.00  0.00    +0.164 C 
ATOM     27  O   UNL     1      -4.015  -2.762  24.152  0.00  0.00    -0.350 OA
ATOM     28  C   UNL     1      -3.287  -2.848  24.530  0.00  0.00    +0.164 C 
ATOM     29  C   UNL     1      -2.829  -2.184  24.700  0.00  0.00    +0.124 C 
ENDBRANCH  21  24
ENDBRANCH  17  18
BRANCH  11  10
ATOM      8  C   UNL     1      -2.620   2.842  24.951  0.00  0.00    +0.265 C 
ATOM      9  O   UNL     1      -2.099   3.262  24.469  0.00  0.00    -0.268 OA
ATOM     10  N   UNL     1      -2.346   2.201  25.391  0.00  0.00    -0.200 NA
BRANCH   8   7
ATOM      1  C   UNL     1      -3.496   3.026  23.565  0.00  0.00    +0.031 C 
ATOM      2  C   UNL     1      -3.852   3.154  24.299  0.00  0.00    -0.017 A 
ATOM      3  C   UNL     1      -4.647   3.375  24.339  0.00  0.00    -0.004 A 
ATOM      4  C   UNL     1      -5.002   3.503  25.072  0.00  0.00    -0.000 A 
ATOM      5  C   UNL     1      -4.564   3.410  25.764  0.00  0.00    +0.000 A 
ATOM      6  C   UNL     1      -3.769   3.190  25.724  0.00  0.00    +0.004 A 
ATOM      7  C   UNL     1      -3.414   3.062  24.991  0.00  0.00    +0.051 A 
ENDBRANCH   8   7
ENDBRANCH  11  10
TORSDOF 4
ENDMDL
