MODEL 1
REMARK VINA RESULT:      -8.8      0.000      0.000
REMARK  Name = 
REMARK  7 active torsions:
REMARK  status: ('A' for Active; 'I' for Inactive)
REMARK    1  A    between atoms: O_2  and  C_3
REMARK    2  A    between atoms: C_4  and  C_9
REMARK    3  A    between atoms: N_14  and  C_15
REMARK    4  A    between atoms: C_19  and  N_23
REMARK    5  A    between atoms: N_23  and  S_24
REMARK    6  A    between atoms: S_24  and  C_27
REMARK    7  A    between atoms: C_27  and  C_28
REMARK                            x       y       z     vdW  Elec       q    Type
REMARK                         _______ _______ _______ _____ _____    ______ ____
ROOT
ATOM     15  C   UNL     1      -0.096   0.765  24.066  0.00  0.00    +0.154 C 
ATOM     16  C   UNL     1      -0.485   0.038  24.066  0.00  0.00    +0.166 C 
ATOM     17  O   UNL     1      -1.297   0.184  24.073  0.00  0.00    -0.350 OA
ATOM     18  C   UNL     1      -1.410   1.000  24.078  0.00  0.00    +0.164 C 
ATOM     19  C   UNL     1      -1.980   1.596  24.085  0.00  0.00    +0.156 C 
ATOM     20  C   UNL     1      -1.591   2.323  24.085  0.00  0.00    +0.164 C 
ATOM     21  O   UNL     1      -0.779   2.177  24.078  0.00  0.00    -0.350 OA
ATOM     22  C   UNL     1      -0.667   1.360  24.073  0.00  0.00    +0.166 C 
ENDROOT
BRANCH  15  14
ATOM      9  C   UNL     1       2.462   0.272  22.890  0.00  0.00    +0.089 A 
ATOM     10  C   UNL     1       2.106  -0.200  22.314  0.00  0.00    +0.040 A 
ATOM     11  C   UNL     1       1.289  -0.312  22.320  0.00  0.00    +0.103 A 
ATOM     12  N   UNL     1       0.827   0.047  22.902  0.00  0.00    -0.211 NA
ATOM     13  C   UNL     1       1.184   0.519  23.478  0.00  0.00    +0.237 A 
ATOM     14  N   UNL     1       0.722   0.878  24.060  0.00  0.00    -0.200 NA
ATOM     34  N   UNL     1       2.000   0.631  23.471  0.00  0.00    -0.212 NA
BRANCH   9   4
ATOM      3  C   UNL     1       3.779  -0.204  23.175  0.00  0.00    +0.140 A 
ATOM      4  C   UNL     1       3.279   0.384  22.883  0.00  0.00    +0.052 A 
ATOM      5  C   UNL     1       3.596   1.084  22.584  0.00  0.00    +0.005 A 
ATOM      6  C   UNL     1       4.414   1.197  22.578  0.00  0.00    +0.000 A 
ATOM      7  C   UNL     1       4.914   0.609  22.870  0.00  0.00    +0.003 A 
ATOM      8  C   UNL     1       4.596  -0.091  23.169  0.00  0.00    +0.037 A 
BRANCH   3   2
ATOM      1  C   UNL     1       3.958  -1.476  23.800  0.00  0.00    +0.252 C 
ATOM      2  O   UNL     1       3.461  -0.904  23.474  0.00  0.00    -0.471 OA
ENDBRANCH   3   2
ENDBRANCH   9   4
ENDBRANCH  15  14
BRANCH  19  23
ATOM     23  N   UNL     1      -2.798   1.484  24.091  0.00  0.00    -0.078 NA
BRANCH  23  24
ATOM     24  S   UNL     1      -3.299   2.111  24.280  0.00  0.00    +0.062 S 
ATOM     25  O   UNL     1      -3.458   2.225  23.479  0.00  0.00    -0.156 OA
ATOM     26  O   UNL     1      -3.140   1.997  25.082  0.00  0.00    -0.156 OA
BRANCH  24  27
ATOM     27  C   UNL     1      -3.800   2.738  24.469  0.00  0.00    +0.197 C 
BRANCH  27  28
ATOM     28  C   UNL     1      -4.532   2.591  24.821  0.00  0.00    +0.003 A 
ATOM     29  C   UNL     1      -5.044   2.035  24.491  0.00  0.00    -0.003 A 
ATOM     30  C   UNL     1      -5.776   1.887  24.843  0.00  0.00    -0.000 A 
ATOM     31  C   UNL     1      -5.994   2.295  25.526  0.00  0.00    -0.000 A 
ATOM     32  C   UNL     1      -5.482   2.851  25.857  0.00  0.00    -0.000 A 
ATOM     33  C   UNL     1      -4.751   2.998  25.505  0.00  0.00    -0.003 A 
ENDBRANCH  27  28
ENDBRANCH  24  27
ENDBRANCH  23  24
ENDBRANCH  19  23
TORSDOF 7
ENDMDL
MODEL 2
REMARK VINA RESULT:      -8.7      1.457      7.053
REMARK  Name = 
REMARK  7 active torsions:
REMARK  status: ('A' for Active; 'I' for Inactive)
REMARK    1  A    between atoms: O_2  and  C_3
REMARK    2  A    between atoms: C_4  and  C_9
REMARK    3  A    between atoms: N_14  and  C_15
REMARK    4  A    between atoms: C_19  and  N_23
REMARK    5  A    between atoms: N_23  and  S_24
REMARK    6  A    between atoms: S_24  and  C_27
REMARK    7  A    between atoms: C_27  and  C_28
REMARK                            x       y       z     vdW  Elec       q    Type
REMARK                         _______ _______ _______ _____ _____    ______ ____
ROOT
ATOM     15  C   UNL     1      -1.121   0.407  24.593  0.00  0.00    +0.154 C 
ATOM     16  C   UNL     1      -1.029  -0.400  24.736  0.00  0.00    +0.166 C 
ATOM     17  O   UNL     1      -0.328  -0.643  24.375  0.00  0.00    -0.350 OA
ATOM     18  C   UNL     1       0.012   0.012  24.010  0.00  0.00    +0.164 C 
ATOM     19  C   UNL     1       0.655   0.268  23.561  0.00  0.00    +0.156 C 
ATOM     20  C   UNL     1       0.563   1.075  23.417  0.00  0.00    +0.164 C 
ATOM     21  O   UNL     1      -0.138   1.318  23.778  0.00  0.00    -0.350 OA
ATOM     22  C   UNL     1      -0.478   0.662  24.144  0.00  0.00    +0.166 C 
ENDROOT
BRANCH  15  14
ATOM      9  C   UNL     1      -3.915   1.013  24.624  0.00  0.00    +0.089 A 
ATOM     10  C   UNL     1      -4.059   0.376  24.120  0.00  0.00    +0.040 A 
ATOM     11  C   UNL     1      -3.432  -0.094  23.860  0.00  0.00    +0.103 A 
ATOM     12  N   UNL     1      -2.662   0.073  24.104  0.00  0.00    -0.211 NA
ATOM     13  C   UNL     1      -2.518   0.710  24.609  0.00  0.00    +0.237 A 
ATOM     14  N   UNL     1      -1.748   0.877  24.853  0.00  0.00    -0.200 NA
ATOM     34  N   UNL     1      -3.145   1.180  24.868  0.00  0.00    -0.212 NA
BRANCH   9   4
ATOM      3  C   UNL     1      -4.645   2.241  24.575  0.00  0.00    +0.140 A 
ATOM      4  C   UNL     1      -4.541   1.482  24.884  0.00  0.00    +0.052 A 
ATOM      5  C   UNL     1      -5.064   1.194  25.452  0.00  0.00    +0.005 A 
ATOM      6  C   UNL     1      -5.691   1.663  25.713  0.00  0.00    +0.000 A 
ATOM      7  C   UNL     1      -5.795   2.422  25.404  0.00  0.00    +0.003 A 
ATOM      8  C   UNL     1      -5.271   2.710  24.835  0.00  0.00    +0.037 A 
BRANCH   3   2
ATOM      1  C   UNL     1      -4.194   3.305  23.735  0.00  0.00    +0.252 C 
ATOM      2  O   UNL     1      -4.121   2.529  24.007  0.00  0.00    -0.471 OA
ENDBRANCH   3   2
ENDBRANCH   9   4
ENDBRANCH  15  14
BRANCH  19  23
ATOM     23  N   UNL     1       1.282  -0.202  23.300  0.00  0.00    -0.078 NA
BRANCH  23  24
ATOM     24  S   UNL     1       1.913   0.140  22.894  0.00  0.00    +0.062 S 
ATOM     25  O   UNL     1       1.711  -0.290  22.219  0.00  0.00    -0.156 OA
ATOM     26  O   UNL     1       2.115   0.570  23.568  0.00  0.00    -0.156 OA
BRANCH  24  27
ATOM     27  C   UNL     1       2.544   0.482  22.487  0.00  0.00    +0.197 C 
BRANCH  27  28
ATOM     28  C   UNL     1       3.318   0.352  22.741  0.00  0.00    +0.003 A 
ATOM     29  C   UNL     1       3.561  -0.408  22.953  0.00  0.00    -0.003 A 
ATOM     30  C   UNL     1       4.335  -0.537  23.207  0.00  0.00    -0.000 A 
ATOM     31  C   UNL     1       4.866   0.093  23.251  0.00  0.00    -0.000 A 
ATOM     32  C   UNL     1       4.623   0.852  23.039  0.00  0.00    -0.000 A 
ATOM     33  C   UNL     1       3.849   0.982  22.785  0.00  0.00    -0.003 A 
ENDBRANCH  27  28
ENDBRANCH  24  27
ENDBRANCH  23  24
ENDBRANCH  19  23
TORSDOF 7
ENDMDL
MODEL 3
REMARK VINA RESULT:      -8.6      2.185      7.102
REMARK  Name = 
REMARK  7 active torsions:
REMARK  status: ('A' for Active; 'I' for Inactive)
REMARK    1  A    between atoms: O_2  and  C_3
REMARK    2  A    between atoms: C_4  and  C_9
REMARK    3  A    between atoms: N_14  and  C_15
REMARK    4  A    between atoms: C_19  and  N_23
REMARK    5  A    between atoms: N_23  and  S_24
REMARK    6  A    between atoms: S_24  and  C_27
REMARK    7  A    between atoms: C_27  and  C_28
REMARK                            x       y       z     vdW  Elec       q    Type
REMARK                         _______ _______ _______ _____ _____    ______ ____
ROOT
ATOM     15  C   UNL     1      -0.041   0.732  23.628  0.00  0.00    +0.154 C 
ATOM     16  C   UNL     1       0.172   1.329  24.156  0.00  0.00    +0.166 C 
ATOM     17  O   UNL     1       0.986   1.448  24.089  0.00  0.00    -0.350 OA
ATOM     18  C   UNL     1       1.275   0.925  23.522  0.00  0.00    +0.164 C 
ATOM     19  C   UNL     1       1.956   0.674  23.129  0.00  0.00    +0.156 C 
ATOM     20  C   UNL     1       1.742   0.077  22.602  0.00  0.00    +0.164 C 
ATOM     21  O   UNL     1       0.929  -0.042  22.668  0.00  0.00    -0.350 OA
ATOM     22  C   UNL     1       0.640   0.482  23.237  0.00  0.00    +0.166 C 
ENDROOT
BRANCH  15  14
ATOM      9  C   UNL     1      -2.376  -0.561  24.652  0.00  0.00    +0.089 A 
ATOM     10  C   UNL     1      -2.020  -0.616  25.394  0.00  0.00    +0.040 A 
ATOM     11  C   UNL     1      -1.258  -0.321  25.509  0.00  0.00    +0.103 A 
ATOM     12  N   UNL     1      -0.852   0.030  24.882  0.00  0.00    -0.211 NA
ATOM     13  C   UNL     1      -1.209   0.086  24.140  0.00  0.00    +0.237 A 
ATOM     14  N   UNL     1      -0.803   0.437  23.513  0.00  0.00    -0.200 NA
ATOM     34  N   UNL     1      -1.970  -0.209  24.025  0.00  0.00    -0.212 NA
BRANCH   9   4
ATOM      3  C   UNL     1      -3.791  -0.360  24.627  0.00  0.00    +0.140 A 
ATOM      4  C   UNL     1      -3.138  -0.856  24.537  0.00  0.00    +0.052 A 
ATOM      5  C   UNL     1      -3.246  -1.647  24.333  0.00  0.00    +0.005 A 
ATOM      6  C   UNL     1      -4.008  -1.943  24.218  0.00  0.00    +0.000 A 
ATOM      7  C   UNL     1      -4.662  -1.447  24.307  0.00  0.00    +0.003 A 
ATOM      8  C   UNL     1      -4.552  -0.655  24.512  0.00  0.00    +0.037 A 
BRANCH   3   2
ATOM      1  C   UNL     1      -4.333   0.934  24.898  0.00  0.00    +0.252 C 
ATOM      2  O   UNL     1      -3.682   0.432  24.831  0.00  0.00    -0.471 OA
ENDBRANCH   3   2
ENDBRANCH   9   4
ENDBRANCH  15  14
BRANCH  19  23
ATOM     23  N   UNL     1       2.718   0.969  23.244  0.00  0.00    -0.078 NA
BRANCH  23  24
ATOM     24  S   UNL     1       3.371   0.535  22.989  0.00  0.00    +0.062 S 
ATOM     25  O   UNL     1       3.561   1.135  22.456  0.00  0.00    -0.156 OA
ATOM     26  O   UNL     1       3.181  -0.065  23.522  0.00  0.00    -0.156 OA
BRANCH  24  27
ATOM     27  C   UNL     1       4.025   0.101  22.734  0.00  0.00    +0.197 C 
BRANCH  27  28
ATOM     28  C   UNL     1       4.682   0.016  23.226  0.00  0.00    +0.003 A 
ATOM     29  C   UNL     1       5.179   0.659  23.366  0.00  0.00    -0.003 A 
ATOM     30  C   UNL     1       5.835   0.574  23.859  0.00  0.00    -0.000 A 
ATOM     31  C   UNL     1       5.995  -0.155  24.211  0.00  0.00    -0.000 A 
ATOM     32  C   UNL     1       5.498  -0.798  24.071  0.00  0.00    -0.000 A 
ATOM     33  C   UNL     1       4.842  -0.713  23.579  0.00  0.00    -0.003 A 
ENDBRANCH  27  28
ENDBRANCH  24  27
ENDBRANCH  23  24
ENDBRANCH  19  23
TORSDOF 7
ENDMDL
MODEL 4
REMARK VINA RESULT:      -6.2     15.561     16.556
REMARK  Name = 
REMARK  7 active torsions:
REMARK  status: ('A' for Active; 'I' for Inactive)
REMARK    1  A    between atoms: O_2  and  C_3
REMARK    2  A    between atoms: C_4  and  C_9
REMARK    3  A    between atoms: N_14  and  C_15
REMARK    4  A    between atoms: C_19  and  N_23
REMARK    5  A    between atoms: N_23  and  S_24
REMARK    6  A    between atoms: S_24  and  C_27
REMARK    7  A    between atoms: C_27  and  C_28
REMARK                            x       y       z     vdW  Elec       q    Type
REMARK                         _______ _______ _______ _____ _____    ______ ____
ROOT
ATOM     15  C   UNL     1      -7.012 -10.184  13.187  0.00  0.00    +0.154 C 
ATOM     16  C   UNL     1      -7.778 -10.227  12.886  0.00  0.00    +0.166 C 
ATOM     17  O   UNL     1      -8.304 -10.179  13.519  0.00  0.00    -0.350 OA
ATOM     18  C   UNL     1      -7.863 -10.105  14.212  0.00  0.00    +0.164 C 
ATOM     19  C   UNL     1      -7.915 -10.029  15.032  0.00  0.00    +0.156 C 
ATOM     20  C   UNL     1      -7.148  -9.985  15.333  0.00  0.00    +0.164 C 
ATOM     21  O   UNL     1      -6.623 -10.034  14.700  0.00  0.00    -0.350 OA
ATOM     22  C   UNL     1      -7.064 -10.108  14.006  0.00  0.00    +0.166 C 
ENDROOT
BRANCH  15  14
ATOM      9  C   UNL     1      -5.466  -9.317  10.944  0.00  0.00    +0.089 A 
ATOM     10  C   UNL     1      -6.087  -8.829  10.705  0.00  0.00    +0.040 A 
ATOM     11  C   UNL     1      -6.784  -8.802  11.146  0.00  0.00    +0.103 A 
ATOM     12  N   UNL     1      -6.860  -9.262  11.827  0.00  0.00    -0.211 NA
ATOM     13  C   UNL     1      -6.239  -9.751  12.065  0.00  0.00    +0.237 A 
ATOM     14  N   UNL     1      -6.315 -10.211  12.746  0.00  0.00    -0.200 NA
ATOM     34  N   UNL     1      -5.543  -9.778  11.625  0.00  0.00    -0.212 NA
BRANCH   9   4
ATOM      3  C   UNL     1      -4.720  -9.832   9.839  0.00  0.00    +0.140 A 
ATOM      4  C   UNL     1      -4.770  -9.344  10.503  0.00  0.00    +0.052 A 
ATOM      5  C   UNL     1      -4.123  -8.884  10.726  0.00  0.00    +0.005 A 
ATOM      6  C   UNL     1      -3.426  -8.911  10.285  0.00  0.00    +0.000 A 
ATOM      7  C   UNL     1      -3.376  -9.398   9.621  0.00  0.00    +0.003 A 
ATOM      8  C   UNL     1      -4.024  -9.859   9.399  0.00  0.00    +0.037 A 
BRANCH   3   2
ATOM      1  C   UNL     1      -5.318 -10.781   8.954  0.00  0.00    +0.252 C 
ATOM      2  O   UNL     1      -5.367 -10.292   9.617  0.00  0.00    -0.471 OA
ENDBRANCH   3   2
ENDBRANCH   9   4
ENDBRANCH  15  14
BRANCH  19  23
ATOM     23  N   UNL     1      -8.612 -10.002  15.473  0.00  0.00    -0.078 NA
BRANCH  23  24
ATOM     24  S   UNL     1      -8.605  -9.689  16.236  0.00  0.00    +0.062 S 
ATOM     25  O   UNL     1      -8.767  -8.940  15.931  0.00  0.00    -0.156 OA
ATOM     26  O   UNL     1      -8.443 -10.438  16.541  0.00  0.00    -0.156 OA
BRANCH  24  27
ATOM     27  C   UNL     1      -8.598  -9.376  16.999  0.00  0.00    +0.197 C 
BRANCH  27  28
ATOM     28  C   UNL     1      -9.305  -9.287  17.415  0.00  0.00    +0.003 A 
ATOM     29  C   UNL     1      -9.588  -9.903  17.885  0.00  0.00    -0.003 A 
ATOM     30  C   UNL     1     -10.295  -9.814  18.301  0.00  0.00    -0.000 A 
ATOM     31  C   UNL     1     -10.719  -9.108  18.247  0.00  0.00    -0.000 A 
ATOM     32  C   UNL     1     -10.436  -8.492  17.777  0.00  0.00    -0.000 A 
ATOM     33  C   UNL     1      -9.730  -8.582  17.361  0.00  0.00    -0.003 A 
ENDBRANCH  27  28
ENDBRANCH  24  27
ENDBRANCH  23  24
ENDBRANCH  19  23
TORSDOF 7
ENDMDL
MODEL 5
REMARK VINA RESULT:      -4.9     15.576     16.742
REMARK  Name = 
REMARK  7 active torsions:
REMARK  status: ('A' for Active; 'I' for Inactive)
REMARK    1  A    between atoms: O_2  and  C_3
REMARK    2  A    between atoms: C_4  and  C_9
REMARK    3  A    between atoms: N_14  and  C_15
REMARK    4  A    between atoms: C_19  and  N_23
REMARK    5  A    between atoms: N_23  and  S_24
REMARK    6  A    between atoms: S_24  and  C_27
REMARK    7  A    between atoms: C_27  and  C_28
REMARK                            x       y       z     vdW  Elec       q    Type
REMARK                         _______ _______ _______ _____ _____    ______ ____
ROOT
ATOM     15  C   UNL     1      -6.345 -10.541  12.957  0.00  0.00    +0.154 C 
ATOM     16  C   UNL     1      -7.166 -10.612  12.994  0.00  0.00    +0.166 C 
ATOM     17  O   UNL     1      -7.385 -10.616  13.789  0.00  0.00    -0.350 OA
ATOM     18  C   UNL     1      -6.701 -10.548  14.243  0.00  0.00    +0.164 C 
ATOM     19  C   UNL     1      -6.412 -10.509  15.015  0.00  0.00    +0.156 C 
ATOM     20  C   UNL     1      -5.591 -10.438  14.978  0.00  0.00    +0.164 C 
ATOM     21  O   UNL     1      -5.372 -10.434  14.183  0.00  0.00    -0.350 OA
ATOM     22  C   UNL     1      -6.058 -10.502  13.729  0.00  0.00    +0.166 C 
ENDROOT
BRANCH  15  14
ATOM      9  C   UNL     1      -5.645  -9.254  10.502  0.00  0.00    +0.089 A 
ATOM     10  C   UNL     1      -6.202  -8.665  10.652  0.00  0.00    +0.040 A 
ATOM     11  C   UNL     1      -6.656  -8.692  11.341  0.00  0.00    +0.103 A 
ATOM     12  N   UNL     1      -6.553  -9.308  11.880  0.00  0.00    -0.211 NA
ATOM     13  C   UNL     1      -5.995  -9.898  11.729  0.00  0.00    +0.237 A 
ATOM     14  N   UNL     1      -5.891 -10.514  12.268  0.00  0.00    -0.200 NA
ATOM     34  N   UNL     1      -5.541  -9.870  11.041  0.00  0.00    -0.212 NA
BRANCH   9   4
ATOM      3  C   UNL     1      -5.521  -9.457   9.093  0.00  0.00    +0.140 A 
ATOM      4  C   UNL     1      -5.192  -9.227   9.814  0.00  0.00    +0.052 A 
ATOM      5  C   UNL     1      -4.409  -8.969   9.846  0.00  0.00    +0.005 A 
ATOM      6  C   UNL     1      -3.955  -8.942   9.157  0.00  0.00    +0.000 A 
ATOM      7  C   UNL     1      -4.284  -9.172   8.437  0.00  0.00    +0.003 A 
ATOM      8  C   UNL     1      -5.067  -9.430   8.405  0.00  0.00    +0.037 A 
BRANCH   3   2
ATOM      1  C   UNL     1      -6.522 -10.307   8.530  0.00  0.00    +0.252 C 
ATOM      2  O   UNL     1      -6.304  -9.715   9.061  0.00  0.00    -0.471 OA
ENDBRANCH   3   2
ENDBRANCH   9   4
ENDBRANCH  15  14
BRANCH  19  23
ATOM     23  N   UNL     1      -6.866 -10.536  15.704  0.00  0.00    -0.078 NA
BRANCH  23  24
ATOM     24  S   UNL     1      -6.626 -10.118  16.373  0.00  0.00    +0.062 S 
ATOM     25  O   UNL     1      -7.227  -9.567  16.245  0.00  0.00    -0.156 OA
ATOM     26  O   UNL     1      -6.024 -10.668  16.501  0.00  0.00    -0.156 OA
BRANCH  24  27
ATOM     27  C   UNL     1      -6.385  -9.699  17.042  0.00  0.00    +0.197 C 
BRANCH  27  28
ATOM     28  C   UNL     1      -6.584  -9.974  17.794  0.00  0.00    +0.003 A 
ATOM     29  C   UNL     1      -7.344 -10.260  17.941  0.00  0.00    -0.003 A 
ATOM     30  C   UNL     1      -7.542 -10.535  18.694  0.00  0.00    -0.000 A 
ATOM     31  C   UNL     1      -6.981 -10.524  19.298  0.00  0.00    -0.000 A 
ATOM     32  C   UNL     1      -6.222 -10.238  19.151  0.00  0.00    -0.000 A 
ATOM     33  C   UNL     1      -6.023  -9.963  18.399  0.00  0.00    -0.003 A 
ENDBRANCH  27  28
ENDBRANCH  24  27
ENDBRANCH  23  24
ENDBRANCH  19  23
TORSDOF 7
ENDMDL
