MODEL 1
REMARK VINA RESULT:     -12.0      0.000      0.000
REMARK  Name = 
REMARK  8 active torsions:
REMARK  status: ('A' for Active; 'I' for Inactive)
REMARK    1  A    between atoms: O_2  and  C_3
REMARK    2  A    between atoms: C_3  and  C_5
REMARK    3  A    between atoms: C_18  and  N_29
REMARK    4  A    between atoms: C_20  and  C_22
REMARK    5  A    between atoms: N_29  and  C_30
REMARK    6  A    between atoms: C_30  and  C_31
REMARK    7  A    between atoms: C_31  and  C_32
REMARK    8  A    between atoms: C_32  and  N_33
REMARK                            x       y       z     vdW  Elec       q    Type
REMARK                         _______ _______ _______ _____ _____    ______ ____
ROOT
ATOM      5  C   UNL     1      -2.813   1.388  24.768  0.00  0.00    +0.162 C 
ATOM      6  C   UNL     1      -2.844   2.197  24.923  0.00  0.00    +0.055 C 
ATOM      7  C   UNL     1      -2.152   2.646  24.913  0.00  0.00    -0.004 A 
ATOM      8  C   UNL     1      -1.429   2.286  24.747  0.00  0.00    +0.070 A 
ATOM      9  N   UNL     1      -0.843   2.865  24.776  0.00  0.00    -0.249 NA
ATOM     10  C   UNL     1      -1.202   3.585  24.959  0.00  0.00    +0.081 A 
ATOM     11  C   UNL     1      -2.013   3.449  25.044  0.00  0.00    +0.015 A 
ATOM     12  C   UNL     1      -2.518   4.074  25.230  0.00  0.00    +0.001 A 
ATOM     13  C   UNL     1      -2.214   4.835  25.331  0.00  0.00    +0.000 A 
ATOM     14  C   UNL     1      -1.404   4.970  25.246  0.00  0.00    +0.002 A 
ATOM     15  C   UNL     1      -0.898   4.345  25.060  0.00  0.00    +0.019 A 
ATOM     16  C   UNL     1      -1.397   1.476  24.592  0.00  0.00    +0.100 C 
ATOM     17  C   UNL     1      -0.675   1.115  24.426  0.00  0.00    +0.040 C 
ATOM     18  C   UNL     1      -0.644   0.306  24.270  0.00  0.00    +0.076 C 
ATOM     19  C   UNL     1      -1.336  -0.143  24.281  0.00  0.00    +0.038 C 
ATOM     20  C   UNL     1      -2.059   0.218  24.447  0.00  0.00    +0.082 C 
ATOM     21  N   UNL     1      -2.090   1.027  24.602  0.00  0.00    -0.258 NA
ENDROOT
BRANCH  20  22
ATOM     22  C   UNL     1      -2.751  -0.232  24.457  0.00  0.00    -0.008 A 
ATOM     23  C   UNL     1      -2.996  -0.597  25.154  0.00  0.00    -0.001 A 
ATOM     24  C   UNL     1      -3.688  -1.047  25.163  0.00  0.00    +0.029 A 
ATOM     25  C   UNL     1      -4.135  -1.130  24.474  0.00  0.00    +0.140 A 
ATOM     26  F   UNL     1      -4.827  -1.579  24.484  0.00  0.00    -0.204 F 
ATOM     27  C   UNL     1      -3.890  -0.764  23.777  0.00  0.00    +0.029 A 
ATOM     28  C   UNL     1      -3.198  -0.315  23.768  0.00  0.00    -0.001 A 
ENDBRANCH  20  22
BRANCH   5   3
ATOM      3  C   UNL     1      -3.506   0.940  24.778  0.00  0.00    +0.332 C 
ATOM      4  O   UNL     1      -3.972   0.278  24.935  0.00  0.00    -0.249 OA
BRANCH   3   2
ATOM      1  C   UNL     1      -4.779   1.556  24.975  0.00  0.00    +0.256 C 
ATOM      2  O   UNL     1      -4.204   1.251  24.469  0.00  0.00    -0.443 OA
ENDBRANCH   3   2
ENDBRANCH   5   3
BRANCH  18  29
ATOM     29  N   UNL     1       0.079  -0.055  24.105  0.00  0.00    -0.219 NA
BRANCH  29  30
ATOM     30  C   UNL     1       0.474   0.116  23.401  0.00  0.00    +0.091 C 
BRANCH  30  31
ATOM     31  C   UNL     1       1.277  -0.062  23.324  0.00  0.00    +0.043 C 
BRANCH  31  32
ATOM     32  C   UNL     1       1.690   0.184  22.654  0.00  0.00    +0.109 C 
BRANCH  32  33
ATOM     33  N   UNL     1       2.510   0.270  22.685  0.00  0.00    -0.308 N 
ATOM     34  C   UNL     1       2.920   0.980  22.777  0.00  0.00    +0.098 A 
ATOM     35  C   UNL     1       3.728   0.810  22.778  0.00  0.00    +0.119 A 
ATOM     36  N   UNL     1       3.817  -0.006  22.688  0.00  0.00    -0.222 NA
ATOM     37  C   UNL     1       3.064  -0.339  22.630  0.00  0.00    +0.179 A 
ENDBRANCH  32  33
ENDBRANCH  31  32
ENDBRANCH  30  31
ENDBRANCH  29  30
ENDBRANCH  18  29
TORSDOF 8
ENDMDL
MODEL 2
REMARK VINA RESULT:     -11.6      1.428      3.570
REMARK  Name = 
REMARK  8 active torsions:
REMARK  status: ('A' for Active; 'I' for Inactive)
REMARK    1  A    between atoms: O_2  and  C_3
REMARK    2  A    between atoms: C_3  and  C_5
REMARK    3  A    between atoms: C_18  and  N_29
REMARK    4  A    between atoms: C_20  and  C_22
REMARK    5  A    between atoms: N_29  and  C_30
REMARK    6  A    between atoms: C_30  and  C_31
REMARK    7  A    between atoms: C_31  and  C_32
REMARK    8  A    between atoms: C_32  and  N_33
REMARK                            x       y       z     vdW  Elec       q    Type
REMARK                         _______ _______ _______ _____ _____    ______ ____
ROOT
ATOM      5  C   UNL     1      -3.351   0.814  24.517  0.00  0.00    +0.162 C 
ATOM      6  C   UNL     1      -3.670   0.057  24.573  0.00  0.00    +0.055 C 
ATOM      7  C   UNL     1      -3.176  -0.603  24.535  0.00  0.00    -0.004 A 
ATOM      8  C   UNL     1      -2.362  -0.505  24.441  0.00  0.00    +0.070 A 
ATOM      9  N   UNL     1      -2.015  -1.252  24.421  0.00  0.00    -0.249 NA
ATOM     10  C   UNL     1      -2.613  -1.814  24.503  0.00  0.00    +0.081 A 
ATOM     11  C   UNL     1      -3.331  -1.412  24.573  0.00  0.00    +0.015 A 
ATOM     12  C   UNL     1      -4.034  -1.836  24.663  0.00  0.00    +0.001 A 
ATOM     13  C   UNL     1      -4.019  -2.661  24.683  0.00  0.00    +0.000 A 
ATOM     14  C   UNL     1      -3.300  -3.062  24.613  0.00  0.00    +0.002 A 
ATOM     15  C   UNL     1      -2.598  -2.639  24.523  0.00  0.00    +0.019 A 
ATOM     16  C   UNL     1      -2.042   0.254  24.385  0.00  0.00    +0.100 C 
ATOM     17  C   UNL     1      -1.229   0.354  24.291  0.00  0.00    +0.040 C 
ATOM     18  C   UNL     1      -0.910   1.112  24.235  0.00  0.00    +0.076 C 
ATOM     19  C   UNL     1      -1.404   1.772  24.273  0.00  0.00    +0.038 C 
ATOM     20  C   UNL     1      -2.217   1.672  24.367  0.00  0.00    +0.082 C 
ATOM     21  N   UNL     1      -2.537   0.914  24.423  0.00  0.00    -0.258 NA
ENDROOT
BRANCH  20  22
ATOM     22  C   UNL     1      -2.711   2.332  24.405  0.00  0.00    -0.008 A 
ATOM     23  C   UNL     1      -3.062   2.626  23.719  0.00  0.00    -0.001 A 
ATOM     24  C   UNL     1      -3.555   3.286  23.758  0.00  0.00    +0.029 A 
ATOM     25  C   UNL     1      -3.698   3.652  24.484  0.00  0.00    +0.140 A 
ATOM     26  F   UNL     1      -4.192   4.313  24.522  0.00  0.00    -0.204 F 
ATOM     27  C   UNL     1      -3.348   3.359  25.170  0.00  0.00    +0.029 A 
ATOM     28  C   UNL     1      -2.854   2.698  25.131  0.00  0.00    -0.001 A 
ENDBRANCH  20  22
BRANCH   5   3
ATOM      3  C   UNL     1      -3.845   1.474  24.555  0.00  0.00    +0.332 C 
ATOM      4  O   UNL     1      -4.119   2.224  24.346  0.00  0.00    -0.249 OA
BRANCH   3   2
ATOM      1  C   UNL     1      -5.239   1.345  24.838  0.00  0.00    +0.256 C 
ATOM      2  O   UNL     1      -4.470   1.492  25.094  0.00  0.00    -0.443 OA
ENDBRANCH   3   2
ENDBRANCH   5   3
BRANCH  18  29
ATOM     29  N   UNL     1      -0.096   1.211  24.141  0.00  0.00    -0.219 NA
BRANCH  29  30
ATOM     30  C   UNL     1       0.300   0.820  23.532  0.00  0.00    +0.091 C 
BRANCH  30  31
ATOM     31  C   UNL     1       1.119   0.892  23.459  0.00  0.00    +0.043 C 
BRANCH  31  32
ATOM     32  C   UNL     1       1.534   0.378  22.965  0.00  0.00    +0.109 C 
BRANCH  32  33
ATOM     33  N   UNL     1       2.337   0.506  22.821  0.00  0.00    -0.308 N 
ATOM     34  C   UNL     1       2.812   0.069  22.306  0.00  0.00    +0.098 A 
ATOM     35  C   UNL     1       3.574   0.386  22.333  0.00  0.00    +0.119 A 
ATOM     36  N   UNL     1       3.569   1.018  22.864  0.00  0.00    -0.222 NA
ATOM     37  C   UNL     1       2.804   1.092  23.165  0.00  0.00    +0.179 A 
ENDBRANCH  32  33
ENDBRANCH  31  32
ENDBRANCH  30  31
ENDBRANCH  29  30
ENDBRANCH  18  29
TORSDOF 8
ENDMDL
MODEL 3
REMARK VINA RESULT:     -10.3      2.663      3.575
REMARK  Name = 
REMARK  8 active torsions:
REMARK  status: ('A' for Active; 'I' for Inactive)
REMARK    1  A    between atoms: O_2  and  C_3
REMARK    2  A    between atoms: C_3  and  C_5
REMARK    3  A    between atoms: C_18  and  N_29
REMARK    4  A    between atoms: C_20  and  C_22
REMARK    5  A    between atoms: N_29  and  C_30
REMARK    6  A    between atoms: C_30  and  C_31
REMARK    7  A    between atoms: C_31  and  C_32
REMARK    8  A    between atoms: C_32  and  N_33
REMARK                            x       y       z     vdW  Elec       q    Type
REMARK                         _______ _______ _______ _____ _____    ______ ____
ROOT
ATOM      5  C   UNL     1      -3.740   3.151  25.040  0.00  0.00    +0.162 C 
ATOM      6  C   UNL     1      -3.301   3.846  25.099  0.00  0.00    +0.055 C 
ATOM      7  C   UNL     1      -2.488   3.834  24.958  0.00  0.00    -0.004 A 
ATOM      8  C   UNL     1      -2.114   3.127  24.759  0.00  0.00    +0.070 A 
ATOM      9  N   UNL     1      -1.312   3.284  24.652  0.00  0.00    -0.249 NA
ATOM     10  C   UNL     1      -1.188   4.089  24.786  0.00  0.00    +0.081 A 
ATOM     11  C   UNL     1      -1.917   4.429  24.975  0.00  0.00    +0.015 A 
ATOM     12  C   UNL     1      -1.964   5.236  25.138  0.00  0.00    +0.001 A 
ATOM     13  C   UNL     1      -1.284   5.704  25.112  0.00  0.00    +0.000 A 
ATOM     14  C   UNL     1      -0.556   5.363  24.922  0.00  0.00    +0.002 A 
ATOM     15  C   UNL     1      -0.509   4.555  24.760  0.00  0.00    +0.019 A 
ATOM     16  C   UNL     1      -2.553   2.430  24.700  0.00  0.00    +0.100 C 
ATOM     17  C   UNL     1      -2.180   1.723  24.501  0.00  0.00    +0.040 C 
ATOM     18  C   UNL     1      -2.619   1.027  24.442  0.00  0.00    +0.076 C 
ATOM     19  C   UNL     1      -3.432   1.039  24.583  0.00  0.00    +0.038 C 
ATOM     20  C   UNL     1      -3.805   1.747  24.782  0.00  0.00    +0.082 C 
ATOM     21  N   UNL     1      -3.366   2.442  24.841  0.00  0.00    -0.258 NA
ENDROOT
BRANCH  20  22
ATOM     22  C   UNL     1      -4.618   1.758  24.923  0.00  0.00    -0.008 A 
ATOM     23  C   UNL     1      -4.908   1.626  25.683  0.00  0.00    -0.001 A 
ATOM     24  C   UNL     1      -5.721   1.637  25.823  0.00  0.00    +0.029 A 
ATOM     25  C   UNL     1      -6.244   1.781  25.201  0.00  0.00    +0.140 A 
ATOM     26  F   UNL     1      -7.058   1.792  25.341  0.00  0.00    -0.204 F 
ATOM     27  C   UNL     1      -5.955   1.913  24.440  0.00  0.00    +0.029 A 
ATOM     28  C   UNL     1      -5.142   1.902  24.301  0.00  0.00    -0.001 A 
ENDBRANCH  20  22
BRANCH   5   3
ATOM      3  C   UNL     1      -4.553   3.163  25.181  0.00  0.00    +0.332 C 
ATOM      4  O   UNL     1      -5.342   2.951  25.062  0.00  0.00    -0.249 OA
BRANCH   3   2
ATOM      1  C   UNL     1      -5.248   4.344  25.584  0.00  0.00    +0.256 C 
ATOM      2  O   UNL     1      -4.862   3.642  25.777  0.00  0.00    -0.443 OA
ENDBRANCH   3   2
ENDBRANCH   5   3
BRANCH  18  29
ATOM     29  N   UNL     1      -2.245   0.319  24.243  0.00  0.00    -0.219 NA
BRANCH  29  30
ATOM     30  C   UNL     1      -2.159  -0.276  24.809  0.00  0.00    +0.091 C 
BRANCH  30  31
ATOM     31  C   UNL     1      -2.059  -1.060  24.572  0.00  0.00    +0.043 C 
BRANCH  31  32
ATOM     32  C   UNL     1      -2.240  -1.673  25.092  0.00  0.00    +0.109 C 
BRANCH  32  33
ATOM     33  N   UNL     1      -2.649  -2.336  24.820  0.00  0.00    -0.308 N 
ATOM     34  C   UNL     1      -3.405  -2.570  25.055  0.00  0.00    +0.098 A 
ATOM     35  C   UNL     1      -3.597  -3.260  24.646  0.00  0.00    +0.119 A 
ATOM     36  N   UNL     1      -2.960  -3.453  24.158  0.00  0.00    -0.222 NA
ATOM     37  C   UNL     1      -2.374  -2.882  24.266  0.00  0.00    +0.179 A 
ENDBRANCH  32  33
ENDBRANCH  31  32
ENDBRANCH  30  31
ENDBRANCH  29  30
ENDBRANCH  18  29
TORSDOF 8
ENDMDL
MODEL 4
REMARK VINA RESULT:     -10.0      2.294      4.942
REMARK  Name = 
REMARK  8 active torsions:
REMARK  status: ('A' for Active; 'I' for Inactive)
REMARK    1  A    between atoms: O_2  and  C_3
REMARK    2  A    between atoms: C_3  and  C_5
REMARK    3  A    between atoms: C_18  and  N_29
REMARK    4  A    between atoms: C_20  and  C_22
REMARK    5  A    between atoms: N_29  and  C_30
REMARK    6  A    between atoms: C_30  and  C_31
REMARK    7  A    between atoms: C_31  and  C_32
REMARK    8  A    between atoms: C_32  and  N_33
REMARK                            x       y       z     vdW  Elec       q    Type
REMARK                         _______ _______ _______ _____ _____    ______ ____
ROOT
ATOM      5  C   UNL     1      -2.084  -0.577  24.577  0.00  0.00    +0.162 C 
ATOM      6  C   UNL     1      -1.368  -0.170  24.524  0.00  0.00    +0.055 C 
ATOM      7  C   UNL     1      -1.365   0.652  24.458  0.00  0.00    -0.004 A 
ATOM      8  C   UNL     1      -2.077   1.068  24.446  0.00  0.00    +0.070 A 
ATOM      9  N   UNL     1      -1.902   1.871  24.377  0.00  0.00    -0.249 NA
ATOM     10  C   UNL     1      -1.082   1.953  24.346  0.00  0.00    +0.081 A 
ATOM     11  C   UNL     1      -0.750   1.198  24.397  0.00  0.00    +0.015 A 
ATOM     12  C   UNL     1       0.070   1.107  24.380  0.00  0.00    +0.001 A 
ATOM     13  C   UNL     1       0.558   1.770  24.313  0.00  0.00    +0.000 A 
ATOM     14  C   UNL     1       0.225   2.524  24.262  0.00  0.00    +0.002 A 
ATOM     15  C   UNL     1      -0.595   2.615  24.279  0.00  0.00    +0.019 A 
ATOM     16  C   UNL     1      -2.793   0.661  24.499  0.00  0.00    +0.100 C 
ATOM     17  C   UNL     1      -3.506   1.076  24.487  0.00  0.00    +0.040 C 
ATOM     18  C   UNL     1      -4.221   0.670  24.540  0.00  0.00    +0.076 C 
ATOM     19  C   UNL     1      -4.224  -0.153  24.606  0.00  0.00    +0.038 C 
ATOM     20  C   UNL     1      -3.512  -0.567  24.618  0.00  0.00    +0.082 C 
ATOM     21  N   UNL     1      -2.797  -0.161  24.565  0.00  0.00    -0.258 NA
ENDROOT
BRANCH  20  22
ATOM     22  C   UNL     1      -3.516  -1.390  24.684  0.00  0.00    -0.008 A 
ATOM     23  C   UNL     1      -3.451  -1.746  25.425  0.00  0.00    -0.001 A 
ATOM     24  C   UNL     1      -3.455  -2.568  25.489  0.00  0.00    +0.029 A 
ATOM     25  C   UNL     1      -3.524  -3.035  24.812  0.00  0.00    +0.140 A 
ATOM     26  F   UNL     1      -3.528  -3.858  24.878  0.00  0.00    -0.204 F 
ATOM     27  C   UNL     1      -3.589  -2.680  24.071  0.00  0.00    +0.029 A 
ATOM     28  C   UNL     1      -3.585  -1.857  24.007  0.00  0.00    -0.001 A 
ENDBRANCH  20  22
BRANCH   5   3
ATOM      3  C   UNL     1      -2.087  -1.399  24.643  0.00  0.00    +0.332 C 
ATOM      4  O   UNL     1      -2.354  -2.166  24.496  0.00  0.00    -0.249 OA
BRANCH   3   2
ATOM      1  C   UNL     1      -0.860  -2.120  24.770  0.00  0.00    +0.256 C 
ATOM      2  O   UNL     1      -1.526  -1.778  25.115  0.00  0.00    -0.443 OA
ENDBRANCH   3   2
ENDBRANCH   5   3
BRANCH  18  29
ATOM     29  N   UNL     1      -4.934   1.086  24.528  0.00  0.00    -0.219 NA
BRANCH  29  30
ATOM     30  C   UNL     1      -5.204   1.463  25.210  0.00  0.00    +0.091 C 
BRANCH  30  31
ATOM     31  C   UNL     1      -5.591   2.189  25.155  0.00  0.00    +0.043 C 
BRANCH  31  32
ATOM     32  C   UNL     1      -5.648   2.677  25.818  0.00  0.00    +0.109 C 
BRANCH  32  33
ATOM     33  N   UNL     1      -5.636   3.497  25.727  0.00  0.00    -0.308 N 
ATOM     34  C   UNL     1      -4.964   3.964  25.622  0.00  0.00    +0.098 A 
ATOM     35  C   UNL     1      -5.207   4.750  25.556  0.00  0.00    +0.119 A 
ATOM     36  N   UNL     1      -6.030   4.768  25.620  0.00  0.00    -0.222 NA
ATOM     37  C   UNL     1      -6.295   3.994  25.726  0.00  0.00    +0.179 A 
ENDBRANCH  32  33
ENDBRANCH  31  32
ENDBRANCH  30  31
ENDBRANCH  29  30
ENDBRANCH  18  29
TORSDOF 8
ENDMDL
MODEL 5
REMARK VINA RESULT:      -9.7      2.234      3.918
REMARK  Name = 
REMARK  8 active torsions:
REMARK  status: ('A' for Active; 'I' for Inactive)
REMARK    1  A    between atoms: O_2  and  C_3
REMARK    2  A    between atoms: C_3  and  C_5
REMARK    3  A    between atoms: C_18  and  N_29
REMARK    4  A    between atoms: C_20  and  C_22
REMARK    5  A    between atoms: N_29  and  C_30
REMARK    6  A    between atoms: C_30  and  C_31
REMARK    7  A    between atoms: C_31  and  C_32
REMARK    8  A    between atoms: C_32  and  N_33
REMARK                            x       y       z     vdW  Elec       q    Type
REMARK                         _______ _______ _______ _____ _____    ______ ____
ROOT
ATOM      5  C   UNL     1      -3.035  -0.290  24.937  0.00  0.00    +0.162 C 
ATOM      6  C   UNL     1      -3.824  -0.075  25.043  0.00  0.00    +0.055 C 
ATOM      7  C   UNL     1      -4.061   0.703  24.907  0.00  0.00    -0.004 A 
ATOM      8  C   UNL     1      -3.509   1.267  24.665  0.00  0.00    +0.070 A 
ATOM      9  N   UNL     1      -3.902   1.986  24.575  0.00  0.00    -0.249 NA
ATOM     10  C   UNL     1      -4.697   1.869  24.760  0.00  0.00    +0.081 A 
ATOM     11  C   UNL     1      -4.795   1.075  24.966  0.00  0.00    +0.015 A 
ATOM     12  C   UNL     1      -5.541   0.793  25.180  0.00  0.00    +0.001 A 
ATOM     13  C   UNL     1      -6.188   1.305  25.189  0.00  0.00    +0.000 A 
ATOM     14  C   UNL     1      -6.090   2.099  24.983  0.00  0.00    +0.002 A 
ATOM     15  C   UNL     1      -5.344   2.380  24.769  0.00  0.00    +0.019 A 
ATOM     16  C   UNL     1      -2.720   1.052  24.559  0.00  0.00    +0.100 C 
ATOM     17  C   UNL     1      -2.167   1.614  24.317  0.00  0.00    +0.040 C 
ATOM     18  C   UNL     1      -1.379   1.399  24.211  0.00  0.00    +0.076 C 
ATOM     19  C   UNL     1      -1.141   0.621  24.347  0.00  0.00    +0.038 C 
ATOM     20  C   UNL     1      -1.694   0.058  24.588  0.00  0.00    +0.082 C 
ATOM     21  N   UNL     1      -2.482   0.273  24.695  0.00  0.00    -0.258 NA
ENDROOT
BRANCH  20  22
ATOM     22  C   UNL     1      -1.456  -0.721  24.724  0.00  0.00    -0.008 A 
ATOM     23  C   UNL     1      -1.501  -1.277  24.118  0.00  0.00    -0.001 A 
ATOM     24  C   UNL     1      -1.262  -2.056  24.254  0.00  0.00    +0.029 A 
ATOM     25  C   UNL     1      -0.979  -2.276  24.997  0.00  0.00    +0.140 A 
ATOM     26  F   UNL     1      -0.741  -3.055  25.132  0.00  0.00    -0.204 F 
ATOM     27  C   UNL     1      -0.935  -1.720  25.603  0.00  0.00    +0.029 A 
ATOM     28  C   UNL     1      -1.173  -0.941  25.467  0.00  0.00    -0.001 A 
ENDBRANCH  20  22
BRANCH   5   3
ATOM      3  C   UNL     1      -2.798  -1.069  25.072  0.00  0.00    +0.332 C 
ATOM      4  O   UNL     1      -2.354  -1.753  24.950  0.00  0.00    -0.249 OA
BRANCH   3   2
ATOM      1  C   UNL     1      -3.703  -2.103  25.460  0.00  0.00    +0.256 C 
ATOM      2  O   UNL     1      -3.163  -1.515  25.663  0.00  0.00    -0.443 OA
ENDBRANCH   3   2
ENDBRANCH   5   3
BRANCH  18  29
ATOM     29  N   UNL     1      -0.826   1.963  23.969  0.00  0.00    -0.219 NA
BRANCH  29  30
ATOM     30  C   UNL     1      -0.501   2.485  24.519  0.00  0.00    +0.091 C 
BRANCH  30  31
ATOM     31  C   UNL     1      -0.519   3.298  24.378  0.00  0.00    +0.043 C 
BRANCH  31  32
ATOM     32  C   UNL     1      -0.419   3.826  25.003  0.00  0.00    +0.109 C 
BRANCH  32  33
ATOM     33  N   UNL     1      -0.831   4.541  25.007  0.00  0.00    -0.308 N 
ATOM     34  C   UNL     1      -1.554   4.682  25.379  0.00  0.00    +0.098 A 
ATOM     35  C   UNL     1      -1.763   5.468  25.242  0.00  0.00    +0.119 A 
ATOM     36  N   UNL     1      -1.168   5.814  24.785  0.00  0.00    -0.222 NA
ATOM     37  C   UNL     1      -0.593   5.241  24.640  0.00  0.00    +0.179 A 
ENDBRANCH  32  33
ENDBRANCH  31  32
ENDBRANCH  30  31
ENDBRANCH  29  30
ENDBRANCH  18  29
TORSDOF 8
ENDMDL
