MODEL 1
REMARK VINA RESULT:     -10.5      0.000      0.000
REMARK  Name = 
REMARK  5 active torsions:
REMARK  status: ('A' for Active; 'I' for Inactive)
REMARK    1  A    between atoms: C_2  and  C_3
REMARK    2  A    between atoms: C_10  and  C_11
REMARK    3  A    between atoms: C_11  and  N_12
REMARK    4  A    between atoms: N_12  and  C_13
REMARK    5  A    between atoms: C_13  and  C_14
REMARK                            x       y       z     vdW  Elec       q    Type
REMARK                         _______ _______ _______ _____ _____    ______ ____
ROOT
ATOM     11  C   UNL     1      -4.161   0.722  24.646  0.00  0.00    +0.105 C 
ENDROOT
BRANCH  11  10
ATOM      3  C   UNL     1      -3.839  -1.624  24.545  0.00  0.00    +0.038 C 
ATOM      4  C   UNL     1      -4.137  -1.271  23.918  0.00  0.00    +0.076 C 
ATOM      5  N   UNL     1      -3.919  -0.906  24.624  0.00  0.00    -0.272 NA
ATOM      6  C   UNL     1      -3.556  -1.654  25.262  0.00  0.00    +0.072 C 
ATOM      7  C   UNL     1      -3.305  -1.838  25.837  0.00  0.00    +0.018 C 
ATOM      8  C   UNL     1      -3.628  -1.256  25.235  0.00  0.00    +0.008 C 
ATOM      9  C   UNL     1      -3.658  -0.417  25.489  0.00  0.00    +0.018 C 
ATOM     10  C   UNL     1      -3.948  -0.034  24.895  0.00  0.00    +0.075 C 
BRANCH   3   2
ATOM      1  C   UNL     1      -3.964  -2.853  23.827  0.00  0.00    -0.005 C 
ATOM      2  C   UNL     1      -3.730  -2.440  24.502  0.00  0.00    -0.025 C 
ENDBRANCH   3   2
ENDBRANCH  11  10
BRANCH  11  12
ATOM     12  N   UNL     1      -3.787   1.384  24.967  0.00  0.00    -0.212 NA
BRANCH  12  13
ATOM     13  C   UNL     1      -3.933   2.132  24.655  0.00  0.00    +0.115 C 
BRANCH  13  14
ATOM     14  C   UNL     1      -3.516   2.787  24.938  0.00  0.00    -0.002 A 
ATOM     15  C   UNL     1      -3.853   3.272  25.515  0.00  0.00    +0.000 A 
ATOM     16  C   UNL     1      -3.436   3.925  25.797  0.00  0.00    +0.040 A 
ATOM     17  C   UNL     1      -2.683   4.094  25.503  0.00  0.00    +0.176 A 
ATOM     18  O   UNL     1      -2.146   4.695  25.676  0.00  0.00    -0.435 OA
ATOM     19  C   UNL     1      -1.478   4.582  25.206  0.00  0.00    +0.429 C 
ATOM     20  O   UNL     1      -1.603   3.910  24.743  0.00  0.00    -0.435 OA
ATOM     21  C   UNL     1      -2.348   3.609  24.927  0.00  0.00    +0.176 A 
ATOM     22  C   UNL     1      -2.765   2.955  24.644  0.00  0.00    +0.037 A 
ENDBRANCH  13  14
ENDBRANCH  12  13
ENDBRANCH  11  12
TORSDOF 5
ENDMDL
MODEL 2
REMARK VINA RESULT:     -10.5      2.216      5.304
REMARK  Name = 
REMARK  5 active torsions:
REMARK  status: ('A' for Active; 'I' for Inactive)
REMARK    1  A    between atoms: C_2  and  C_3
REMARK    2  A    between atoms: C_10  and  C_11
REMARK    3  A    between atoms: C_11  and  N_12
REMARK    4  A    between atoms: N_12  and  C_13
REMARK    5  A    between atoms: C_13  and  C_14
REMARK                            x       y       z     vdW  Elec       q    Type
REMARK                         _______ _______ _______ _____ _____    ______ ____
ROOT
ATOM     11  C   UNL     1      -3.117   1.950  24.872  0.00  0.00    +0.105 C 
ENDROOT
BRANCH  11  10
ATOM      3  C   UNL     1      -1.735   3.856  25.146  0.00  0.00    +0.038 C 
ATOM      4  C   UNL     1      -2.491   3.973  24.999  0.00  0.00    +0.076 C 
ATOM      5  N   UNL     1      -2.117   3.242  25.070  0.00  0.00    -0.272 NA
ATOM      6  C   UNL     1      -1.105   3.429  25.268  0.00  0.00    +0.072 C 
ATOM      7  C   UNL     1      -0.499   3.212  25.386  0.00  0.00    +0.018 C 
ATOM      8  C   UNL     1      -1.376   3.134  25.214  0.00  0.00    +0.008 C 
ATOM      9  C   UNL     1      -1.685   2.314  25.152  0.00  0.00    +0.018 C 
ATOM     10  C   UNL     1      -2.431   2.388  25.007  0.00  0.00    +0.075 C 
BRANCH   3   2
ATOM      1  C   UNL     1      -1.581   5.277  25.129  0.00  0.00    -0.005 C 
ATOM      2  C   UNL     1      -1.261   4.525  25.240  0.00  0.00    -0.025 C 
ENDBRANCH   3   2
ENDBRANCH  11  10
BRANCH  11  12
ATOM     12  N   UNL     1      -3.093   1.126  24.903  0.00  0.00    -0.212 NA
BRANCH  12  13
ATOM     13  C   UNL     1      -3.795   0.693  24.893  0.00  0.00    +0.115 C 
BRANCH  13  14
ATOM     14  C   UNL     1      -3.771  -0.132  24.885  0.00  0.00    -0.002 A 
ATOM     15  C   UNL     1      -3.513  -0.543  25.553  0.00  0.00    +0.000 A 
ATOM     16  C   UNL     1      -3.489  -1.368  25.545  0.00  0.00    +0.040 A 
ATOM     17  C   UNL     1      -3.723  -1.782  24.870  0.00  0.00    +0.176 A 
ATOM     18  O   UNL     1      -3.758  -2.589  24.702  0.00  0.00    -0.435 OA
ATOM     19  C   UNL     1      -4.037  -2.676  23.931  0.00  0.00    +0.429 C 
ATOM     20  O   UNL     1      -4.175  -1.922  23.623  0.00  0.00    -0.435 OA
ATOM     21  C   UNL     1      -3.980  -1.370  24.203  0.00  0.00    +0.176 A 
ATOM     22  C   UNL     1      -4.004  -0.545  24.211  0.00  0.00    +0.037 A 
ENDBRANCH  13  14
ENDBRANCH  12  13
ENDBRANCH  11  12
TORSDOF 5
ENDMDL
MODEL 3
REMARK VINA RESULT:      -9.7      2.208      5.045
REMARK  Name = 
REMARK  5 active torsions:
REMARK  status: ('A' for Active; 'I' for Inactive)
REMARK    1  A    between atoms: C_2  and  C_3
REMARK    2  A    between atoms: C_10  and  C_11
REMARK    3  A    between atoms: C_11  and  N_12
REMARK    4  A    between atoms: N_12  and  C_13
REMARK    5  A    between atoms: C_13  and  C_14
REMARK                            x       y       z     vdW  Elec       q    Type
REMARK                         _______ _______ _______ _____ _____    ______ ____
ROOT
ATOM     11  C   UNL     1      -4.652   0.661  25.005  0.00  0.00    +0.105 C 
ENDROOT
BRANCH  11  10
ATOM      3  C   UNL     1      -4.928   3.010  25.154  0.00  0.00    +0.038 C 
ATOM      4  C   UNL     1      -5.391   2.561  25.591  0.00  0.00    +0.076 C 
ATOM      5  N   UNL     1      -4.805   2.298  25.074  0.00  0.00    -0.272 NA
ATOM      6  C   UNL     1      -4.367   3.146  24.642  0.00  0.00    +0.072 C 
ATOM      7  C   UNL     1      -3.930   3.417  24.238  0.00  0.00    +0.018 C 
ATOM      8  C   UNL     1      -4.355   2.742  24.649  0.00  0.00    +0.008 C 
ATOM      9  C   UNL     1      -4.084   1.933  24.440  0.00  0.00    +0.018 C 
ATOM     10  C   UNL     1      -4.519   1.460  24.852  0.00  0.00    +0.075 C 
BRANCH   3   2
ATOM      1  C   UNL     1      -5.638   4.135  25.676  0.00  0.00    -0.005 C 
ATOM      2  C   UNL     1      -5.030   3.827  25.211  0.00  0.00    -0.025 C 
ENDBRANCH   3   2
ENDBRANCH  11  10
BRANCH  11  12
ATOM     12  N   UNL     1      -4.069   0.104  24.830  0.00  0.00    -0.212 NA
BRANCH  12  13
ATOM     13  C   UNL     1      -4.114  -0.655  25.148  0.00  0.00    +0.115 C 
BRANCH  13  14
ATOM     14  C   UNL     1      -3.575  -1.234  24.912  0.00  0.00    -0.002 A 
ATOM     15  C   UNL     1      -3.834  -1.887  24.479  0.00  0.00    +0.000 A 
ATOM     16  C   UNL     1      -3.296  -2.466  24.244  0.00  0.00    +0.040 A 
ATOM     17  C   UNL     1      -2.497  -2.392  24.441  0.00  0.00    +0.176 A 
ATOM     18  O   UNL     1      -1.844  -2.871  24.286  0.00  0.00    -0.435 OA
ATOM     19  C   UNL     1      -1.181  -2.514  24.623  0.00  0.00    +0.429 C 
ATOM     20  O   UNL     1      -1.425  -1.814  24.986  0.00  0.00    -0.435 OA
ATOM     21  C   UNL     1      -2.239  -1.739  24.873  0.00  0.00    +0.176 A 
ATOM     22  C   UNL     1      -2.778  -1.160  25.109  0.00  0.00    +0.037 A 
ENDBRANCH  13  14
ENDBRANCH  12  13
ENDBRANCH  11  12
TORSDOF 5
ENDMDL
MODEL 4
REMARK VINA RESULT:      -9.3      1.058      1.377
REMARK  Name = 
REMARK  5 active torsions:
REMARK  status: ('A' for Active; 'I' for Inactive)
REMARK    1  A    between atoms: C_2  and  C_3
REMARK    2  A    between atoms: C_10  and  C_11
REMARK    3  A    between atoms: C_11  and  N_12
REMARK    4  A    between atoms: N_12  and  C_13
REMARK    5  A    between atoms: C_13  and  C_14
REMARK                            x       y       z     vdW  Elec       q    Type
REMARK                         _______ _______ _______ _____ _____    ______ ____
ROOT
ATOM     11  C   UNL     1      -3.754   0.239  23.903  0.00  0.00    +0.105 C 
ENDROOT
BRANCH  11  10
ATOM      3  C   UNL     1      -2.605  -1.738  24.529  0.00  0.00    +0.038 C 
ATOM      4  C   UNL     1      -2.180  -1.129  24.294  0.00  0.00    +0.076 C 
ATOM      5  N   UNL     1      -3.002  -1.156  24.348  0.00  0.00    -0.272 NA
ATOM      6  C   UNL     1      -3.260  -2.111  24.694  0.00  0.00    +0.072 C 
ATOM      7  C   UNL     1      -3.713  -2.549  24.870  0.00  0.00    +0.018 C 
ATOM      8  C   UNL     1      -3.413  -1.755  24.578  0.00  0.00    +0.008 C 
ATOM      9  C   UNL     1      -4.028  -1.153  24.402  0.00  0.00    +0.018 C 
ATOM     10  C   UNL     1      -3.646  -0.535  24.166  0.00  0.00    +0.075 C 
BRANCH   3   2
ATOM      1  C   UNL     1      -1.375  -2.441  24.708  0.00  0.00    -0.005 C 
ATOM      2  C   UNL     1      -2.198  -2.422  24.745  0.00  0.00    -0.025 C 
ENDBRANCH   3   2
ENDBRANCH  11  10
BRANCH  11  12
ATOM     12  N   UNL     1      -4.008   0.822  24.427  0.00  0.00    -0.212 NA
BRANCH  12  13
ATOM     13  C   UNL     1      -4.154   1.586  24.155  0.00  0.00    +0.115 C 
BRANCH  13  14
ATOM     14  C   UNL     1      -4.109   2.226  24.675  0.00  0.00    -0.002 A 
ATOM     15  C   UNL     1      -4.788   2.491  25.063  0.00  0.00    +0.000 A 
ATOM     16  C   UNL     1      -4.742   3.130  25.583  0.00  0.00    +0.040 A 
ATOM     17  C   UNL     1      -4.018   3.504  25.715  0.00  0.00    +0.176 A 
ATOM     18  O   UNL     1      -3.806   4.142  26.193  0.00  0.00    -0.435 OA
ATOM     19  C   UNL     1      -2.997   4.271  26.100  0.00  0.00    +0.429 C 
ATOM     20  O   UNL     1      -2.709   3.712  25.565  0.00  0.00    -0.435 OA
ATOM     21  C   UNL     1      -3.341   3.238  25.327  0.00  0.00    +0.176 A 
ATOM     22  C   UNL     1      -3.386   2.599  24.807  0.00  0.00    +0.037 A 
ENDBRANCH  13  14
ENDBRANCH  12  13
ENDBRANCH  11  12
TORSDOF 5
ENDMDL
MODEL 5
REMARK VINA RESULT:      -8.6      2.801      4.598
REMARK  Name = 
REMARK  5 active torsions:
REMARK  status: ('A' for Active; 'I' for Inactive)
REMARK    1  A    between atoms: C_2  and  C_3
REMARK    2  A    between atoms: C_10  and  C_11
REMARK    3  A    between atoms: C_11  and  N_12
REMARK    4  A    between atoms: N_12  and  C_13
REMARK    5  A    between atoms: C_13  and  C_14
REMARK                            x       y       z     vdW  Elec       q    Type
REMARK                         _______ _______ _______ _____ _____    ______ ____
ROOT
ATOM     11  C   UNL     1      -2.782   2.166  24.712  0.00  0.00    +0.105 C 
ENDROOT
BRANCH  11  10
ATOM      3  C   UNL     1      -4.920   3.020  25.274  0.00  0.00    +0.038 C 
ATOM      4  C   UNL     1      -4.305   3.487  25.374  0.00  0.00    +0.076 C 
ATOM      5  N   UNL     1      -4.288   2.714  25.088  0.00  0.00    -0.272 NA
ATOM      6  C   UNL     1      -5.276   2.365  25.074  0.00  0.00    +0.072 C 
ATOM      7  C   UNL     1      -5.711   1.893  24.950  0.00  0.00    +0.018 C 
ATOM      8  C   UNL     1      -4.894   2.262  24.991  0.00  0.00    +0.008 C 
ATOM      9  C   UNL     1      -4.228   1.754  24.727  0.00  0.00    +0.018 C 
ATOM     10  C   UNL     1      -3.601   2.180  24.812  0.00  0.00    +0.075 C 
BRANCH   3   2
ATOM      1  C   UNL     1      -5.741   4.123  25.663  0.00  0.00    -0.005 C 
ATOM      2  C   UNL     1      -5.661   3.325  25.471  0.00  0.00    -0.025 C 
ENDBRANCH   3   2
ENDBRANCH  11  10
BRANCH  11  12
ATOM     12  N   UNL     1      -2.379   1.446  24.705  0.00  0.00    -0.212 NA
BRANCH  12  13
ATOM     13  C   UNL     1      -1.555   1.435  24.709  0.00  0.00    +0.115 C 
BRANCH  13  14
ATOM     14  C   UNL     1      -1.152   0.717  24.647  0.00  0.00    -0.002 A 
ATOM     15  C   UNL     1      -0.623   0.594  24.025  0.00  0.00    +0.000 A 
ATOM     16  C   UNL     1      -0.220  -0.124  23.963  0.00  0.00    +0.040 A 
ATOM     17  C   UNL     1      -0.346  -0.718  24.522  0.00  0.00    +0.176 A 
ATOM     18  O   UNL     1      -0.030  -1.476  24.603  0.00  0.00    -0.435 OA
ATOM     19  C   UNL     1      -0.363  -1.820  25.274  0.00  0.00    +0.429 C 
ATOM     20  O   UNL     1      -0.886  -1.275  25.608  0.00  0.00    -0.435 OA
ATOM     21  C   UNL     1      -0.874  -0.594  25.143  0.00  0.00    +0.176 A 
ATOM     22  C   UNL     1      -1.277   0.124  25.205  0.00  0.00    +0.037 A 
ENDBRANCH  13  14
ENDBRANCH  12  13
ENDBRANCH  11  12
TORSDOF 5
ENDMDL
