MODEL 1
REMARK VINA RESULT:     -11.7      0.000      0.000
REMARK  Name = 
REMARK  6 active torsions:
REMARK  status: ('A' for Active; 'I' for Inactive)
REMARK    1  A    between atoms: C_2  and  O_3
REMARK    2  A    between atoms: O_3  and  C_4
REMARK    3  A    between atoms: C_4  and  C_6
REMARK    4  A    between atoms: C_9  and  N_10
REMARK    5  A    between atoms: C_18  and  C_19
REMARK    6  A    between atoms: C_21  and  C_24
REMARK                            x       y       z     vdW  Elec       q    Type
REMARK                         _______ _______ _______ _____ _____    ______ ____
ROOT
ATOM     10  N   UNL     1      -3.881   1.784  24.845  0.00  0.00    -0.162 NA
ATOM     11  C   UNL     1      -3.161   2.149  25.017  0.00  0.00    +0.328 C 
ATOM     12  O   UNL     1      -3.140   2.952  25.203  0.00  0.00    -0.250 OA
ATOM     13  N   UNL     1      -2.464   1.710  25.001  0.00  0.00    -0.249 N 
ATOM     14  C   UNL     1      -2.485   0.907  24.815  0.00  0.00    +0.143 C 
ATOM     15  C   UNL     1      -1.787   0.468  24.799  0.00  0.00    +0.094 A 
ATOM     16  C   UNL     1      -1.067   0.832  24.971  0.00  0.00    +0.078 A 
ATOM     17  C   UNL     1      -1.045   1.636  25.158  0.00  0.00    +0.077 C 
ATOM     18  C   UNL     1      -1.744   2.074  25.173  0.00  0.00    +0.162 C 
ATOM     27  N   UNL     1      -0.473   0.263  24.913  0.00  0.00    -0.227 NA
ATOM     28  C   UNL     1      -0.825  -0.453  24.706  0.00  0.00    +0.198 A 
ATOM     29  N   UNL     1      -1.637  -0.326  24.635  0.00  0.00    -0.225 NA
ENDROOT
BRANCH  10   9
ATOM      6  C   UNL     1      -3.948  -0.626  24.285  0.00  0.00    +0.076 A 
ATOM      7  C   UNL     1      -4.063  -0.379  25.064  0.00  0.00    +0.008 A 
ATOM      8  C   UNL     1      -4.041   0.425  25.251  0.00  0.00    +0.017 A 
ATOM      9  C   UNL     1      -3.904   0.981  24.658  0.00  0.00    +0.075 A 
ATOM     30  C   UNL     1      -3.789   0.735  23.879  0.00  0.00    +0.017 A 
ATOM     31  C   UNL     1      -3.811  -0.068  23.693  0.00  0.00    +0.008 A 
BRANCH   6   4
ATOM      4  C   UNL     1      -3.971  -1.428  24.099  0.00  0.00    +0.341 C 
ATOM      5  O   UNL     1      -4.193  -1.671  23.342  0.00  0.00    -0.245 OA
BRANCH   4   3
ATOM      3  O   UNL     1      -3.771  -1.990  24.670  0.00  0.00    -0.445 OA
BRANCH   3   2
ATOM      1  C   UNL     1      -3.377  -3.327  24.984  0.00  0.00    +0.051 C 
ATOM      2  C   UNL     1      -3.723  -2.788  24.465  0.00  0.00    +0.209 C 
ENDBRANCH   3   2
ENDBRANCH   4   3
ENDBRANCH   6   4
ENDBRANCH  10   9
BRANCH  18  19
ATOM     19  C   UNL     1      -1.721   2.877  25.360  0.00  0.00    +0.255 A 
ATOM     20  N   UNL     1      -1.415   3.478  24.886  0.00  0.00    -0.194 NA
ATOM     21  C   UNL     1      -1.506   4.193  25.288  0.00  0.00    +0.180 A 
ATOM     22  N   UNL     1      -1.869   4.034  26.010  0.00  0.00    -0.061 NA
ATOM     23  O   UNL     1      -2.003   3.221  26.056  0.00  0.00    -0.336 OA
BRANCH  21  24
ATOM     24  C   UNL     1      -1.274   4.936  25.014  0.00  0.00    +0.062 C 
ATOM     25  C   UNL     1      -1.761   5.591  25.134  0.00  0.00    +0.008 C 
ATOM     26  C   UNL     1      -0.554   5.024  24.620  0.00  0.00    +0.008 C 
ENDBRANCH  21  24
ENDBRANCH  18  19
TORSDOF 6
ENDMDL
MODEL 2
REMARK VINA RESULT:     -11.6      1.224      5.167
REMARK  Name = 
REMARK  6 active torsions:
REMARK  status: ('A' for Active; 'I' for Inactive)
REMARK    1  A    between atoms: C_2  and  O_3
REMARK    2  A    between atoms: O_3  and  C_4
REMARK    3  A    between atoms: C_4  and  C_6
REMARK    4  A    between atoms: C_9  and  N_10
REMARK    5  A    between atoms: C_18  and  C_19
REMARK    6  A    between atoms: C_21  and  C_24
REMARK                            x       y       z     vdW  Elec       q    Type
REMARK                         _______ _______ _______ _____ _____    ______ ____
ROOT
ATOM     10  N   UNL     1      -1.175   0.545  25.316  0.00  0.00    -0.162 NA
ATOM     11  C   UNL     1      -1.919   0.209  25.195  0.00  0.00    +0.328 C 
ATOM     12  O   UNL     1      -2.042  -0.590  25.362  0.00  0.00    -0.250 OA
ATOM     13  N   UNL     1      -2.538   0.670  24.906  0.00  0.00    -0.249 N 
ATOM     14  C   UNL     1      -2.414   1.468  24.739  0.00  0.00    +0.143 C 
ATOM     15  C   UNL     1      -3.034   1.931  24.450  0.00  0.00    +0.094 A 
ATOM     16  C   UNL     1      -3.777   1.594  24.329  0.00  0.00    +0.078 A 
ATOM     17  C   UNL     1      -3.901   0.795  24.496  0.00  0.00    +0.077 C 
ATOM     18  C   UNL     1      -3.281   0.334  24.785  0.00  0.00    +0.162 C 
ATOM     27  N   UNL     1      -4.279   2.181  24.041  0.00  0.00    -0.227 NA
ATOM     28  C   UNL     1      -3.846   2.881  23.984  0.00  0.00    +0.198 A 
ATOM     29  N   UNL     1      -3.077   2.726  24.238  0.00  0.00    -0.225 NA
ENDROOT
BRANCH  10   9
ATOM      6  C   UNL     1      -0.803   2.941  24.817  0.00  0.00    +0.076 A 
ATOM      7  C   UNL     1      -1.032   2.708  25.574  0.00  0.00    +0.008 A 
ATOM      8  C   UNL     1      -1.156   1.909  25.741  0.00  0.00    +0.017 A 
ATOM      9  C   UNL     1      -1.051   1.344  25.149  0.00  0.00    +0.075 A 
ATOM     30  C   UNL     1      -0.822   1.576  24.392  0.00  0.00    +0.017 A 
ATOM     31  C   UNL     1      -0.698   2.374  24.226  0.00  0.00    +0.008 A 
BRANCH   6   4
ATOM      4  C   UNL     1      -0.679   3.738  24.651  0.00  0.00    +0.341 C 
ATOM      5  O   UNL     1      -0.217   3.959  24.003  0.00  0.00    -0.245 OA
BRANCH   4   3
ATOM      3  O   UNL     1      -1.016   4.317  25.132  0.00  0.00    -0.445 OA
BRANCH   3   2
ATOM      1  C   UNL     1      -1.532   5.650  25.130  0.00  0.00    +0.051 C 
ATOM      2  C   UNL     1      -0.934   5.115  24.938  0.00  0.00    +0.209 C 
ENDBRANCH   3   2
ENDBRANCH   4   3
ENDBRANCH   6   4
ENDBRANCH  10   9
BRANCH  18  19
ATOM     19  C   UNL     1      -3.405  -0.464  24.952  0.00  0.00    +0.255 A 
ATOM     20  N   UNL     1      -3.498  -1.068  24.398  0.00  0.00    -0.194 NA
ATOM     21  C   UNL     1      -3.609  -1.776  24.806  0.00  0.00    +0.180 A 
ATOM     22  N   UNL     1      -3.584  -1.610  25.613  0.00  0.00    -0.061 NA
ATOM     23  O   UNL     1      -3.459  -0.799  25.704  0.00  0.00    -0.336 OA
BRANCH  21  24
ATOM     24  C   UNL     1      -3.724  -2.519  24.466  0.00  0.00    +0.062 C 
ATOM     25  C   UNL     1      -4.226  -2.603  23.818  0.00  0.00    +0.008 C 
ATOM     26  C   UNL     1      -3.335  -3.178  24.776  0.00  0.00    +0.008 C 
ENDBRANCH  21  24
ENDBRANCH  18  19
TORSDOF 6
ENDMDL
MODEL 3
REMARK VINA RESULT:     -10.8      1.137      4.889
REMARK  Name = 
REMARK  6 active torsions:
REMARK  status: ('A' for Active; 'I' for Inactive)
REMARK    1  A    between atoms: C_2  and  O_3
REMARK    2  A    between atoms: O_3  and  C_4
REMARK    3  A    between atoms: C_4  and  C_6
REMARK    4  A    between atoms: C_9  and  N_10
REMARK    5  A    between atoms: C_18  and  C_19
REMARK    6  A    between atoms: C_21  and  C_24
REMARK                            x       y       z     vdW  Elec       q    Type
REMARK                         _______ _______ _______ _____ _____    ______ ____
ROOT
ATOM     10  N   UNL     1      -4.268   1.610  24.452  0.00  0.00    -0.162 NA
ATOM     11  C   UNL     1      -3.877   0.886  24.393  0.00  0.00    +0.328 C 
ATOM     12  O   UNL     1      -4.288   0.215  24.144  0.00  0.00    -0.250 OA
ATOM     13  N   UNL     1      -3.077   0.834  24.583  0.00  0.00    -0.249 N 
ATOM     14  C   UNL     1      -2.667   1.504  24.831  0.00  0.00    +0.143 C 
ATOM     15  C   UNL     1      -1.866   1.452  25.022  0.00  0.00    +0.094 A 
ATOM     16  C   UNL     1      -1.475   0.728  24.963  0.00  0.00    +0.078 A 
ATOM     17  C   UNL     1      -1.885   0.056  24.714  0.00  0.00    +0.077 C 
ATOM     18  C   UNL     1      -2.686   0.109  24.525  0.00  0.00    +0.162 C 
ATOM     27  N   UNL     1      -0.689   0.843  25.186  0.00  0.00    -0.227 NA
ATOM     28  C   UNL     1      -0.594   1.639  25.382  0.00  0.00    +0.198 A 
ATOM     29  N   UNL     1      -1.321   2.014  25.280  0.00  0.00    -0.225 NA
ENDROOT
BRANCH  10   9
ATOM      6  C   UNL     1      -3.040   3.625  25.198  0.00  0.00    +0.076 A 
ATOM      7  C   UNL     1      -3.412   3.140  25.752  0.00  0.00    +0.008 A 
ATOM      8  C   UNL     1      -3.822   2.467  25.503  0.00  0.00    +0.017 A 
ATOM      9  C   UNL     1      -3.859   2.282  24.700  0.00  0.00    +0.075 A 
ATOM     30  C   UNL     1      -3.487   2.767  24.146  0.00  0.00    +0.017 A 
ATOM     31  C   UNL     1      -3.078   3.438  24.395  0.00  0.00    +0.008 A 
BRANCH   6   4
ATOM      4  C   UNL     1      -2.631   4.296  25.447  0.00  0.00    +0.341 C 
ATOM      5  O   UNL     1      -2.765   4.606  26.200  0.00  0.00    -0.245 OA
BRANCH   4   3
ATOM      3  O   UNL     1      -2.087   4.658  24.944  0.00  0.00    -0.445 OA
BRANCH   3   2
ATOM      1  C   UNL     1      -0.928   5.485  24.814  0.00  0.00    +0.051 C 
ATOM      2  C   UNL     1      -1.614   5.275  25.221  0.00  0.00    +0.209 C 
ENDBRANCH   3   2
ENDBRANCH   4   3
ENDBRANCH   6   4
ENDBRANCH  10   9
BRANCH  18  19
ATOM     19  C   UNL     1      -3.095  -0.562  24.276  0.00  0.00    +0.255 A 
ATOM     20  N   UNL     1      -3.138  -1.281  24.677  0.00  0.00    -0.194 NA
ATOM     21  C   UNL     1      -3.603  -1.796  24.231  0.00  0.00    +0.180 A 
ATOM     22  N   UNL     1      -3.849  -1.395  23.554  0.00  0.00    -0.061 NA
ATOM     23  O   UNL     1      -3.536  -0.632  23.581  0.00  0.00    -0.336 OA
BRANCH  21  24
ATOM     24  C   UNL     1      -3.790  -2.575  24.428  0.00  0.00    +0.062 C 
ATOM     25  C   UNL     1      -3.491  -2.908  25.121  0.00  0.00    +0.008 C 
ATOM     26  C   UNL     1      -4.276  -3.021  23.932  0.00  0.00    +0.008 C 
ENDBRANCH  21  24
ENDBRANCH  18  19
TORSDOF 6
ENDMDL
MODEL 4
REMARK VINA RESULT:     -10.5      0.961      2.151
REMARK  Name = 
REMARK  6 active torsions:
REMARK  status: ('A' for Active; 'I' for Inactive)
REMARK    1  A    between atoms: C_2  and  O_3
REMARK    2  A    between atoms: O_3  and  C_4
REMARK    3  A    between atoms: C_4  and  C_6
REMARK    4  A    between atoms: C_9  and  N_10
REMARK    5  A    between atoms: C_18  and  C_19
REMARK    6  A    between atoms: C_21  and  C_24
REMARK                            x       y       z     vdW  Elec       q    Type
REMARK                         _______ _______ _______ _____ _____    ______ ____
ROOT
ATOM     10  N   UNL     1      -0.664   1.012  25.624  0.00  0.00    -0.162 NA
ATOM     11  C   UNL     1      -1.124   1.685  25.499  0.00  0.00    +0.328 C 
ATOM     12  O   UNL     1      -0.856   2.421  25.758  0.00  0.00    -0.250 OA
ATOM     13  N   UNL     1      -1.851   1.622  25.114  0.00  0.00    -0.249 N 
ATOM     14  C   UNL     1      -2.118   0.887  24.855  0.00  0.00    +0.143 C 
ATOM     15  C   UNL     1      -2.846   0.824  24.471  0.00  0.00    +0.094 A 
ATOM     16  C   UNL     1      -3.306   1.497  24.346  0.00  0.00    +0.078 A 
ATOM     17  C   UNL     1      -3.038   2.234  24.605  0.00  0.00    +0.077 C 
ATOM     18  C   UNL     1      -2.311   2.296  24.990  0.00  0.00    +0.162 C 
ATOM     27  N   UNL     1      -3.993   1.267  23.954  0.00  0.00    -0.227 NA
ATOM     28  C   UNL     1      -3.959   0.451  23.836  0.00  0.00    +0.198 A 
ATOM     29  N   UNL     1      -3.250   0.178  24.156  0.00  0.00    -0.225 NA
ENDROOT
BRANCH  10   9
ATOM      6  C   UNL     1      -1.464  -1.197  24.845  0.00  0.00    +0.076 A 
ATOM      7  C   UNL     1      -1.016  -0.720  24.343  0.00  0.00    +0.008 A 
ATOM      8  C   UNL     1      -0.749   0.017  24.603  0.00  0.00    +0.017 A 
ATOM      9  C   UNL     1      -0.931   0.276  25.364  0.00  0.00    +0.075 A 
ATOM     30  C   UNL     1      -1.379  -0.201  25.866  0.00  0.00    +0.017 A 
ATOM     31  C   UNL     1      -1.646  -0.937  25.607  0.00  0.00    +0.008 A 
BRANCH   6   4
ATOM      4  C   UNL     1      -1.730  -1.933  24.585  0.00  0.00    +0.341 C 
ATOM      5  O   UNL     1      -1.316  -2.338  23.997  0.00  0.00    -0.245 OA
BRANCH   4   3
ATOM      3  O   UNL     1      -2.411  -2.264  24.912  0.00  0.00    -0.445 OA
BRANCH   3   2
ATOM      1  C   UNL     1      -3.518  -3.155  24.753  0.00  0.00    +0.051 C 
ATOM      2  C   UNL     1      -2.738  -2.947  24.583  0.00  0.00    +0.209 C 
ENDBRANCH   3   2
ENDBRANCH   4   3
ENDBRANCH   6   4
ENDBRANCH  10   9
BRANCH  18  19
ATOM     19  C   UNL     1      -2.044   3.032  25.249  0.00  0.00    +0.255 A 
ATOM     20  N   UNL     1      -1.764   3.643  24.771  0.00  0.00    -0.194 NA
ATOM     21  C   UNL     1      -1.557   4.276  25.259  0.00  0.00    +0.180 A 
ATOM     22  N   UNL     1      -1.710   4.056  26.039  0.00  0.00    -0.061 NA
ATOM     23  O   UNL     1      -2.011   3.287  26.033  0.00  0.00    -0.336 OA
BRANCH  21  24
ATOM     24  C   UNL     1      -1.252   5.000  25.010  0.00  0.00    +0.062 C 
ATOM     25  C   UNL     1      -0.502   5.036  24.668  0.00  0.00    +0.008 C 
ATOM     26  C   UNL     1      -1.697   5.689  25.104  0.00  0.00    +0.008 C 
ENDBRANCH  21  24
ENDBRANCH  18  19
TORSDOF 6
ENDMDL
MODEL 5
REMARK VINA RESULT:      -9.2      2.092      3.669
REMARK  Name = 
REMARK  6 active torsions:
REMARK  status: ('A' for Active; 'I' for Inactive)
REMARK    1  A    between atoms: C_2  and  O_3
REMARK    2  A    between atoms: O_3  and  C_4
REMARK    3  A    between atoms: C_4  and  C_6
REMARK    4  A    between atoms: C_9  and  N_10
REMARK    5  A    between atoms: C_18  and  C_19
REMARK    6  A    between atoms: C_21  and  C_24
REMARK                            x       y       z     vdW  Elec       q    Type
REMARK                         _______ _______ _______ _____ _____    ______ ____
ROOT
ATOM     10  N   UNL     1      -1.859   2.415  23.736  0.00  0.00    -0.162 NA
ATOM     11  C   UNL     1      -1.330   1.788  23.829  0.00  0.00    +0.328 C 
ATOM     12  O   UNL     1      -0.551   1.864  23.568  0.00  0.00    -0.250 OA
ATOM     13  N   UNL     1      -1.581   1.087  24.183  0.00  0.00    -0.249 N 
ATOM     14  C   UNL     1      -2.359   1.011  24.443  0.00  0.00    +0.143 C 
ATOM     15  C   UNL     1      -2.610   0.309  24.797  0.00  0.00    +0.094 A 
ATOM     16  C   UNL     1      -2.082  -0.317  24.890  0.00  0.00    +0.078 A 
ATOM     17  C   UNL     1      -1.302  -0.242  24.629  0.00  0.00    +0.077 C 
ATOM     18  C   UNL     1      -1.052   0.460  24.275  0.00  0.00    +0.162 C 
ATOM     27  N   UNL     1      -2.483  -0.938  25.256  0.00  0.00    -0.227 NA
ATOM     28  C   UNL     1      -3.260  -0.695  25.389  0.00  0.00    +0.198 A 
ATOM     29  N   UNL     1      -3.338   0.076  25.105  0.00  0.00    -0.225 NA
ENDROOT
BRANCH  10   9
ATOM      6  C   UNL     1      -4.197   2.190  24.517  0.00  0.00    +0.076 A 
ATOM      7  C   UNL     1      -3.993   1.960  23.751  0.00  0.00    +0.008 A 
ATOM      8  C   UNL     1      -3.213   2.035  23.490  0.00  0.00    +0.017 A 
ATOM      9  C   UNL     1      -2.638   2.340  23.997  0.00  0.00    +0.075 A 
ATOM     30  C   UNL     1      -2.841   2.569  24.763  0.00  0.00    +0.017 A 
ATOM     31  C   UNL     1      -3.620   2.494  25.022  0.00  0.00    +0.008 A 
BRANCH   6   4
ATOM      4  C   UNL     1      -4.975   2.115  24.776  0.00  0.00    +0.341 C 
ATOM      5  O   UNL     1      -5.568   1.891  24.247  0.00  0.00    -0.245 OA
BRANCH   4   3
ATOM      3  O   UNL     1      -5.163   2.263  25.566  0.00  0.00    -0.445 OA
BRANCH   3   2
ATOM      1  C   UNL     1      -6.129   2.145  26.613  0.00  0.00    +0.051 C 
ATOM      2  C   UNL     1      -5.950   2.244  25.814  0.00  0.00    +0.209 C 
ENDBRANCH   3   2
ENDBRANCH   4   3
ENDBRANCH   6   4
ENDBRANCH  10   9
BRANCH  18  19
ATOM     19  C   UNL     1      -0.273   0.535  24.015  0.00  0.00    +0.255 A 
ATOM     20  N   UNL     1       0.075   0.113  23.398  0.00  0.00    -0.194 NA
ATOM     21  C   UNL     1       0.859   0.363  23.328  0.00  0.00    +0.180 A 
ATOM     22  N   UNL     1       0.995   0.938  23.902  0.00  0.00    -0.061 NA
ATOM     23  O   UNL     1       0.295   1.046  24.327  0.00  0.00    -0.336 OA
BRANCH  21  24
ATOM     24  C   UNL     1       1.409   0.084  22.779  0.00  0.00    +0.062 C 
ATOM     25  C   UNL     1       1.159  -0.372  22.140  0.00  0.00    +0.008 C 
ATOM     26  C   UNL     1       2.210   0.263  22.872  0.00  0.00    +0.008 C 
ENDBRANCH  21  24
ENDBRANCH  18  19
TORSDOF 6
ENDMDL
