MODEL 1
REMARK VINA RESULT:     -11.3      0.000      0.000
REMARK  Name = 
REMARK  9 active torsions:
REMARK  status: ('A' for Active; 'I' for Inactive)
REMARK    1  A    between atoms: O_2  and  C_3
REMARK    2  A    between atoms: C_3  and  C_4
REMARK    3  A    between atoms: C_4  and  O_5
REMARK    4  A    between atoms: O_5  and  C_6
REMARK    5  A    between atoms: C_7  and  C_12
REMARK    6  A    between atoms: C_15  and  C_17
REMARK    7  A    between atoms: N_21  and  C_22
REMARK    8  A    between atoms: C_22  and  C_23
REMARK    9  A    between atoms: C_26  and  N_29
REMARK                            x       y       z     vdW  Elec       q    Type
REMARK                         _______ _______ _______ _____ _____    ______ ____
ROOT
ATOM     12  C   UNL     1      -2.861   3.285  24.554  0.00  0.00    +0.208 A 
ATOM     13  N   UNL     1      -3.226   3.283  23.814  0.00  0.00    -0.056 NA
ATOM     14  O   UNL     1      -3.874   2.774  23.850  0.00  0.00    -0.336 OA
ATOM     15  C   UNL     1      -3.909   2.460  24.612  0.00  0.00    +0.251 A 
ATOM     16  N   UNL     1      -3.283   2.776  25.047  0.00  0.00    -0.189 NA
ENDROOT
BRANCH  12   7
ATOM      6  C   UNL     1      -1.440   3.391  24.663  0.00  0.00    +0.228 A 
ATOM      7  C   UNL     1      -2.191   3.718  24.763  0.00  0.00    +0.092 A 
ATOM      8  C   UNL     1      -2.273   4.478  25.073  0.00  0.00    +0.009 A 
ATOM      9  C   UNL     1      -1.603   4.912  25.282  0.00  0.00    +0.021 A 
ATOM     10  C   UNL     1      -0.852   4.586  25.182  0.00  0.00    +0.102 A 
ATOM     11  N   UNL     1      -0.771   3.825  24.872  0.00  0.00    -0.210 NA
BRANCH   6   5
ATOM      5  O   UNL     1      -1.359   2.632  24.353  0.00  0.00    -0.457 OA
BRANCH   5   4
ATOM      4  C   UNL     1      -0.624   2.257  24.366  0.00  0.00    +0.239 C 
BRANCH   4   3
ATOM      3  C   UNL     1      -0.506   1.565  23.934  0.00  0.00    +0.189 C 
BRANCH   3   2
ATOM      1  C   UNL     1      -0.017   0.225  23.855  0.00  0.00    +0.174 C 
ATOM      2  O   UNL     1      -0.175   0.902  24.297  0.00  0.00    -0.347 OA
ENDBRANCH   3   2
ENDBRANCH   4   3
ENDBRANCH   5   4
ENDBRANCH   6   5
ENDBRANCH  12   7
BRANCH  15  17
ATOM     17  C   UNL     1      -4.471   1.925  24.891  0.00  0.00    +0.138 C 
ATOM     18  C   UNL     1      -5.156   2.115  25.311  0.00  0.00    +0.027 C 
ATOM     19  C   UNL     1      -5.556   1.413  25.479  0.00  0.00    +0.019 C 
ATOM     20  C   UNL     1      -5.119   0.789  25.163  0.00  0.00    +0.073 C 
ATOM     21  N   UNL     1      -4.448   1.105  24.800  0.00  0.00    -0.263 NA
BRANCH  21  22
ATOM     22  C   UNL     1      -3.859   0.677  24.413  0.00  0.00    +0.099 C 
BRANCH  22  23
ATOM     23  C   UNL     1      -3.816  -0.142  24.505  0.00  0.00    -0.006 A 
ATOM     24  C   UNL     1      -3.421  -0.464  25.154  0.00  0.00    -0.001 A 
ATOM     25  C   UNL     1      -3.378  -1.283  25.246  0.00  0.00    +0.024 A 
ATOM     26  C   UNL     1      -3.730  -1.779  24.689  0.00  0.00    +0.143 A 
ATOM     27  C   UNL     1      -4.125  -1.458  24.040  0.00  0.00    +0.024 A 
ATOM     28  C   UNL     1      -4.168  -0.638  23.949  0.00  0.00    -0.001 A 
BRANCH  26  29
ATOM     29  N   UNL     1      -3.687  -2.598  24.781  0.00  0.00    +0.058 N 
ATOM     30  O   UNL     1      -3.896  -3.094  24.155  0.00  0.00    -0.126 OA
ATOM     31  O   UNL     1      -3.436  -2.921  25.498  0.00  0.00    -0.126 OA
ENDBRANCH  26  29
ENDBRANCH  22  23
ENDBRANCH  21  22
ENDBRANCH  15  17
TORSDOF 9
ENDMDL
MODEL 2
REMARK VINA RESULT:     -10.5      1.288      3.011
REMARK  Name = 
REMARK  9 active torsions:
REMARK  status: ('A' for Active; 'I' for Inactive)
REMARK    1  A    between atoms: O_2  and  C_3
REMARK    2  A    between atoms: C_3  and  C_4
REMARK    3  A    between atoms: C_4  and  O_5
REMARK    4  A    between atoms: O_5  and  C_6
REMARK    5  A    between atoms: C_7  and  C_12
REMARK    6  A    between atoms: C_15  and  C_17
REMARK    7  A    between atoms: N_21  and  C_22
REMARK    8  A    between atoms: C_22  and  C_23
REMARK    9  A    between atoms: C_26  and  N_29
REMARK                            x       y       z     vdW  Elec       q    Type
REMARK                         _______ _______ _______ _____ _____    ______ ____
ROOT
ATOM     12  C   UNL     1      -1.110   2.848  25.372  0.00  0.00    +0.208 A 
ATOM     13  N   UNL     1      -0.965   2.474  26.093  0.00  0.00    -0.056 NA
ATOM     14  O   UNL     1      -0.781   1.685  25.939  0.00  0.00    -0.336 OA
ATOM     15  C   UNL     1      -0.813   1.570  25.123  0.00  0.00    +0.251 A 
ATOM     16  N   UNL     1      -1.016   2.289  24.772  0.00  0.00    -0.189 NA
ENDROOT
BRANCH  12   7
ATOM      6  C   UNL     1      -2.105   3.870  25.298  0.00  0.00    +0.228 A 
ATOM      7  C   UNL     1      -1.313   3.641  25.268  0.00  0.00    +0.092 A 
ATOM      8  C   UNL     1      -0.725   4.203  25.136  0.00  0.00    +0.009 A 
ATOM      9  C   UNL     1      -0.929   4.996  25.032  0.00  0.00    +0.021 A 
ATOM     10  C   UNL     1      -1.720   5.226  25.062  0.00  0.00    +0.102 A 
ATOM     11  N   UNL     1      -2.309   4.663  25.195  0.00  0.00    -0.210 NA
BRANCH   6   5
ATOM      5  O   UNL     1      -2.693   3.308  25.431  0.00  0.00    -0.457 OA
BRANCH   5   4
ATOM      4  C   UNL     1      -3.488   3.509  25.330  0.00  0.00    +0.239 C 
BRANCH   4   3
ATOM      3  C   UNL     1      -4.079   3.001  25.598  0.00  0.00    +0.189 C 
BRANCH   3   2
ATOM      1  C   UNL     1      -5.374   2.431  25.398  0.00  0.00    +0.174 C 
ATOM      2  O   UNL     1      -4.690   2.775  25.091  0.00  0.00    -0.347 OA
ENDBRANCH   3   2
ENDBRANCH   4   3
ENDBRANCH   5   4
ENDBRANCH   6   5
ENDBRANCH  12   7
BRANCH  15  17
ATOM     17  C   UNL     1      -0.667   0.862  24.726  0.00  0.00    +0.138 C 
ATOM     18  C   UNL     1      -0.001   0.690  24.269  0.00  0.00    +0.027 C 
ATOM     19  C   UNL     1      -0.083  -0.078  23.978  0.00  0.00    +0.019 C 
ATOM     20  C   UNL     1      -0.799  -0.380  24.254  0.00  0.00    +0.073 C 
ATOM     21  N   UNL     1      -1.160   0.201  24.717  0.00  0.00    -0.263 NA
BRANCH  21  22
ATOM     22  C   UNL     1      -1.886   0.131  25.102  0.00  0.00    +0.099 C 
BRANCH  22  23
ATOM     23  C   UNL     1      -2.414  -0.463  24.884  0.00  0.00    -0.006 A 
ATOM     24  C   UNL     1      -2.981  -0.318  24.301  0.00  0.00    -0.001 A 
ATOM     25  C   UNL     1      -3.509  -0.912  24.083  0.00  0.00    +0.024 A 
ATOM     26  C   UNL     1      -3.471  -1.652  24.446  0.00  0.00    +0.143 A 
ATOM     27  C   UNL     1      -2.905  -1.797  25.028  0.00  0.00    +0.024 A 
ATOM     28  C   UNL     1      -2.376  -1.202  25.247  0.00  0.00    -0.001 A 
BRANCH  26  29
ATOM     29  N   UNL     1      -4.000  -2.247  24.228  0.00  0.00    +0.058 N 
ATOM     30  O   UNL     1      -4.709  -2.051  23.855  0.00  0.00    -0.126 OA
ATOM     31  O   UNL     1      -3.819  -3.037  24.382  0.00  0.00    -0.126 OA
ENDBRANCH  26  29
ENDBRANCH  22  23
ENDBRANCH  21  22
ENDBRANCH  15  17
TORSDOF 9
ENDMDL
MODEL 3
REMARK VINA RESULT:     -10.3      1.561      5.609
REMARK  Name = 
REMARK  9 active torsions:
REMARK  status: ('A' for Active; 'I' for Inactive)
REMARK    1  A    between atoms: O_2  and  C_3
REMARK    2  A    between atoms: C_3  and  C_4
REMARK    3  A    between atoms: C_4  and  O_5
REMARK    4  A    between atoms: O_5  and  C_6
REMARK    5  A    between atoms: C_7  and  C_12
REMARK    6  A    between atoms: C_15  and  C_17
REMARK    7  A    between atoms: N_21  and  C_22
REMARK    8  A    between atoms: C_22  and  C_23
REMARK    9  A    between atoms: C_26  and  N_29
REMARK                            x       y       z     vdW  Elec       q    Type
REMARK                         _______ _______ _______ _____ _____    ______ ____
ROOT
ATOM     12  C   UNL     1      -2.324  -0.931  24.847  0.00  0.00    +0.208 A 
ATOM     13  N   UNL     1      -2.017  -0.901  25.612  0.00  0.00    -0.056 NA
ATOM     14  O   UNL     1      -1.362  -0.399  25.604  0.00  0.00    -0.336 OA
ATOM     15  C   UNL     1      -1.265  -0.119  24.835  0.00  0.00    +0.251 A 
ATOM     16  N   UNL     1      -1.860  -0.448  24.367  0.00  0.00    -0.189 NA
ENDROOT
BRANCH  12   7
ATOM      6  C   UNL     1      -3.722  -1.008  24.561  0.00  0.00    +0.228 A 
ATOM      7  C   UNL     1      -2.981  -1.368  24.605  0.00  0.00    +0.092 A 
ATOM      8  C   UNL     1      -2.896  -2.164  24.407  0.00  0.00    +0.009 A 
ATOM      9  C   UNL     1      -3.553  -2.600  24.165  0.00  0.00    +0.021 A 
ATOM     10  C   UNL     1      -4.295  -2.241  24.121  0.00  0.00    +0.102 A 
ATOM     11  N   UNL     1      -4.379  -1.444  24.319  0.00  0.00    -0.210 NA
BRANCH   6   5
ATOM      5  O   UNL     1      -3.807  -0.212  24.759  0.00  0.00    -0.457 OA
BRANCH   5   4
ATOM      4  C   UNL     1      -4.532   0.166  24.652  0.00  0.00    +0.239 C 
BRANCH   4   3
ATOM      3  C   UNL     1      -4.702   0.859  25.065  0.00  0.00    +0.189 C 
BRANCH   3   2
ATOM      1  C   UNL     1      -5.449   2.077  25.086  0.00  0.00    +0.174 C 
ATOM      2  O   UNL     1      -5.023   1.508  24.669  0.00  0.00    -0.347 OA
ENDBRANCH   3   2
ENDBRANCH   4   3
ENDBRANCH   5   4
ENDBRANCH   6   5
ENDBRANCH  12   7
BRANCH  15  17
ATOM     17  C   UNL     1      -0.677   0.399  24.578  0.00  0.00    +0.138 C 
ATOM     18  C   UNL     1      -0.053   0.211  24.071  0.00  0.00    +0.027 C 
ATOM     19  C   UNL     1       0.401   0.892  23.962  0.00  0.00    +0.019 C 
ATOM     20  C   UNL     1       0.058   1.500  24.401  0.00  0.00    +0.073 C 
ATOM     21  N   UNL     1      -0.608   1.195  24.782  0.00  0.00    -0.263 NA
BRANCH  21  22
ATOM     22  C   UNL     1      -1.116   1.614  25.280  0.00  0.00    +0.099 C 
BRANCH  22  23
ATOM     23  C   UNL     1      -1.147   2.437  25.240  0.00  0.00    -0.006 A 
ATOM     24  C   UNL     1      -1.678   2.805  24.726  0.00  0.00    -0.001 A 
ATOM     25  C   UNL     1      -1.710   3.628  24.686  0.00  0.00    +0.024 A 
ATOM     26  C   UNL     1      -1.210   4.084  25.159  0.00  0.00    +0.143 A 
ATOM     27  C   UNL     1      -0.679   3.716  25.673  0.00  0.00    +0.024 A 
ATOM     28  C   UNL     1      -0.648   2.892  25.712  0.00  0.00    -0.001 A 
BRANCH  26  29
ATOM     29  N   UNL     1      -1.242   4.907  25.119  0.00  0.00    +0.058 N 
ATOM     30  O   UNL     1      -1.884   5.311  25.444  0.00  0.00    -0.126 OA
ATOM     31  O   UNL     1      -0.631   5.327  24.755  0.00  0.00    -0.126 OA
ENDBRANCH  26  29
ENDBRANCH  22  23
ENDBRANCH  21  22
ENDBRANCH  15  17
TORSDOF 9
ENDMDL
MODEL 4
REMARK VINA RESULT:     -10.2      1.360      4.814
REMARK  Name = 
REMARK  9 active torsions:
REMARK  status: ('A' for Active; 'I' for Inactive)
REMARK    1  A    between atoms: O_2  and  C_3
REMARK    2  A    between atoms: C_3  and  C_4
REMARK    3  A    between atoms: C_4  and  O_5
REMARK    4  A    between atoms: O_5  and  C_6
REMARK    5  A    between atoms: C_7  and  C_12
REMARK    6  A    between atoms: C_15  and  C_17
REMARK    7  A    between atoms: N_21  and  C_22
REMARK    8  A    between atoms: C_22  and  C_23
REMARK    9  A    between atoms: C_26  and  N_29
REMARK                            x       y       z     vdW  Elec       q    Type
REMARK                         _______ _______ _______ _____ _____    ______ ____
ROOT
ATOM     12  C   UNL     1      -3.647  -0.530  24.222  0.00  0.00    +0.208 A 
ATOM     13  N   UNL     1      -3.624  -0.136  23.497  0.00  0.00    -0.056 NA
ATOM     14  O   UNL     1      -3.841   0.650  23.627  0.00  0.00    -0.336 OA
ATOM     15  C   UNL     1      -3.998   0.741  24.432  0.00  0.00    +0.251 A 
ATOM     16  N   UNL     1      -3.877   0.011  24.799  0.00  0.00    -0.189 NA
ENDROOT
BRANCH  12   7
ATOM      6  C   UNL     1      -2.692  -1.555  24.506  0.00  0.00    +0.228 A 
ATOM      7  C   UNL     1      -3.469  -1.326  24.346  0.00  0.00    +0.092 A 
ATOM      8  C   UNL     1      -4.067  -1.892  24.311  0.00  0.00    +0.009 A 
ATOM      9  C   UNL     1      -3.890  -2.688  24.436  0.00  0.00    +0.021 A 
ATOM     10  C   UNL     1      -3.114  -2.918  24.595  0.00  0.00    +0.102 A 
ATOM     11  N   UNL     1      -2.515  -2.351  24.630  0.00  0.00    -0.210 NA
BRANCH   6   5
ATOM      5  O   UNL     1      -2.094  -0.989  24.540  0.00  0.00    -0.457 OA
BRANCH   5   4
ATOM      4  C   UNL     1      -1.303  -1.224  24.567  0.00  0.00    +0.239 C 
BRANCH   4   3
ATOM      3  C   UNL     1      -0.706  -0.659  24.629  0.00  0.00    +0.189 C 
BRANCH   3   2
ATOM      1  C   UNL     1       0.234   0.057  23.826  0.00  0.00    +0.174 C 
ATOM      2  O   UNL     1      -0.082  -0.657  24.088  0.00  0.00    -0.347 OA
ENDBRANCH   3   2
ENDBRANCH   4   3
ENDBRANCH   5   4
ENDBRANCH   6   5
ENDBRANCH  12   7
BRANCH  15  17
ATOM     17  C   UNL     1      -4.233   1.438  24.805  0.00  0.00    +0.138 C 
ATOM     18  C   UNL     1      -5.001   1.625  25.043  0.00  0.00    +0.027 C 
ATOM     19  C   UNL     1      -4.985   2.373  25.391  0.00  0.00    +0.019 C 
ATOM     20  C   UNL     1      -4.208   2.649  25.367  0.00  0.00    +0.073 C 
ATOM     21  N   UNL     1      -3.743   2.071  25.004  0.00  0.00    -0.263 NA
BRANCH  21  22
ATOM     22  C   UNL     1      -2.932   2.118  24.867  0.00  0.00    +0.099 C 
BRANCH  22  23
ATOM     23  C   UNL     1      -2.543   2.842  24.935  0.00  0.00    -0.006 A 
ATOM     24  C   UNL     1      -2.113   3.017  25.618  0.00  0.00    -0.001 A 
ATOM     25  C   UNL     1      -1.724   3.741  25.686  0.00  0.00    +0.024 A 
ATOM     26  C   UNL     1      -1.764   4.290  25.072  0.00  0.00    +0.143 A 
ATOM     27  C   UNL     1      -2.194   4.116  24.390  0.00  0.00    +0.024 A 
ATOM     28  C   UNL     1      -2.583   3.391  24.321  0.00  0.00    -0.001 A 
BRANCH  26  29
ATOM     29  N   UNL     1      -1.375   5.015  25.141  0.00  0.00    +0.058 N 
ATOM     30  O   UNL     1      -0.580   5.076  24.930  0.00  0.00    -0.126 OA
ATOM     31  O   UNL     1      -1.782   5.677  25.419  0.00  0.00    -0.126 OA
ENDBRANCH  26  29
ENDBRANCH  22  23
ENDBRANCH  21  22
ENDBRANCH  15  17
TORSDOF 9
ENDMDL
MODEL 5
REMARK VINA RESULT:      -9.5      1.821      4.494
REMARK  Name = 
REMARK  9 active torsions:
REMARK  status: ('A' for Active; 'I' for Inactive)
REMARK    1  A    between atoms: O_2  and  C_3
REMARK    2  A    between atoms: C_3  and  C_4
REMARK    3  A    between atoms: C_4  and  O_5
REMARK    4  A    between atoms: O_5  and  C_6
REMARK    5  A    between atoms: C_7  and  C_12
REMARK    6  A    between atoms: C_15  and  C_17
REMARK    7  A    between atoms: N_21  and  C_22
REMARK    8  A    between atoms: C_22  and  C_23
REMARK    9  A    between atoms: C_26  and  N_29
REMARK                            x       y       z     vdW  Elec       q    Type
REMARK                         _______ _______ _______ _____ _____    ______ ____
ROOT
ATOM     12  C   UNL     1      -0.026   1.885  24.701  0.00  0.00    +0.208 A 
ATOM     13  N   UNL     1       0.200   2.011  25.485  0.00  0.00    -0.056 NA
ATOM     14  O   UNL     1      -0.129   2.727  25.733  0.00  0.00    -0.336 OA
ATOM     15  C   UNL     1      -0.558   3.042  25.102  0.00  0.00    +0.251 A 
ATOM     16  N   UNL     1      -0.493   2.522  24.464  0.00  0.00    -0.189 NA
ENDROOT
BRANCH  12   7
ATOM      6  C   UNL     1      -0.257   0.538  24.284  0.00  0.00    +0.228 A 
ATOM      7  C   UNL     1       0.181   1.236  24.236  0.00  0.00    +0.092 A 
ATOM      8  C   UNL     1       0.824   1.285  23.722  0.00  0.00    +0.009 A 
ATOM      9  C   UNL     1       1.031   0.636  23.257  0.00  0.00    +0.021 A 
ATOM     10  C   UNL     1       0.594  -0.062  23.305  0.00  0.00    +0.102 A 
ATOM     11  N   UNL     1      -0.050  -0.111  23.819  0.00  0.00    -0.210 NA
BRANCH   6   5
ATOM      5  O   UNL     1      -0.900   0.489  24.798  0.00  0.00    -0.457 OA
BRANCH   5   4
ATOM      4  C   UNL     1      -1.403  -0.165  24.769  0.00  0.00    +0.239 C 
BRANCH   4   3
ATOM      3  C   UNL     1      -1.942  -0.298  25.379  0.00  0.00    +0.189 C 
BRANCH   3   2
ATOM      1  C   UNL     1      -3.182  -0.941  25.677  0.00  0.00    +0.174 C 
ATOM      2  O   UNL     1      -2.737  -0.433  25.205  0.00  0.00    -0.347 OA
ENDBRANCH   3   2
ENDBRANCH   4   3
ENDBRANCH   5   4
ENDBRANCH   6   5
ENDBRANCH  12   7
BRANCH  15  17
ATOM     17  C   UNL     1      -0.977   3.753  25.108  0.00  0.00    +0.138 C 
ATOM     18  C   UNL     1      -0.693   4.485  24.853  0.00  0.00    +0.027 C 
ATOM     19  C   UNL     1      -1.294   5.041  24.956  0.00  0.00    +0.019 C 
ATOM     20  C   UNL     1      -1.948   4.653  25.275  0.00  0.00    +0.073 C 
ATOM     21  N   UNL     1      -1.752   3.856  25.369  0.00  0.00    -0.263 NA
BRANCH  21  22
ATOM     22  C   UNL     1      -2.245   3.268  25.670  0.00  0.00    +0.099 C 
BRANCH  22  23
ATOM     23  C   UNL     1      -3.064   3.355  25.629  0.00  0.00    -0.006 A 
ATOM     24  C   UNL     1      -3.480   3.048  24.984  0.00  0.00    -0.001 A 
ATOM     25  C   UNL     1      -4.299   3.135  24.943  0.00  0.00    +0.024 A 
ATOM     26  C   UNL     1      -4.703   3.528  25.545  0.00  0.00    +0.143 A 
ATOM     27  C   UNL     1      -4.289   3.834  26.189  0.00  0.00    +0.024 A 
ATOM     28  C   UNL     1      -3.469   3.748  26.230  0.00  0.00    -0.001 A 
BRANCH  26  29
ATOM     29  N   UNL     1      -5.523   3.614  25.503  0.00  0.00    +0.058 N 
ATOM     30  O   UNL     1      -5.999   2.959  25.346  0.00  0.00    -0.126 OA
ATOM     31  O   UNL     1      -5.866   4.356  25.618  0.00  0.00    -0.126 OA
ENDBRANCH  26  29
ENDBRANCH  22  23
ENDBRANCH  21  22
ENDBRANCH  15  17
TORSDOF 9
ENDMDL
MODEL 6
REMARK VINA RESULT:      -9.2      1.641      3.538
REMARK  Name = 
REMARK  9 active torsions:
REMARK  status: ('A' for Active; 'I' for Inactive)
REMARK    1  A    between atoms: O_2  and  C_3
REMARK    2  A    between atoms: C_3  and  C_4
REMARK    3  A    between atoms: C_4  and  O_5
REMARK    4  A    between atoms: O_5  and  C_6
REMARK    5  A    between atoms: C_7  and  C_12
REMARK    6  A    between atoms: C_15  and  C_17
REMARK    7  A    between atoms: N_21  and  C_22
REMARK    8  A    between atoms: C_22  and  C_23
REMARK    9  A    between atoms: C_26  and  N_29
REMARK                            x       y       z     vdW  Elec       q    Type
REMARK                         _______ _______ _______ _____ _____    ______ ____
ROOT
ATOM     12  C   UNL     1      -3.333   2.972  24.968  0.00  0.00    +0.208 A 
ATOM     13  N   UNL     1      -3.002   3.191  24.245  0.00  0.00    -0.056 NA
ATOM     14  O   UNL     1      -2.190   3.047  24.282  0.00  0.00    -0.336 OA
ATOM     15  C   UNL     1      -2.020   2.739  25.028  0.00  0.00    +0.251 A 
ATOM     16  N   UNL     1      -2.726   2.693  25.452  0.00  0.00    -0.189 NA
ENDROOT
BRANCH  12   7
ATOM      6  C   UNL     1      -4.625   2.370  25.071  0.00  0.00    +0.228 A 
ATOM      7  C   UNL     1      -4.131   3.023  25.172  0.00  0.00    +0.092 A 
ATOM      8  C   UNL     1      -4.434   3.727  25.476  0.00  0.00    +0.009 A 
ATOM      9  C   UNL     1      -5.232   3.779  25.679  0.00  0.00    +0.021 A 
ATOM     10  C   UNL     1      -5.726   3.126  25.579  0.00  0.00    +0.102 A 
ATOM     11  N   UNL     1      -5.422   2.421  25.275  0.00  0.00    -0.210 NA
BRANCH   6   5
ATOM      5  O   UNL     1      -4.321   1.666  24.767  0.00  0.00    -0.457 OA
BRANCH   5   4
ATOM      4  C   UNL     1      -4.772   0.975  24.796  0.00  0.00    +0.239 C 
BRANCH   4   3
ATOM      3  C   UNL     1      -4.568   0.329  24.326  0.00  0.00    +0.189 C 
BRANCH   3   2
ATOM      1  C   UNL     1      -4.349  -1.076  24.185  0.00  0.00    +0.174 C 
ATOM      2  O   UNL     1      -4.501  -0.421  24.663  0.00  0.00    -0.347 OA
ENDBRANCH   3   2
ENDBRANCH   4   3
ENDBRANCH   5   4
ENDBRANCH   6   5
ENDBRANCH  12   7
BRANCH  15  17
ATOM     17  C   UNL     1      -1.274   2.516  25.302  0.00  0.00    +0.138 C 
ATOM     18  C   UNL     1      -0.798   2.950  25.818  0.00  0.00    +0.027 C 
ATOM     19  C   UNL     1      -0.103   2.522  25.944  0.00  0.00    +0.019 C 
ATOM     20  C   UNL     1      -0.150   1.825  25.506  0.00  0.00    +0.073 C 
ATOM     21  N   UNL     1      -0.874   1.821  25.109  0.00  0.00    -0.263 NA
BRANCH  21  22
ATOM     22  C   UNL     1      -1.149   1.227  24.608  0.00  0.00    +0.099 C 
BRANCH  22  23
ATOM     23  C   UNL     1      -0.974   0.437  24.769  0.00  0.00    -0.006 A 
ATOM     24  C   UNL     1      -0.550  -0.012  24.222  0.00  0.00    -0.001 A 
ATOM     25  C   UNL     1      -0.375  -0.801  24.383  0.00  0.00    +0.024 A 
ATOM     26  C   UNL     1      -0.623  -1.143  25.092  0.00  0.00    +0.143 A 
ATOM     27  C   UNL     1      -1.047  -0.694  25.640  0.00  0.00    +0.024 A 
ATOM     28  C   UNL     1      -1.222   0.096  25.478  0.00  0.00    -0.001 A 
BRANCH  26  29
ATOM     29  N   UNL     1      -0.448  -1.933  25.254  0.00  0.00    +0.058 N 
ATOM     30  O   UNL     1      -0.946  -2.530  24.978  0.00  0.00    -0.126 OA
ATOM     31  O   UNL     1       0.225  -2.125  25.691  0.00  0.00    -0.126 OA
ENDBRANCH  26  29
ENDBRANCH  22  23
ENDBRANCH  21  22
ENDBRANCH  15  17
TORSDOF 9
ENDMDL
MODEL 7
REMARK VINA RESULT:      -9.1      1.646      3.869
REMARK  Name = 
REMARK  9 active torsions:
REMARK  status: ('A' for Active; 'I' for Inactive)
REMARK    1  A    between atoms: O_2  and  C_3
REMARK    2  A    between atoms: C_3  and  C_4
REMARK    3  A    between atoms: C_4  and  O_5
REMARK    4  A    between atoms: O_5  and  C_6
REMARK    5  A    between atoms: C_7  and  C_12
REMARK    6  A    between atoms: C_15  and  C_17
REMARK    7  A    between atoms: N_21  and  C_22
REMARK    8  A    between atoms: C_22  and  C_23
REMARK    9  A    between atoms: C_26  and  N_29
REMARK                            x       y       z     vdW  Elec       q    Type
REMARK                         _______ _______ _______ _____ _____    ______ ____
ROOT
ATOM     12  C   UNL     1      -0.767  -0.480  24.391  0.00  0.00    +0.208 A 
ATOM     13  N   UNL     1      -0.763  -0.814  25.146  0.00  0.00    -0.056 NA
ATOM     14  O   UNL     1      -1.523  -1.097  25.302  0.00  0.00    -0.336 OA
ATOM     15  C   UNL     1      -1.995  -0.938  24.645  0.00  0.00    +0.251 A 
ATOM     16  N   UNL     1      -1.527  -0.556  24.082  0.00  0.00    -0.189 NA
ENDROOT
BRANCH  12   7
ATOM      6  C   UNL     1       0.073   0.655  24.172  0.00  0.00    +0.228 A 
ATOM      7  C   UNL     1      -0.122  -0.130  24.013  0.00  0.00    +0.092 A 
ATOM      8  C   UNL     1       0.327  -0.567  23.476  0.00  0.00    +0.009 A 
ATOM      9  C   UNL     1       0.971  -0.217  23.098  0.00  0.00    +0.021 A 
ATOM     10  C   UNL     1       1.167   0.568  23.256  0.00  0.00    +0.102 A 
ATOM     11  N   UNL     1       0.718   1.005  23.794  0.00  0.00    -0.210 NA
BRANCH   6   5
ATOM      5  O   UNL     1      -0.375   1.091  24.709  0.00  0.00    -0.457 OA
BRANCH   5   4
ATOM      4  C   UNL     1      -0.232   1.898  24.808  0.00  0.00    +0.239 C 
BRANCH   4   3
ATOM      3  C   UNL     1      -0.612   2.314  25.410  0.00  0.00    +0.189 C 
BRANCH   3   2
ATOM      1  C   UNL     1      -1.429   3.407  25.835  0.00  0.00    +0.174 C 
ATOM      2  O   UNL     1      -1.046   2.993  25.234  0.00  0.00    -0.347 OA
ENDBRANCH   3   2
ENDBRANCH   4   3
ENDBRANCH   5   4
ENDBRANCH   6   5
ENDBRANCH  12   7
BRANCH  15  17
ATOM     17  C   UNL     1      -2.793  -1.127  24.564  0.00  0.00    +0.138 C 
ATOM     18  C   UNL     1      -3.097  -1.836  24.269  0.00  0.00    +0.027 C 
ATOM     19  C   UNL     1      -3.920  -1.787  24.287  0.00  0.00    +0.019 C 
ATOM     20  C   UNL     1      -4.126  -1.049  24.592  0.00  0.00    +0.073 C 
ATOM     21  N   UNL     1      -3.429  -0.641  24.763  0.00  0.00    -0.263 NA
BRANCH  21  22
ATOM     22  C   UNL     1      -3.379   0.120  25.078  0.00  0.00    +0.099 C 
BRANCH  22  23
ATOM     23  C   UNL     1      -4.034   0.620  25.057  0.00  0.00    -0.006 A 
ATOM     24  C   UNL     1      -4.630   0.543  25.622  0.00  0.00    -0.001 A 
ATOM     25  C   UNL     1      -5.286   1.043  25.601  0.00  0.00    +0.024 A 
ATOM     26  C   UNL     1      -5.346   1.620  25.015  0.00  0.00    +0.143 A 
ATOM     27  C   UNL     1      -4.750   1.698  24.450  0.00  0.00    +0.024 A 
ATOM     28  C   UNL     1      -4.094   1.197  24.471  0.00  0.00    -0.001 A 
BRANCH  26  29
ATOM     29  N   UNL     1      -6.002   2.120  24.994  0.00  0.00    +0.058 N 
ATOM     30  O   UNL     1      -5.952   2.878  25.317  0.00  0.00    -0.126 OA
ATOM     31  O   UNL     1      -6.707   1.863  24.650  0.00  0.00    -0.126 OA
ENDBRANCH  26  29
ENDBRANCH  22  23
ENDBRANCH  21  22
ENDBRANCH  15  17
TORSDOF 9
ENDMDL
MODEL 8
REMARK VINA RESULT:      -8.9      1.829      4.306
REMARK  Name = 
REMARK  9 active torsions:
REMARK  status: ('A' for Active; 'I' for Inactive)
REMARK    1  A    between atoms: O_2  and  C_3
REMARK    2  A    between atoms: C_3  and  C_4
REMARK    3  A    between atoms: C_4  and  O_5
REMARK    4  A    between atoms: O_5  and  C_6
REMARK    5  A    between atoms: C_7  and  C_12
REMARK    6  A    between atoms: C_15  and  C_17
REMARK    7  A    between atoms: N_21  and  C_22
REMARK    8  A    between atoms: C_22  and  C_23
REMARK    9  A    between atoms: C_26  and  N_29
REMARK                            x       y       z     vdW  Elec       q    Type
REMARK                         _______ _______ _______ _____ _____    ______ ____
ROOT
ATOM     12  C   UNL     1      -3.823   1.271  24.718  0.00  0.00    +0.208 A 
ATOM     13  N   UNL     1      -3.750   0.972  23.952  0.00  0.00    -0.056 NA
ATOM     14  O   UNL     1      -3.106   0.455  23.940  0.00  0.00    -0.336 OA
ATOM     15  C   UNL     1      -2.782   0.435  24.699  0.00  0.00    +0.251 A 
ATOM     16  N   UNL     1      -3.225   0.939  25.179  0.00  0.00    -0.189 NA
ENDROOT
BRANCH  12   7
ATOM      6  C   UNL     1      -4.195   2.602  25.081  0.00  0.00    +0.228 A 
ATOM      7  C   UNL     1      -4.394   1.808  24.976  0.00  0.00    +0.092 A 
ATOM      8  C   UNL     1      -5.162   1.550  25.129  0.00  0.00    +0.009 A 
ATOM      9  C   UNL     1      -5.733   2.087  25.388  0.00  0.00    +0.021 A 
ATOM     10  C   UNL     1      -5.535   2.881  25.493  0.00  0.00    +0.102 A 
ATOM     11  N   UNL     1      -4.766   3.138  25.340  0.00  0.00    -0.210 NA
BRANCH   6   5
ATOM      5  O   UNL     1      -3.427   2.859  24.928  0.00  0.00    -0.457 OA
BRANCH   5   4
ATOM      4  C   UNL     1      -3.215   3.642  25.081  0.00  0.00    +0.239 C 
BRANCH   4   3
ATOM      3  C   UNL     1      -2.446   3.898  24.934  0.00  0.00    +0.189 C 
BRANCH   3   2
ATOM      1  C   UNL     1      -1.413   4.866  25.130  0.00  0.00    +0.174 C 
ATOM      2  O   UNL     1      -2.136   4.538  25.353  0.00  0.00    -0.347 OA
ENDBRANCH   3   2
ENDBRANCH   4   3
ENDBRANCH   5   4
ENDBRANCH   6   5
ENDBRANCH  12   7
BRANCH  15  17
ATOM     17  C   UNL     1      -2.130  -0.011  24.936  0.00  0.00    +0.138 C 
ATOM     18  C   UNL     1      -2.130  -0.603  25.510  0.00  0.00    +0.027 C 
ATOM     19  C   UNL     1      -1.363  -0.901  25.569  0.00  0.00    +0.019 C 
ATOM     20  C   UNL     1      -0.889  -0.493  25.032  0.00  0.00    +0.073 C 
ATOM     21  N   UNL     1      -1.362   0.058  24.640  0.00  0.00    -0.263 NA
BRANCH  21  22
ATOM     22  C   UNL     1      -1.113   0.584  24.056  0.00  0.00    +0.099 C 
BRANCH  22  23
ATOM     23  C   UNL     1      -0.327   0.580  23.806  0.00  0.00    -0.006 A 
ATOM     24  C   UNL     1      -0.057  -0.015  23.301  0.00  0.00    -0.001 A 
ATOM     25  C   UNL     1       0.728  -0.019  23.051  0.00  0.00    +0.024 A 
ATOM     26  C   UNL     1       1.245   0.571  23.305  0.00  0.00    +0.143 A 
ATOM     27  C   UNL     1       0.977   1.166  23.810  0.00  0.00    +0.024 A 
ATOM     28  C   UNL     1       0.190   1.170  24.060  0.00  0.00    -0.001 A 
BRANCH  26  29
ATOM     29  N   UNL     1       2.032   0.567  23.055  0.00  0.00    +0.058 N 
ATOM     30  O   UNL     1       2.555   1.141  23.332  0.00  0.00    -0.126 OA
ATOM     31  O   UNL     1       2.294  -0.011  22.527  0.00  0.00    -0.126 OA
ENDBRANCH  26  29
ENDBRANCH  22  23
ENDBRANCH  21  22
ENDBRANCH  15  17
TORSDOF 9
ENDMDL
