MODEL 1
REMARK VINA RESULT:      -9.4      0.000      0.000
REMARK  Name = 
REMARK  9 active torsions:
REMARK  status: ('A' for Active; 'I' for Inactive)
REMARK    1  A    between atoms: O_2  and  C_3
REMARK    2  A    between atoms: C_3  and  C_4
REMARK    3  A    between atoms: C_11  and  C_12
REMARK    4  A    between atoms: N_14  and  C_15
REMARK    5  A    between atoms: C_15  and  C_16
REMARK    6  A    between atoms: C_15  and  C_23
REMARK    7  A    between atoms: C_16  and  C_17
REMARK    8  A    between atoms: C_26  and  C_28
REMARK    9  A    between atoms: C_31  and  N_34
REMARK                            x       y       z     vdW  Elec       q    Type
REMARK                         _______ _______ _______ _____ _____    ______ ____
ROOT
ATOM      4  C   UNL     1      -5.452   2.525  25.247  0.00  0.00    +0.256 C 
ATOM      5  O   UNL     1      -6.244   2.306  25.179  0.00  0.00    -0.272 OA
ATOM      6  N   UNL     1      -4.858   1.961  25.153  0.00  0.00    -0.268 N 
ATOM      7  C   UNL     1      -5.057   1.177  24.991  0.00  0.00    +0.115 C 
ATOM      8  C   UNL     1      -4.462   0.612  24.896  0.00  0.00    +0.115 C 
ATOM      9  N   UNL     1      -3.670   0.831  24.964  0.00  0.00    -0.272 N 
ATOM     10  C   UNL     1      -3.471   1.616  25.126  0.00  0.00    +0.123 C 
ATOM     11  C   UNL     1      -4.066   2.181  25.220  0.00  0.00    +0.174 C 
ATOM     26  C   UNL     1      -3.076   0.267  24.870  0.00  0.00    +0.249 C 
ATOM     27  O   UNL     1      -2.283   0.486  24.938  0.00  0.00    -0.270 OA
ENDROOT
BRANCH  26  28
ATOM     28  C   UNL     1      -3.274  -0.518  24.708  0.00  0.00    +0.054 A 
ATOM     29  C   UNL     1      -3.263  -1.079  25.313  0.00  0.00    +0.006 A 
ATOM     30  C   UNL     1      -3.460  -1.863  25.151  0.00  0.00    +0.015 A 
ATOM     31  C   UNL     1      -3.669  -2.087  24.386  0.00  0.00    +0.048 A 
ATOM     32  C   UNL     1      -3.680  -1.526  23.781  0.00  0.00    +0.015 A 
ATOM     33  C   UNL     1      -3.482  -0.741  23.942  0.00  0.00    +0.006 A 
BRANCH  31  34
ATOM     34  N   UNL     1      -3.866  -2.872  24.224  0.00  0.00    -0.304 N 
ATOM     35  C   UNL     1      -3.483  -3.483  24.623  0.00  0.00    +0.112 C 
ATOM     36  C   UNL     1      -4.447  -3.044  23.664  0.00  0.00    +0.112 C 
ENDBRANCH  31  34
ENDBRANCH  26  28
BRANCH  11  12
ATOM     12  C   UNL     1      -3.868   2.964  25.382  0.00  0.00    +0.262 C 
ATOM     13  O   UNL     1      -4.436   3.557  25.309  0.00  0.00    -0.271 OA
ATOM     14  N   UNL     1      -3.100   3.155  25.618  0.00  0.00    -0.196 NA
BRANCH  14  15
ATOM     15  C   UNL     1      -2.902   3.939  25.780  0.00  0.00    +0.174 C 
BRANCH  15  23
ATOM     23  C   UNL     1      -2.932   4.221  26.555  0.00  0.00    +0.281 C 
ATOM     24  N   UNL     1      -2.644   3.757  27.174  0.00  0.00    -0.086 NA
ATOM     25  O   UNL     1      -3.248   4.967  26.712  0.00  0.00    -0.270 OA
ENDBRANCH  15  23
BRANCH  15  16
ATOM     16  C   UNL     1      -2.674   4.442  25.167  0.00  0.00    +0.031 C 
BRANCH  16  17
ATOM     17  C   UNL     1      -1.874   4.530  24.981  0.00  0.00    +0.002 C 
ATOM     18  C   UNL     1      -1.522   5.276  25.015  0.00  0.00    +0.000 C 
ATOM     19  C   UNL     1      -0.724   5.363  24.829  0.00  0.00    +0.000 C 
ATOM     20  C   UNL     1      -0.276   4.706  24.610  0.00  0.00    +0.000 C 
ATOM     21  C   UNL     1      -0.627   3.960  24.575  0.00  0.00    +0.000 C 
ATOM     22  C   UNL     1      -1.427   3.872  24.761  0.00  0.00    +0.000 C 
ENDBRANCH  16  17
ENDBRANCH  15  16
ENDBRANCH  14  15
ENDBRANCH  11  12
BRANCH   4   3
ATOM      3  C   UNL     1      -5.253   3.310  25.409  0.00  0.00    +0.227 C 
BRANCH   3   2
ATOM      1  C   UNL     1      -6.192   4.386  25.355  0.00  0.00    +0.175 C 
ATOM      2  O   UNL     1      -5.797   3.803  25.785  0.00  0.00    -0.342 OA
ENDBRANCH   3   2
ENDBRANCH   4   3
TORSDOF 9
ENDMDL
MODEL 2
REMARK VINA RESULT:      -9.1      2.204      3.688
REMARK  Name = 
REMARK  9 active torsions:
REMARK  status: ('A' for Active; 'I' for Inactive)
REMARK    1  A    between atoms: O_2  and  C_3
REMARK    2  A    between atoms: C_3  and  C_4
REMARK    3  A    between atoms: C_11  and  C_12
REMARK    4  A    between atoms: N_14  and  C_15
REMARK    5  A    between atoms: C_15  and  C_16
REMARK    6  A    between atoms: C_15  and  C_23
REMARK    7  A    between atoms: C_16  and  C_17
REMARK    8  A    between atoms: C_26  and  C_28
REMARK    9  A    between atoms: C_31  and  N_34
REMARK                            x       y       z     vdW  Elec       q    Type
REMARK                         _______ _______ _______ _____ _____    ______ ____
ROOT
ATOM      4  C   UNL     1       0.326   0.473  23.708  0.00  0.00    +0.256 C 
ATOM      5  O   UNL     1       0.662  -0.029  23.147  0.00  0.00    -0.272 OA
ATOM      6  N   UNL     1      -0.416   0.299  24.026  0.00  0.00    -0.268 N 
ATOM      7  C   UNL     1      -0.820  -0.377  23.782  0.00  0.00    +0.115 C 
ATOM      8  C   UNL     1      -1.563  -0.551  24.099  0.00  0.00    +0.115 C 
ATOM      9  N   UNL     1      -1.899  -0.049  24.660  0.00  0.00    -0.272 N 
ATOM     10  C   UNL     1      -1.494   0.628  24.905  0.00  0.00    +0.123 C 
ATOM     11  C   UNL     1      -0.752   0.802  24.587  0.00  0.00    +0.174 C 
ATOM     26  C   UNL     1      -2.640  -0.223  24.978  0.00  0.00    +0.249 C 
ATOM     27  O   UNL     1      -2.977   0.280  25.539  0.00  0.00    -0.270 OA
ENDROOT
BRANCH  26  28
ATOM     28  C   UNL     1      -3.045  -0.899  24.734  0.00  0.00    +0.054 A 
ATOM     29  C   UNL     1      -3.607  -0.847  24.131  0.00  0.00    +0.006 A 
ATOM     30  C   UNL     1      -4.012  -1.523  23.887  0.00  0.00    +0.015 A 
ATOM     31  C   UNL     1      -3.857  -2.249  24.246  0.00  0.00    +0.048 A 
ATOM     32  C   UNL     1      -3.296  -2.300  24.848  0.00  0.00    +0.015 A 
ATOM     33  C   UNL     1      -2.890  -1.624  25.092  0.00  0.00    +0.006 A 
BRANCH  31  34
ATOM     34  N   UNL     1      -4.263  -2.925  24.002  0.00  0.00    -0.304 N 
ATOM     35  C   UNL     1      -4.000  -3.671  24.237  0.00  0.00    +0.112 C 
ATOM     36  C   UNL     1      -4.931  -2.855  23.523  0.00  0.00    +0.112 C 
ENDBRANCH  31  34
ENDBRANCH  26  28
BRANCH  11  12
ATOM     12  C   UNL     1      -0.348   1.477  24.831  0.00  0.00    +0.262 C 
ATOM     13  O   UNL     1       0.409   1.632  24.542  0.00  0.00    -0.271 OA
ATOM     14  N   UNL     1      -0.700   1.999  25.365  0.00  0.00    -0.196 NA
BRANCH  14  15
ATOM     15  C   UNL     1      -0.295   2.674  25.609  0.00  0.00    +0.174 C 
BRANCH  15  23
ATOM     23  C   UNL     1       0.122   2.672  26.321  0.00  0.00    +0.281 C 
ATOM     24  N   UNL     1      -0.231   2.373  27.004  0.00  0.00    -0.086 NA
ATOM     25  O   UNL     1       0.891   2.969  26.351  0.00  0.00    -0.270 OA
ENDBRANCH  15  23
BRANCH  15  16
ATOM     16  C   UNL     1      -0.307   3.354  25.140  0.00  0.00    +0.031 C 
BRANCH  16  17
ATOM     17  C   UNL     1      -0.918   3.903  25.226  0.00  0.00    +0.002 C 
ATOM     18  C   UNL     1      -0.805   4.685  24.987  0.00  0.00    +0.000 C 
ATOM     19  C   UNL     1      -1.415   5.234  25.072  0.00  0.00    +0.000 C 
ATOM     20  C   UNL     1      -2.137   5.002  25.396  0.00  0.00    +0.000 C 
ATOM     21  C   UNL     1      -2.250   4.220  25.635  0.00  0.00    +0.000 C 
ATOM     22  C   UNL     1      -1.640   3.671  25.550  0.00  0.00    +0.000 C 
ENDBRANCH  16  17
ENDBRANCH  15  16
ENDBRANCH  14  15
ENDBRANCH  11  12
BRANCH   4   3
ATOM      3  C   UNL     1       0.730   1.149  23.953  0.00  0.00    +0.227 C 
BRANCH   3   2
ATOM      1  C   UNL     1       2.088   1.153  23.508  0.00  0.00    +0.175 C 
ATOM      2  O   UNL     1       1.326   1.467  23.479  0.00  0.00    -0.342 OA
ENDBRANCH   3   2
ENDBRANCH   4   3
TORSDOF 9
ENDMDL
MODEL 3
REMARK VINA RESULT:      -8.2      3.370      5.419
REMARK  Name = 
REMARK  9 active torsions:
REMARK  status: ('A' for Active; 'I' for Inactive)
REMARK    1  A    between atoms: O_2  and  C_3
REMARK    2  A    between atoms: C_3  and  C_4
REMARK    3  A    between atoms: C_11  and  C_12
REMARK    4  A    between atoms: N_14  and  C_15
REMARK    5  A    between atoms: C_15  and  C_16
REMARK    6  A    between atoms: C_15  and  C_23
REMARK    7  A    between atoms: C_16  and  C_17
REMARK    8  A    between atoms: C_26  and  C_28
REMARK    9  A    between atoms: C_31  and  N_34
REMARK                            x       y       z     vdW  Elec       q    Type
REMARK                         _______ _______ _______ _____ _____    ______ ____
ROOT
ATOM      4  C   UNL     1      -0.907   2.487  25.112  0.00  0.00    +0.256 C 
ATOM      5  O   UNL     1      -0.431   3.104  25.383  0.00  0.00    -0.272 OA
ATOM      6  N   UNL     1      -0.575   1.874  24.671  0.00  0.00    -0.268 N 
ATOM      7  C   UNL     1       0.231   1.879  24.500  0.00  0.00    +0.115 C 
ATOM      8  C   UNL     1       0.563   1.265  24.058  0.00  0.00    +0.115 C 
ATOM      9  N   UNL     1       0.088   0.649  23.787  0.00  0.00    -0.272 N 
ATOM     10  C   UNL     1      -0.720   0.644  23.957  0.00  0.00    +0.123 C 
ATOM     11  C   UNL     1      -1.051   1.257  24.400  0.00  0.00    +0.174 C 
ATOM     26  C   UNL     1       0.419   0.036  23.345  0.00  0.00    +0.249 C 
ATOM     27  O   UNL     1      -0.057  -0.582  23.074  0.00  0.00    -0.270 OA
ENDROOT
BRANCH  26  28
ATOM     28  C   UNL     1       1.226   0.039  23.175  0.00  0.00    +0.054 A 
ATOM     29  C   UNL     1       1.503   0.425  22.499  0.00  0.00    +0.006 A 
ATOM     30  C   UNL     1       2.310   0.429  22.328  0.00  0.00    +0.015 A 
ATOM     31  C   UNL     1       2.840   0.048  22.831  0.00  0.00    +0.048 A 
ATOM     32  C   UNL     1       2.564  -0.338  23.506  0.00  0.00    +0.015 A 
ATOM     33  C   UNL     1       1.756  -0.342  23.677  0.00  0.00    +0.006 A 
BRANCH  31  34
ATOM     34  N   UNL     1       3.647   0.052  22.660  0.00  0.00    -0.304 N 
ATOM     35  C   UNL     1       4.174  -0.353  23.149  0.00  0.00    +0.112 C 
ATOM     36  C   UNL     1       3.927   0.460  22.000  0.00  0.00    +0.112 C 
ENDBRANCH  31  34
ENDBRANCH  26  28
BRANCH  11  12
ATOM     12  C   UNL     1      -1.858   1.253  24.570  0.00  0.00    +0.262 C 
ATOM     13  O   UNL     1      -2.170   1.799  25.103  0.00  0.00    -0.271 OA
ATOM     14  N   UNL     1      -2.353   0.702  24.207  0.00  0.00    -0.196 NA
BRANCH  14  15
ATOM     15  C   UNL     1      -3.160   0.697  24.377  0.00  0.00    +0.174 C 
BRANCH  15  23
ATOM     23  C   UNL     1      -3.678   1.163  23.936  0.00  0.00    +0.281 C 
ATOM     24  N   UNL     1      -4.332   1.509  24.300  0.00  0.00    -0.086 NA
ATOM     25  O   UNL     1      -3.542   1.284  23.131  0.00  0.00    -0.270 OA
ENDBRANCH  15  23
BRANCH  15  16
ATOM     16  C   UNL     1      -3.449   0.226  24.990  0.00  0.00    +0.031 C 
BRANCH  16  17
ATOM     17  C   UNL     1      -3.543  -0.586  24.877  0.00  0.00    +0.002 C 
ATOM     18  C   UNL     1      -3.210  -1.118  25.413  0.00  0.00    +0.000 C 
ATOM     19  C   UNL     1      -3.304  -1.930  25.300  0.00  0.00    +0.000 C 
ATOM     20  C   UNL     1      -3.730  -2.210  24.652  0.00  0.00    +0.000 C 
ATOM     21  C   UNL     1      -4.063  -1.679  24.116  0.00  0.00    +0.000 C 
ATOM     22  C   UNL     1      -3.969  -0.866  24.229  0.00  0.00    +0.000 C 
ENDBRANCH  16  17
ENDBRANCH  15  16
ENDBRANCH  14  15
ENDBRANCH  11  12
BRANCH   4   3
ATOM      3  C   UNL     1      -1.714   2.482  25.283  0.00  0.00    +0.227 C 
BRANCH   3   2
ATOM      1  C   UNL     1      -2.260   3.720  25.743  0.00  0.00    +0.175 C 
ATOM      2  O   UNL     1      -2.009   2.949  25.895  0.00  0.00    -0.342 OA
ENDBRANCH   3   2
ENDBRANCH   4   3
TORSDOF 9
ENDMDL
MODEL 4
REMARK VINA RESULT:      -7.9      2.385      6.438
REMARK  Name = 
REMARK  9 active torsions:
REMARK  status: ('A' for Active; 'I' for Inactive)
REMARK    1  A    between atoms: O_2  and  C_3
REMARK    2  A    between atoms: C_3  and  C_4
REMARK    3  A    between atoms: C_11  and  C_12
REMARK    4  A    between atoms: N_14  and  C_15
REMARK    5  A    between atoms: C_15  and  C_16
REMARK    6  A    between atoms: C_15  and  C_23
REMARK    7  A    between atoms: C_16  and  C_17
REMARK    8  A    between atoms: C_26  and  C_28
REMARK    9  A    between atoms: C_31  and  N_34
REMARK                            x       y       z     vdW  Elec       q    Type
REMARK                         _______ _______ _______ _____ _____    ______ ____
ROOT
ATOM      4  C   UNL     1       0.518   0.529  23.523  0.00  0.00    +0.256 C 
ATOM      5  O   UNL     1       1.101   0.929  23.099  0.00  0.00    -0.272 OA
ATOM      6  N   UNL     1      -0.055   0.953  23.938  0.00  0.00    -0.268 N 
ATOM      7  C   UNL     1      -0.044   1.778  23.929  0.00  0.00    +0.115 C 
ATOM      8  C   UNL     1      -0.617   2.203  24.345  0.00  0.00    +0.115 C 
ATOM      9  N   UNL     1      -1.200   1.802  24.769  0.00  0.00    -0.272 N 
ATOM     10  C   UNL     1      -1.212   0.977  24.778  0.00  0.00    +0.123 C 
ATOM     11  C   UNL     1      -0.638   0.552  24.362  0.00  0.00    +0.174 C 
ATOM     26  C   UNL     1      -1.773   2.227  25.184  0.00  0.00    +0.249 C 
ATOM     27  O   UNL     1      -2.357   1.826  25.608  0.00  0.00    -0.270 OA
ENDROOT
BRANCH  26  28
ATOM     28  C   UNL     1      -1.763   3.052  25.175  0.00  0.00    +0.054 A 
ATOM     29  C   UNL     1      -1.247   3.462  25.672  0.00  0.00    +0.006 A 
ATOM     30  C   UNL     1      -1.236   4.287  25.664  0.00  0.00    +0.015 A 
ATOM     31  C   UNL     1      -1.740   4.701  25.160  0.00  0.00    +0.048 A 
ATOM     32  C   UNL     1      -2.256   4.291  24.664  0.00  0.00    +0.015 A 
ATOM     33  C   UNL     1      -2.266   3.466  24.672  0.00  0.00    +0.006 A 
BRANCH  31  34
ATOM     34  N   UNL     1      -1.729   5.527  25.152  0.00  0.00    -0.304 N 
ATOM     35  C   UNL     1      -1.068   5.927  24.865  0.00  0.00    +0.112 C 
ATOM     36  C   UNL     1      -2.379   5.951  25.432  0.00  0.00    +0.112 C 
ENDBRANCH  31  34
ENDBRANCH  26  28
BRANCH  11  12
ATOM     12  C   UNL     1      -0.650  -0.272  24.371  0.00  0.00    +0.262 C 
ATOM     13  O   UNL     1      -0.056  -0.697  23.987  0.00  0.00    -0.271 OA
ATOM     14  N   UNL     1      -1.255  -0.672  24.763  0.00  0.00    -0.196 NA
BRANCH  14  15
ATOM     15  C   UNL     1      -1.266  -1.496  24.772  0.00  0.00    +0.174 C 
BRANCH  15  23
ATOM     23  C   UNL     1      -0.871  -1.909  25.368  0.00  0.00    +0.281 C 
ATOM     24  N   UNL     1      -0.454  -2.597  25.185  0.00  0.00    -0.086 NA
ATOM     25  O   UNL     1      -0.891  -1.633  26.145  0.00  0.00    -0.270 OA
ENDBRANCH  15  23
BRANCH  15  16
ATOM     16  C   UNL     1      -1.673  -1.909  24.185  0.00  0.00    +0.031 C 
BRANCH  16  17
ATOM     17  C   UNL     1      -2.485  -2.038  24.259  0.00  0.00    +0.002 C 
ATOM     18  C   UNL     1      -2.764  -2.761  24.544  0.00  0.00    +0.000 C 
ATOM     19  C   UNL     1      -3.576  -2.889  24.617  0.00  0.00    +0.000 C 
ATOM     20  C   UNL     1      -4.108  -2.296  24.405  0.00  0.00    +0.000 C 
ATOM     21  C   UNL     1      -3.830  -1.574  24.120  0.00  0.00    +0.000 C 
ATOM     22  C   UNL     1      -3.018  -1.445  24.047  0.00  0.00    +0.000 C 
ENDBRANCH  16  17
ENDBRANCH  15  16
ENDBRANCH  14  15
ENDBRANCH  11  12
BRANCH   4   3
ATOM      3  C   UNL     1       0.506  -0.296  23.532  0.00  0.00    +0.227 C 
BRANCH   3   2
ATOM      1  C   UNL     1       1.300  -0.693  22.412  0.00  0.00    +0.175 C 
ATOM      2  O   UNL     1       1.142  -0.721  23.221  0.00  0.00    -0.342 OA
ENDBRANCH   3   2
ENDBRANCH   4   3
TORSDOF 9
ENDMDL
MODEL 5
REMARK VINA RESULT:      -7.6      2.035      5.766
REMARK  Name = 
REMARK  9 active torsions:
REMARK  status: ('A' for Active; 'I' for Inactive)
REMARK    1  A    between atoms: O_2  and  C_3
REMARK    2  A    between atoms: C_3  and  C_4
REMARK    3  A    between atoms: C_11  and  C_12
REMARK    4  A    between atoms: N_14  and  C_15
REMARK    5  A    between atoms: C_15  and  C_16
REMARK    6  A    between atoms: C_15  and  C_23
REMARK    7  A    between atoms: C_16  and  C_17
REMARK    8  A    between atoms: C_26  and  C_28
REMARK    9  A    between atoms: C_31  and  N_34
REMARK                            x       y       z     vdW  Elec       q    Type
REMARK                         _______ _______ _______ _____ _____    ______ ____
ROOT
ATOM      4  C   UNL     1      -0.878   1.412  23.942  0.00  0.00    +0.256 C 
ATOM      5  O   UNL     1      -0.519   2.098  23.660  0.00  0.00    -0.272 OA
ATOM      6  N   UNL     1      -1.640   1.445  24.258  0.00  0.00    -0.268 N 
ATOM      7  C   UNL     1      -2.041   2.164  24.290  0.00  0.00    +0.115 C 
ATOM      8  C   UNL     1      -2.804   2.198  24.606  0.00  0.00    +0.115 C 
ATOM      9  N   UNL     1      -3.163   1.512  24.888  0.00  0.00    -0.272 N 
ATOM     10  C   UNL     1      -2.762   0.791  24.856  0.00  0.00    +0.123 C 
ATOM     11  C   UNL     1      -1.999   0.758  24.540  0.00  0.00    +0.174 C 
ATOM     26  C   UNL     1      -3.925   1.545  25.203  0.00  0.00    +0.249 C 
ATOM     27  O   UNL     1      -4.285   0.858  25.486  0.00  0.00    -0.270 OA
ENDROOT
BRANCH  26  28
ATOM     28  C   UNL     1      -4.327   2.264  25.236  0.00  0.00    +0.054 A 
ATOM     29  C   UNL     1      -4.875   2.458  24.649  0.00  0.00    +0.006 A 
ATOM     30  C   UNL     1      -5.277   3.177  24.682  0.00  0.00    +0.015 A 
ATOM     31  C   UNL     1      -5.133   3.702  25.300  0.00  0.00    +0.048 A 
ATOM     32  C   UNL     1      -4.586   3.510  25.887  0.00  0.00    +0.015 A 
ATOM     33  C   UNL     1      -4.183   2.790  25.854  0.00  0.00    +0.006 A 
BRANCH  31  34
ATOM     34  N   UNL     1      -5.535   4.422  25.333  0.00  0.00    -0.304 N 
ATOM     35  C   UNL     1      -5.202   5.096  24.994  0.00  0.00    +0.112 C 
ATOM     36  C   UNL     1      -6.271   4.467  25.704  0.00  0.00    +0.112 C 
ENDBRANCH  31  34
ENDBRANCH  26  28
BRANCH  11  12
ATOM     12  C   UNL     1      -1.598   0.039  24.508  0.00  0.00    +0.262 C 
ATOM     13  O   UNL     1      -0.925  -0.037  24.038  0.00  0.00    -0.271 OA
ATOM     14  N   UNL     1      -1.870  -0.606  24.945  0.00  0.00    -0.196 NA
BRANCH  14  15
ATOM     15  C   UNL     1      -1.469  -1.325  24.913  0.00  0.00    +0.174 C 
BRANCH  15  23
ATOM     23  C   UNL     1      -0.855  -1.480  25.442  0.00  0.00    +0.281 C 
ATOM     24  N   UNL     1      -0.207  -1.930  25.201  0.00  0.00    -0.086 NA
ATOM     25  O   UNL     1      -0.888  -1.185  26.212  0.00  0.00    -0.270 OA
ENDBRANCH  15  23
BRANCH  15  16
ATOM     16  C   UNL     1      -1.681  -1.890  24.351  0.00  0.00    +0.031 C 
BRANCH  16  17
ATOM     17  C   UNL     1      -2.415  -2.266  24.399  0.00  0.00    +0.002 C 
ATOM     18  C   UNL     1      -2.571  -2.788  25.020  0.00  0.00    +0.000 C 
ATOM     19  C   UNL     1      -3.304  -3.163  25.068  0.00  0.00    +0.000 C 
ATOM     20  C   UNL     1      -3.881  -3.017  24.497  0.00  0.00    +0.000 C 
ATOM     21  C   UNL     1      -3.726  -2.495  23.877  0.00  0.00    +0.000 C 
ATOM     22  C   UNL     1      -2.992  -2.120  23.828  0.00  0.00    +0.000 C 
ENDBRANCH  16  17
ENDBRANCH  15  16
ENDBRANCH  14  15
ENDBRANCH  11  12
BRANCH   4   3
ATOM      3  C   UNL     1      -0.477   0.691  23.910  0.00  0.00    +0.227 C 
BRANCH   3   2
ATOM      1  C   UNL     1       0.901   0.725  23.533  0.00  0.00    +0.175 C 
ATOM      2  O   UNL     1       0.113   0.573  23.345  0.00  0.00    -0.342 OA
ENDBRANCH   3   2
ENDBRANCH   4   3
TORSDOF 9
ENDMDL
MODEL 6
REMARK VINA RESULT:      -7.4      2.001      3.697
REMARK  Name = 
REMARK  9 active torsions:
REMARK  status: ('A' for Active; 'I' for Inactive)
REMARK    1  A    between atoms: O_2  and  C_3
REMARK    2  A    between atoms: C_3  and  C_4
REMARK    3  A    between atoms: C_11  and  C_12
REMARK    4  A    between atoms: N_14  and  C_15
REMARK    5  A    between atoms: C_15  and  C_16
REMARK    6  A    between atoms: C_15  and  C_23
REMARK    7  A    between atoms: C_16  and  C_17
REMARK    8  A    between atoms: C_26  and  C_28
REMARK    9  A    between atoms: C_31  and  N_34
REMARK                            x       y       z     vdW  Elec       q    Type
REMARK                         _______ _______ _______ _____ _____    ______ ____
ROOT
ATOM      4  C   UNL     1      -1.241   3.247  25.384  0.00  0.00    +0.256 C 
ATOM      5  O   UNL     1      -0.477   3.424  25.639  0.00  0.00    -0.272 OA
ATOM      6  N   UNL     1      -1.460   2.463  25.248  0.00  0.00    -0.268 N 
ATOM      7  C   UNL     1      -0.914   1.857  25.367  0.00  0.00    +0.115 C 
ATOM      8  C   UNL     1      -1.133   1.072  25.232  0.00  0.00    +0.115 C 
ATOM      9  N   UNL     1      -1.897   0.896  24.976  0.00  0.00    -0.272 N 
ATOM     10  C   UNL     1      -2.443   1.502  24.857  0.00  0.00    +0.123 C 
ATOM     11  C   UNL     1      -2.224   2.287  24.993  0.00  0.00    +0.174 C 
ATOM     26  C   UNL     1      -2.115   0.112  24.841  0.00  0.00    +0.249 C 
ATOM     27  O   UNL     1      -2.880  -0.065  24.585  0.00  0.00    -0.270 OA
ENDROOT
BRANCH  26  28
ATOM     28  C   UNL     1      -1.570  -0.496  24.960  0.00  0.00    +0.054 A 
ATOM     29  C   UNL     1      -1.116  -0.772  24.328  0.00  0.00    +0.006 A 
ATOM     30  C   UNL     1      -0.571  -1.379  24.448  0.00  0.00    +0.015 A 
ATOM     31  C   UNL     1      -0.479  -1.710  25.197  0.00  0.00    +0.048 A 
ATOM     32  C   UNL     1      -0.933  -1.435  25.828  0.00  0.00    +0.015 A 
ATOM     33  C   UNL     1      -1.479  -0.827  25.709  0.00  0.00    +0.006 A 
BRANCH  31  34
ATOM     34  N   UNL     1       0.066  -2.318  25.316  0.00  0.00    -0.304 N 
ATOM     35  C   UNL     1      -0.197  -3.090  25.438  0.00  0.00    +0.112 C 
ATOM     36  C   UNL     1       0.875  -2.153  25.312  0.00  0.00    +0.112 C 
ENDBRANCH  31  34
ENDBRANCH  26  28
BRANCH  11  12
ATOM     12  C   UNL     1      -2.770   2.893  24.873  0.00  0.00    +0.262 C 
ATOM     13  O   UNL     1      -2.573   3.670  25.070  0.00  0.00    -0.271 OA
ATOM     14  N   UNL     1      -3.512   2.724  24.557  0.00  0.00    -0.196 NA
BRANCH  14  15
ATOM     15  C   UNL     1      -4.058   3.330  24.437  0.00  0.00    +0.174 C 
BRANCH  15  23
ATOM     23  C   UNL     1      -4.073   3.737  23.719  0.00  0.00    +0.281 C 
ATOM     24  N   UNL     1      -3.957   3.329  23.012  0.00  0.00    -0.086 NA
ATOM     25  O   UNL     1      -4.203   4.552  23.708  0.00  0.00    -0.270 OA
ENDBRANCH  15  23
BRANCH  15  16
ATOM     16  C   UNL     1      -4.590   3.530  25.035  0.00  0.00    +0.031 C 
BRANCH  16  17
ATOM     17  C   UNL     1      -5.176   2.995  25.263  0.00  0.00    +0.002 C 
ATOM     18  C   UNL     1      -5.393   2.934  26.057  0.00  0.00    +0.000 C 
ATOM     19  C   UNL     1      -5.978   2.400  26.284  0.00  0.00    +0.000 C 
ATOM     20  C   UNL     1      -6.347   1.926  25.718  0.00  0.00    +0.000 C 
ATOM     21  C   UNL     1      -6.131   1.987  24.925  0.00  0.00    +0.000 C 
ATOM     22  C   UNL     1      -5.545   2.522  24.697  0.00  0.00    +0.000 C 
ENDBRANCH  16  17
ENDBRANCH  15  16
ENDBRANCH  14  15
ENDBRANCH  11  12
BRANCH   4   3
ATOM      3  C   UNL     1      -1.787   3.854  25.264  0.00  0.00    +0.227 C 
BRANCH   3   2
ATOM      1  C   UNL     1      -1.291   5.186  25.116  0.00  0.00    +0.175 C 
ATOM      2  O   UNL     1      -1.647   4.603  25.579  0.00  0.00    -0.342 OA
ENDBRANCH   3   2
ENDBRANCH   4   3
TORSDOF 9
ENDMDL
MODEL 7
REMARK VINA RESULT:      -7.3      3.101      4.761
REMARK  Name = 
REMARK  9 active torsions:
REMARK  status: ('A' for Active; 'I' for Inactive)
REMARK    1  A    between atoms: O_2  and  C_3
REMARK    2  A    between atoms: C_3  and  C_4
REMARK    3  A    between atoms: C_11  and  C_12
REMARK    4  A    between atoms: N_14  and  C_15
REMARK    5  A    between atoms: C_15  and  C_16
REMARK    6  A    between atoms: C_15  and  C_23
REMARK    7  A    between atoms: C_16  and  C_17
REMARK    8  A    between atoms: C_26  and  C_28
REMARK    9  A    between atoms: C_31  and  N_34
REMARK                            x       y       z     vdW  Elec       q    Type
REMARK                         _______ _______ _______ _____ _____    ______ ____
ROOT
ATOM      4  C   UNL     1      -1.790  -0.916  25.215  0.00  0.00    +0.256 C 
ATOM      5  O   UNL     1      -1.534  -1.663  25.451  0.00  0.00    -0.272 OA
ATOM      6  N   UNL     1      -1.290  -0.428  24.776  0.00  0.00    -0.268 N 
ATOM      7  C   UNL     1      -0.534  -0.687  24.574  0.00  0.00    +0.115 C 
ATOM      8  C   UNL     1      -0.034  -0.199  24.135  0.00  0.00    +0.115 C 
ATOM      9  N   UNL     1      -0.290   0.548  23.898  0.00  0.00    -0.272 N 
ATOM     10  C   UNL     1      -1.047   0.808  24.100  0.00  0.00    +0.123 C 
ATOM     11  C   UNL     1      -1.548   0.320  24.539  0.00  0.00    +0.174 C 
ATOM     26  C   UNL     1       0.210   1.036  23.459  0.00  0.00    +0.249 C 
ATOM     27  O   UNL     1      -0.047   1.784  23.222  0.00  0.00    -0.270 OA
ENDROOT
BRANCH  26  28
ATOM     28  C   UNL     1       0.966   0.777  23.257  0.00  0.00    +0.054 A 
ATOM     29  C   UNL     1       1.627   1.105  23.629  0.00  0.00    +0.006 A 
ATOM     30  C   UNL     1       2.384   0.846  23.426  0.00  0.00    +0.015 A 
ATOM     31  C   UNL     1       2.480   0.261  22.854  0.00  0.00    +0.048 A 
ATOM     32  C   UNL     1       1.821  -0.067  22.483  0.00  0.00    +0.015 A 
ATOM     33  C   UNL     1       1.063   0.192  22.685  0.00  0.00    +0.006 A 
BRANCH  31  34
ATOM     34  N   UNL     1       3.238   0.002  22.652  0.00  0.00    -0.304 N 
ATOM     35  C   UNL     1       3.571  -0.644  23.044  0.00  0.00    +0.112 C 
ATOM     36  C   UNL     1       3.662   0.389  22.060  0.00  0.00    +0.112 C 
ENDBRANCH  31  34
ENDBRANCH  26  28
BRANCH  11  12
ATOM     12  C   UNL     1      -2.304   0.579  24.741  0.00  0.00    +0.262 C 
ATOM     13  O   UNL     1      -2.790   0.108  25.211  0.00  0.00    -0.271 OA
ATOM     14  N   UNL     1      -2.574   1.311  24.472  0.00  0.00    -0.196 NA
BRANCH  14  15
ATOM     15  C   UNL     1      -3.330   1.570  24.674  0.00  0.00    +0.174 C 
BRANCH  15  23
ATOM     23  C   UNL     1      -3.976   1.367  24.203  0.00  0.00    +0.281 C 
ATOM     24  N   UNL     1      -4.705   1.204  24.553  0.00  0.00    -0.086 NA
ATOM     25  O   UNL     1      -3.894   1.325  23.383  0.00  0.00    -0.270 OA
ENDBRANCH  15  23
BRANCH  15  16
ATOM     16  C   UNL     1      -3.440   2.035  25.347  0.00  0.00    +0.031 C 
BRANCH  16  17
ATOM     17  C   UNL     1      -3.215   2.829  25.343  0.00  0.00    +0.002 C 
ATOM     18  C   UNL     1      -3.621   3.370  24.869  0.00  0.00    +0.000 C 
ATOM     19  C   UNL     1      -3.395   4.164  24.866  0.00  0.00    +0.000 C 
ATOM     20  C   UNL     1      -2.765   4.416  25.334  0.00  0.00    +0.000 C 
ATOM     21  C   UNL     1      -2.359   3.876  25.807  0.00  0.00    +0.000 C 
ATOM     22  C   UNL     1      -2.584   3.081  25.811  0.00  0.00    +0.000 C 
ENDBRANCH  16  17
ENDBRANCH  15  16
ENDBRANCH  14  15
ENDBRANCH  11  12
BRANCH   4   3
ATOM      3  C   UNL     1      -2.547  -0.656  25.416  0.00  0.00    +0.227 C 
BRANCH   3   2
ATOM      1  C   UNL     1      -3.475  -1.682  25.775  0.00  0.00    +0.175 C 
ATOM      2  O   UNL     1      -2.981  -1.057  25.991  0.00  0.00    -0.342 OA
ENDBRANCH   3   2
ENDBRANCH   4   3
TORSDOF 9
ENDMDL
