MODEL 1
REMARK VINA RESULT:     -13.0      0.000      0.000
REMARK  Name = 
REMARK  5 active torsions:
REMARK  status: ('A' for Active; 'I' for Inactive)
REMARK    1  A    between atoms: N_4  and  C_5
REMARK    2  A    between atoms: C_8  and  C_9
REMARK    3  A    between atoms: C_9  and  N_10
REMARK    4  A    between atoms: C_15  and  C_16
REMARK    5  A    between atoms: C_18  and  C_21
REMARK                            x       y       z     vdW  Elec       q    Type
REMARK                         _______ _______ _______ _____ _____    ______ ____
ROOT
ATOM     10  N   UNL     1      -4.629   1.581  25.005  0.00  0.00    -0.260 NA
ATOM     11  C   UNL     1      -5.289   1.253  25.376  0.00  0.00    +0.106 C 
ATOM     12  C   UNL     1      -5.725   1.870  25.709  0.00  0.00    +0.170 C 
ATOM     13  O   UNL     1      -6.428   1.792  26.133  0.00  0.00    -0.222 OA
ATOM     14  C   UNL     1      -5.334   2.577  25.544  0.00  0.00    +0.060 C 
ATOM     15  C   UNL     1      -4.656   2.398  25.108  0.00  0.00    +0.140 C 
ENDROOT
BRANCH  15  16
ATOM     16  C   UNL     1      -4.103   2.941  24.826  0.00  0.00    +0.251 A 
ATOM     17  N   UNL     1      -3.396   3.151  25.197  0.00  0.00    -0.190 NA
ATOM     18  C   UNL     1      -3.016   3.709  24.724  0.00  0.00    +0.203 A 
ATOM     19  N   UNL     1      -3.488   3.844  24.061  0.00  0.00    -0.056 NA
ATOM     20  O   UNL     1      -4.158   3.370  24.124  0.00  0.00    -0.336 OA
BRANCH  18  21
ATOM     21  C   UNL     1      -2.292   4.069  24.886  0.00  0.00    +0.039 A 
ATOM     22  C   UNL     1      -2.258   4.881  25.031  0.00  0.00    +0.003 A 
ATOM     23  C   UNL     1      -1.533   5.241  25.193  0.00  0.00    -0.000 A 
ATOM     24  C   UNL     1      -0.843   4.790  25.209  0.00  0.00    -0.004 A 
ATOM     25  C   UNL     1      -0.877   3.978  25.064  0.00  0.00    -0.022 A 
ATOM     26  C   UNL     1      -0.186   3.527  25.081  0.00  0.00    +0.031 C 
ATOM     27  C   UNL     1      -1.601   3.618  24.903  0.00  0.00    -0.001 A 
ENDBRANCH  18  21
ENDBRANCH  15  16
BRANCH  10   9
ATOM      9  C   UNL     1      -4.043   1.163  24.601  0.00  0.00    +0.100 C 
BRANCH   9   8
ATOM      5  C   UNL     1      -3.925  -1.303  24.795  0.00  0.00    +0.073 A 
ATOM      6  C   UNL     1      -3.585  -0.826  25.377  0.00  0.00    +0.016 A 
ATOM      7  C   UNL     1      -3.624  -0.005  25.313  0.00  0.00    -0.002 A 
ATOM      8  C   UNL     1      -4.004   0.340  24.666  0.00  0.00    -0.006 A 
ATOM     28  C   UNL     1      -4.343  -0.136  24.084  0.00  0.00    -0.002 A 
ATOM     29  C   UNL     1      -4.303  -0.958  24.150  0.00  0.00    +0.016 A 
BRANCH   5   4
ATOM      1  C   UNL     1      -3.192  -3.352  24.626  0.00  0.00    +0.097 C 
ATOM      2  C   UNL     1      -3.232  -2.530  24.560  0.00  0.00    +0.246 C 
ATOM      3  O   UNL     1      -2.620  -2.115  24.196  0.00  0.00    -0.273 OA
ATOM      4  N   UNL     1      -3.885  -2.124  24.860  0.00  0.00    -0.179 NA
ENDBRANCH   5   4
ENDBRANCH   9   8
ENDBRANCH  10   9
TORSDOF 5
ENDMDL
MODEL 2
REMARK VINA RESULT:     -12.3      2.342      3.364
REMARK  Name = 
REMARK  5 active torsions:
REMARK  status: ('A' for Active; 'I' for Inactive)
REMARK    1  A    between atoms: N_4  and  C_5
REMARK    2  A    between atoms: C_8  and  C_9
REMARK    3  A    between atoms: C_9  and  N_10
REMARK    4  A    between atoms: C_15  and  C_16
REMARK    5  A    between atoms: C_18  and  C_21
REMARK                            x       y       z     vdW  Elec       q    Type
REMARK                         _______ _______ _______ _____ _____    ______ ____
ROOT
ATOM     10  N   UNL     1      -0.597   0.445  24.678  0.00  0.00    -0.260 NA
ATOM     11  C   UNL     1      -0.353  -0.140  24.151  0.00  0.00    +0.106 C 
ATOM     12  C   UNL     1       0.224   0.186  23.659  0.00  0.00    +0.170 C 
ATOM     13  O   UNL     1       0.619  -0.205  23.050  0.00  0.00    -0.222 OA
ATOM     14  C   UNL     1       0.335   0.973  23.882  0.00  0.00    +0.060 C 
ATOM     15  C   UNL     1      -0.173   1.133  24.513  0.00  0.00    +0.140 C 
ENDROOT
BRANCH  15  16
ATOM     16  C   UNL     1      -0.244   1.853  24.908  0.00  0.00    +0.251 A 
ATOM     17  N   UNL     1      -0.767   2.462  24.716  0.00  0.00    -0.190 NA
ATOM     18  C   UNL     1      -0.651   3.076  25.254  0.00  0.00    +0.203 A 
ATOM     19  N   UNL     1      -0.056   2.848  25.777  0.00  0.00    -0.056 NA
ATOM     20  O   UNL     1       0.195   2.092  25.564  0.00  0.00    -0.336 OA
BRANCH  18  21
ATOM     21  C   UNL     1      -1.058   3.794  25.266  0.00  0.00    +0.039 A 
ATOM     22  C   UNL     1      -0.709   4.471  24.948  0.00  0.00    +0.003 A 
ATOM     23  C   UNL     1      -1.117   5.189  24.960  0.00  0.00    -0.000 A 
ATOM     24  C   UNL     1      -1.872   5.229  25.289  0.00  0.00    -0.004 A 
ATOM     25  C   UNL     1      -2.221   4.552  25.606  0.00  0.00    -0.022 A 
ATOM     26  C   UNL     1      -2.976   4.593  25.935  0.00  0.00    +0.031 C 
ATOM     27  C   UNL     1      -1.814   3.835  25.595  0.00  0.00    -0.001 A 
ENDBRANCH  18  21
ENDBRANCH  15  16
BRANCH  10   9
ATOM      9  C   UNL     1      -1.167   0.358  25.268  0.00  0.00    +0.100 C 
BRANCH   9   8
ATOM      5  C   UNL     1      -2.911  -1.387  25.057  0.00  0.00    +0.073 A 
ATOM      6  C   UNL     1      -2.236  -1.530  25.511  0.00  0.00    +0.016 A 
ATOM      7  C   UNL     1      -1.655  -0.949  25.581  0.00  0.00    -0.002 A 
ATOM      8  C   UNL     1      -1.749  -0.224  25.198  0.00  0.00    -0.006 A 
ATOM     28  C   UNL     1      -2.423  -0.081  24.745  0.00  0.00    -0.002 A 
ATOM     29  C   UNL     1      -3.004  -0.663  24.675  0.00  0.00    +0.016 A 
BRANCH   5   4
ATOM      1  C   UNL     1      -3.971  -3.172  24.384  0.00  0.00    +0.097 C 
ATOM      2  C   UNL     1      -3.390  -2.590  24.453  0.00  0.00    +0.246 C 
ATOM      3  O   UNL     1      -2.709  -2.630  23.991  0.00  0.00    -0.273 OA
ATOM      4  N   UNL     1      -3.491  -1.968  24.987  0.00  0.00    -0.179 NA
ENDBRANCH   5   4
ENDBRANCH   9   8
ENDBRANCH  10   9
TORSDOF 5
ENDMDL
MODEL 3
REMARK VINA RESULT:     -11.9      2.431      6.128
REMARK  Name = 
REMARK  5 active torsions:
REMARK  status: ('A' for Active; 'I' for Inactive)
REMARK    1  A    between atoms: N_4  and  C_5
REMARK    2  A    between atoms: C_8  and  C_9
REMARK    3  A    between atoms: C_9  and  N_10
REMARK    4  A    between atoms: C_15  and  C_16
REMARK    5  A    between atoms: C_18  and  C_21
REMARK                            x       y       z     vdW  Elec       q    Type
REMARK                         _______ _______ _______ _____ _____    ______ ____
ROOT
ATOM     10  N   UNL     1      -0.375   0.733  24.724  0.00  0.00    -0.260 NA
ATOM     11  C   UNL     1       0.194   1.178  24.326  0.00  0.00    +0.106 C 
ATOM     12  C   UNL     1       0.553   0.690  23.766  0.00  0.00    +0.170 C 
ATOM     13  O   UNL     1       1.153   0.909  23.245  0.00  0.00    -0.222 OA
ATOM     14  C   UNL     1       0.205  -0.057  23.818  0.00  0.00    +0.060 C 
ATOM     15  C   UNL     1      -0.369  -0.029  24.411  0.00  0.00    +0.140 C 
ENDROOT
BRANCH  15  16
ATOM     16  C   UNL     1      -0.851  -0.655  24.648  0.00  0.00    +0.251 A 
ATOM     17  N   UNL     1      -1.574  -0.865  24.310  0.00  0.00    -0.190 NA
ATOM     18  C   UNL     1      -1.865  -1.520  24.718  0.00  0.00    +0.203 A 
ATOM     19  N   UNL     1      -1.323  -1.715  25.308  0.00  0.00    -0.056 NA
ATOM     20  O   UNL     1      -0.697  -1.181  25.265  0.00  0.00    -0.336 OA
BRANCH  18  21
ATOM     21  C   UNL     1      -2.575  -1.912  24.563  0.00  0.00    +0.039 A 
ATOM     22  C   UNL     1      -2.617  -2.733  24.638  0.00  0.00    +0.003 A 
ATOM     23  C   UNL     1      -3.327  -3.125  24.483  0.00  0.00    -0.000 A 
ATOM     24  C   UNL     1      -3.993  -2.696  24.253  0.00  0.00    -0.004 A 
ATOM     25  C   UNL     1      -3.950  -1.876  24.177  0.00  0.00    -0.022 A 
ATOM     26  C   UNL     1      -4.616  -1.447  23.947  0.00  0.00    +0.031 C 
ATOM     27  C   UNL     1      -3.241  -1.484  24.332  0.00  0.00    -0.001 A 
ENDBRANCH  18  21
ENDBRANCH  15  16
BRANCH  10   9
ATOM      9  C   UNL     1      -0.865   1.004  25.330  0.00  0.00    +0.100 C 
BRANCH   9   8
ATOM      5  C   UNL     1      -1.431   3.409  25.483  0.00  0.00    +0.073 A 
ATOM      6  C   UNL     1      -1.878   2.910  25.002  0.00  0.00    +0.016 A 
ATOM      7  C   UNL     1      -1.690   2.108  24.951  0.00  0.00    -0.002 A 
ATOM      8  C   UNL     1      -1.054   1.806  25.381  0.00  0.00    -0.006 A 
ATOM     28  C   UNL     1      -0.607   2.305  25.862  0.00  0.00    -0.002 A 
ATOM     29  C   UNL     1      -0.796   3.107  25.913  0.00  0.00    +0.016 A 
BRANCH   5   4
ATOM      1  C   UNL     1      -1.423   5.558  25.101  0.00  0.00    +0.097 C 
ATOM      2  C   UNL     1      -1.233   4.757  25.049  0.00  0.00    +0.246 C 
ATOM      3  O   UNL     1      -0.660   4.501  24.516  0.00  0.00    -0.273 OA
ATOM      4  N   UNL     1      -1.620   4.210  25.534  0.00  0.00    -0.179 NA
ENDBRANCH   5   4
ENDBRANCH   9   8
ENDBRANCH  10   9
TORSDOF 5
ENDMDL
MODEL 4
REMARK VINA RESULT:     -11.9      1.279      5.060
REMARK  Name = 
REMARK  5 active torsions:
REMARK  status: ('A' for Active; 'I' for Inactive)
REMARK    1  A    between atoms: N_4  and  C_5
REMARK    2  A    between atoms: C_8  and  C_9
REMARK    3  A    between atoms: C_9  and  N_10
REMARK    4  A    between atoms: C_15  and  C_16
REMARK    5  A    between atoms: C_18  and  C_21
REMARK                            x       y       z     vdW  Elec       q    Type
REMARK                         _______ _______ _______ _____ _____    ______ ____
ROOT
ATOM     10  N   UNL     1      -4.363   1.770  24.925  0.00  0.00    -0.260 NA
ATOM     11  C   UNL     1      -4.816   2.311  25.352  0.00  0.00    +0.106 C 
ATOM     12  C   UNL     1      -5.467   1.910  25.661  0.00  0.00    +0.170 C 
ATOM     13  O   UNL     1      -6.065   2.239  26.124  0.00  0.00    -0.222 OA
ATOM     14  C   UNL     1      -5.416   1.121  25.424  0.00  0.00    +0.060 C 
ATOM     15  C   UNL     1      -4.733   1.035  24.969  0.00  0.00    +0.140 C 
ENDROOT
BRANCH  15  16
ATOM     16  C   UNL     1      -4.467   0.337  24.620  0.00  0.00    +0.251 A 
ATOM     17  N   UNL     1      -4.003  -0.241  24.983  0.00  0.00    -0.190 NA
ATOM     18  C   UNL     1      -3.868  -0.841  24.435  0.00  0.00    +0.203 A 
ATOM     19  N   UNL     1      -4.249  -0.636  23.733  0.00  0.00    -0.056 NA
ATOM     20  O   UNL     1      -4.619   0.092  23.848  0.00  0.00    -0.336 OA
BRANCH  18  21
ATOM     21  C   UNL     1      -3.429  -1.528  24.565  0.00  0.00    +0.039 A 
ATOM     22  C   UNL     1      -3.813  -2.251  24.658  0.00  0.00    +0.003 A 
ATOM     23  C   UNL     1      -3.374  -2.938  24.789  0.00  0.00    -0.000 A 
ATOM     24  C   UNL     1      -2.551  -2.900  24.826  0.00  0.00    -0.004 A 
ATOM     25  C   UNL     1      -2.166  -2.176  24.733  0.00  0.00    -0.022 A 
ATOM     26  C   UNL     1      -1.343  -2.138  24.770  0.00  0.00    +0.031 C 
ATOM     27  C   UNL     1      -2.605  -1.490  24.602  0.00  0.00    -0.001 A 
ENDBRANCH  18  21
ENDBRANCH  15  16
BRANCH  10   9
ATOM      9  C   UNL     1      -3.661   1.936  24.524  0.00  0.00    +0.100 C 
BRANCH   9   8
ATOM      5  C   UNL     1      -2.408   4.012  25.026  0.00  0.00    +0.073 A 
ATOM      6  C   UNL     1      -2.971   4.005  24.423  0.00  0.00    +0.016 A 
ATOM      7  C   UNL     1      -3.389   3.314  24.255  0.00  0.00    -0.002 A 
ATOM      8  C   UNL     1      -3.243   2.628  24.691  0.00  0.00    -0.006 A 
ATOM     28  C   UNL     1      -2.680   2.635  25.294  0.00  0.00    -0.002 A 
ATOM     29  C   UNL     1      -2.263   3.327  25.461  0.00  0.00    +0.016 A 
BRANCH   5   4
ATOM      1  C   UNL     1      -0.802   5.488  25.083  0.00  0.00    +0.097 C 
ATOM      2  C   UNL     1      -1.219   4.796  24.916  0.00  0.00    +0.246 C 
ATOM      3  O   UNL     1      -0.865   4.198  24.472  0.00  0.00    -0.273 OA
ATOM      4  N   UNL     1      -1.991   4.703  25.193  0.00  0.00    -0.179 NA
ENDBRANCH   5   4
ENDBRANCH   9   8
ENDBRANCH  10   9
TORSDOF 5
ENDMDL
MODEL 5
REMARK VINA RESULT:     -10.6      1.992      3.531
REMARK  Name = 
REMARK  5 active torsions:
REMARK  status: ('A' for Active; 'I' for Inactive)
REMARK    1  A    between atoms: N_4  and  C_5
REMARK    2  A    between atoms: C_8  and  C_9
REMARK    3  A    between atoms: C_9  and  N_10
REMARK    4  A    between atoms: C_15  and  C_16
REMARK    5  A    between atoms: C_18  and  C_21
REMARK                            x       y       z     vdW  Elec       q    Type
REMARK                         _______ _______ _______ _____ _____    ______ ____
ROOT
ATOM     10  N   UNL     1      -0.972   2.007  25.135  0.00  0.00    -0.260 NA
ATOM     11  C   UNL     1      -0.243   1.905  25.508  0.00  0.00    +0.106 C 
ATOM     12  C   UNL     1      -0.122   2.550  26.009  0.00  0.00    +0.170 C 
ATOM     13  O   UNL     1       0.537   2.673  26.489  0.00  0.00    -0.222 OA
ATOM     14  C   UNL     1      -0.775   3.050  25.944  0.00  0.00    +0.060 C 
ATOM     15  C   UNL     1      -1.301   2.713  25.404  0.00  0.00    +0.140 C 
ENDROOT
BRANCH  15  16
ATOM     16  C   UNL     1      -2.027   3.029  25.173  0.00  0.00    +0.251 A 
ATOM     17  N   UNL     1      -2.764   2.826  25.483  0.00  0.00    -0.190 NA
ATOM     18  C   UNL     1      -3.336   3.274  25.094  0.00  0.00    +0.203 A 
ATOM     19  N   UNL     1      -2.953   3.754  24.544  0.00  0.00    -0.056 NA
ATOM     20  O   UNL     1      -2.145   3.602  24.593  0.00  0.00    -0.336 OA
BRANCH  18  21
ATOM     21  C   UNL     1      -4.150   3.247  25.231  0.00  0.00    +0.039 A 
ATOM     22  C   UNL     1      -4.534   3.900  25.558  0.00  0.00    +0.003 A 
ATOM     23  C   UNL     1      -5.348   3.873  25.695  0.00  0.00    -0.000 A 
ATOM     24  C   UNL     1      -5.776   3.193  25.506  0.00  0.00    -0.004 A 
ATOM     25  C   UNL     1      -5.391   2.541  25.179  0.00  0.00    -0.022 A 
ATOM     26  C   UNL     1      -5.819   1.861  24.989  0.00  0.00    +0.031 C 
ATOM     27  C   UNL     1      -4.578   2.568  25.042  0.00  0.00    -0.001 A 
ENDBRANCH  18  21
ENDBRANCH  15  16
BRANCH  10   9
ATOM      9  C   UNL     1      -1.312   1.492  24.588  0.00  0.00    +0.100 C 
BRANCH   9   8
ATOM      5  C   UNL     1      -1.046  -0.955  24.861  0.00  0.00    +0.073 A 
ATOM      6  C   UNL     1      -0.589  -0.549  24.307  0.00  0.00    +0.016 A 
ATOM      7  C   UNL     1      -0.677   0.266  24.216  0.00  0.00    -0.002 A 
ATOM      8  C   UNL     1      -1.223   0.676  24.679  0.00  0.00    -0.006 A 
ATOM     28  C   UNL     1      -1.681   0.270  25.233  0.00  0.00    -0.002 A 
ATOM     29  C   UNL     1      -1.592  -0.545  25.323  0.00  0.00    +0.016 A 
BRANCH   5   4
ATOM      1  C   UNL     1      -1.431  -3.099  24.724  0.00  0.00    +0.097 C 
ATOM      2  C   UNL     1      -1.520  -2.284  24.633  0.00  0.00    +0.246 C 
ATOM      3  O   UNL     1      -2.170  -1.982  24.225  0.00  0.00    -0.273 OA
ATOM      4  N   UNL     1      -0.958  -1.769  24.951  0.00  0.00    -0.179 NA
ENDBRANCH   5   4
ENDBRANCH   9   8
ENDBRANCH  10   9
TORSDOF 5
ENDMDL
MODEL 6
REMARK VINA RESULT:     -10.5      1.900      5.383
REMARK  Name = 
REMARK  5 active torsions:
REMARK  status: ('A' for Active; 'I' for Inactive)
REMARK    1  A    between atoms: N_4  and  C_5
REMARK    2  A    between atoms: C_8  and  C_9
REMARK    3  A    between atoms: C_9  and  N_10
REMARK    4  A    between atoms: C_15  and  C_16
REMARK    5  A    between atoms: C_18  and  C_21
REMARK                            x       y       z     vdW  Elec       q    Type
REMARK                         _______ _______ _______ _____ _____    ______ ____
ROOT
ATOM     10  N   UNL     1      -1.571   1.673  24.894  0.00  0.00    -0.260 NA
ATOM     11  C   UNL     1      -1.283   2.293  25.355  0.00  0.00    +0.106 C 
ATOM     12  C   UNL     1      -0.726   1.982  25.879  0.00  0.00    +0.170 C 
ATOM     13  O   UNL     1      -0.299   2.408  26.442  0.00  0.00    -0.222 OA
ATOM     14  C   UNL     1      -0.671   1.171  25.741  0.00  0.00    +0.060 C 
ATOM     15  C   UNL     1      -1.194   0.980  25.132  0.00  0.00    +0.140 C 
ENDROOT
BRANCH  15  16
ATOM     16  C   UNL     1      -1.318   0.228  24.816  0.00  0.00    +0.251 A 
ATOM     17  N   UNL     1      -1.947  -0.275  24.995  0.00  0.00    -0.190 NA
ATOM     18  C   UNL     1      -1.852  -0.967  24.556  0.00  0.00    +0.203 A 
ATOM     19  N   UNL     1      -1.165  -0.891  24.106  0.00  0.00    -0.056 NA
ATOM     20  O   UNL     1      -0.835  -0.153  24.267  0.00  0.00    -0.336 OA
BRANCH  18  21
ATOM     21  C   UNL     1      -2.356  -1.620  24.565  0.00  0.00    +0.039 A 
ATOM     22  C   UNL     1      -2.108  -2.327  24.910  0.00  0.00    +0.003 A 
ATOM     23  C   UNL     1      -2.613  -2.980  24.919  0.00  0.00    -0.000 A 
ATOM     24  C   UNL     1      -3.364  -2.926  24.583  0.00  0.00    -0.004 A 
ATOM     25  C   UNL     1      -3.612  -2.219  24.238  0.00  0.00    -0.022 A 
ATOM     26  C   UNL     1      -4.363  -2.165  23.902  0.00  0.00    +0.031 C 
ATOM     27  C   UNL     1      -3.107  -1.566  24.229  0.00  0.00    -0.001 A 
ENDBRANCH  18  21
ENDBRANCH  15  16
BRANCH  10   9
ATOM      9  C   UNL     1      -2.138   1.736  24.298  0.00  0.00    +0.100 C 
BRANCH   9   8
ATOM      5  C   UNL     1      -4.102   3.212  24.610  0.00  0.00    +0.073 A 
ATOM      6  C   UNL     1      -4.174   2.399  24.728  0.00  0.00    +0.016 A 
ATOM      7  C   UNL     1      -3.520   1.907  24.624  0.00  0.00    -0.002 A 
ATOM      8  C   UNL     1      -2.793   2.229  24.402  0.00  0.00    -0.006 A 
ATOM     28  C   UNL     1      -2.721   3.042  24.284  0.00  0.00    -0.002 A 
ATOM     29  C   UNL     1      -3.376   3.533  24.387  0.00  0.00    +0.016 A 
BRANCH   5   4
ATOM      1  C   UNL     1      -5.734   4.299  25.570  0.00  0.00    +0.097 C 
ATOM      2  C   UNL     1      -5.079   3.807  25.466  0.00  0.00    +0.246 C 
ATOM      3  O   UNL     1      -4.747   3.420  26.114  0.00  0.00    -0.273 OA
ATOM      4  N   UNL     1      -4.756   3.703  24.713  0.00  0.00    -0.179 NA
ENDBRANCH   5   4
ENDBRANCH   9   8
ENDBRANCH  10   9
TORSDOF 5
ENDMDL
MODEL 7
REMARK VINA RESULT:      -9.3     16.807     19.067
REMARK  Name = 
REMARK  5 active torsions:
REMARK  status: ('A' for Active; 'I' for Inactive)
REMARK    1  A    between atoms: N_4  and  C_5
REMARK    2  A    between atoms: C_8  and  C_9
REMARK    3  A    between atoms: C_9  and  N_10
REMARK    4  A    between atoms: C_15  and  C_16
REMARK    5  A    between atoms: C_18  and  C_21
REMARK                            x       y       z     vdW  Elec       q    Type
REMARK                         _______ _______ _______ _____ _____    ______ ____
ROOT
ATOM     10  N   UNL     1      12.532   7.360  20.281  0.00  0.00    -0.260 NA
ATOM     11  C   UNL     1      11.767   7.070  20.384  0.00  0.00    +0.106 C 
ATOM     12  C   UNL     1      11.777   6.546  21.021  0.00  0.00    +0.170 C 
ATOM     13  O   UNL     1      11.130   6.129  21.317  0.00  0.00    -0.222 OA
ATOM     14  C   UNL     1      12.549   6.513  21.311  0.00  0.00    +0.060 C 
ATOM     15  C   UNL     1      13.015   7.017  20.853  0.00  0.00    +0.140 C 
ENDROOT
BRANCH  15  16
ATOM     16  C   UNL     1      13.823   7.153  20.950  0.00  0.00    +0.251 A 
ATOM     17  N   UNL     1      14.433   6.706  20.620  0.00  0.00    -0.190 NA
ATOM     18  C   UNL     1      15.150   7.036  20.861  0.00  0.00    +0.203 A 
ATOM     19  N   UNL     1      14.983   7.686  21.339  0.00  0.00    -0.056 NA
ATOM     20  O   UNL     1      14.164   7.758  21.395  0.00  0.00    -0.336 OA
BRANCH  18  21
ATOM     21  C   UNL     1      15.902   6.763  20.658  0.00  0.00    +0.039 A 
ATOM     22  C   UNL     1      16.504   6.758  21.222  0.00  0.00    +0.003 A 
ATOM     23  C   UNL     1      17.256   6.485  21.019  0.00  0.00    -0.000 A 
ATOM     24  C   UNL     1      17.405   6.218  20.253  0.00  0.00    -0.004 A 
ATOM     25  C   UNL     1      16.803   6.224  19.689  0.00  0.00    -0.022 A 
ATOM     26  C   UNL     1      16.952   5.957  18.923  0.00  0.00    +0.031 C 
ATOM     27  C   UNL     1      16.051   6.497  19.892  0.00  0.00    -0.001 A 
ENDBRANCH  18  21
ENDBRANCH  15  16
BRANCH  10   9
ATOM      9  C   UNL     1      12.771   7.900  19.705  0.00  0.00    +0.100 C 
BRANCH   9   8
ATOM      5  C   UNL     1      11.339   8.321  17.730  0.00  0.00    +0.073 A 
ATOM      6  C   UNL     1      11.917   7.733  17.702  0.00  0.00    +0.016 A 
ATOM      7  C   UNL     1      12.395   7.593  18.360  0.00  0.00    -0.002 A 
ATOM      8  C   UNL     1      12.294   8.041  19.046  0.00  0.00    -0.006 A 
ATOM     28  C   UNL     1      11.715   8.628  19.073  0.00  0.00    -0.002 A 
ATOM     29  C   UNL     1      11.238   8.768  18.415  0.00  0.00    +0.016 A 
BRANCH   5   4
ATOM      1  C   UNL     1      10.695   8.987  15.753  0.00  0.00    +0.097 C 
ATOM      2  C   UNL     1      11.173   8.847  16.411  0.00  0.00    +0.246 C 
ATOM      3  O   UNL     1      11.959   9.093  16.410  0.00  0.00    -0.273 OA
ATOM      4  N   UNL     1      10.862   8.460  17.072  0.00  0.00    -0.179 NA
ENDBRANCH   5   4
ENDBRANCH   9   8
ENDBRANCH  10   9
TORSDOF 5
ENDMDL
