MODEL 1
REMARK VINA RESULT:     -10.6      0.000      0.000
REMARK  Name = 
REMARK  3 active torsions:
REMARK  status: ('A' for Active; 'I' for Inactive)
REMARK    1  A    between atoms: N_3  and  C_4
REMARK    2  A    between atoms: C_4  and  C_5
REMARK    3  A    between atoms: N_14  and  C_18
REMARK                            x       y       z     vdW  Elec       q    Type
REMARK                         _______ _______ _______ _____ _____    ______ ____
ROOT
ATOM      1  O   UNL     1      -4.829   2.785  24.995  0.00  0.00    -0.252 OA
ATOM      2  C   UNL     1      -4.227   2.268  24.767  0.00  0.00    +0.308 C 
ATOM      3  N   UNL     1      -3.485   2.485  24.479  0.00  0.00    -0.257 N 
ATOM     11  C   UNL     1      -3.062   1.795  24.320  0.00  0.00    +0.117 C 
ATOM     12  C   UNL     1      -3.542   1.152  24.510  0.00  0.00    +0.113 C 
ATOM     13  C   UNL     1      -3.417   0.337  24.468  0.00  0.00    +0.094 C 
ATOM     14  N   UNL     1      -4.012  -0.184  24.701  0.00  0.00    -0.271 NA
ATOM     15  C   UNL     1      -4.732   0.109  24.977  0.00  0.00    +0.094 C 
ATOM     16  C   UNL     1      -4.858   0.923  25.019  0.00  0.00    +0.112 C 
ATOM     17  N   UNL     1      -4.262   1.445  24.786  0.00  0.00    -0.261 N 
ENDROOT
BRANCH  14  18
ATOM     18  C   UNL     1      -3.887  -0.999  24.658  0.00  0.00    +0.063 C 
ATOM     19  C   UNL     1      -4.143  -1.420  23.997  0.00  0.00    +0.048 C 
ATOM     20  C   UNL     1      -4.019  -2.235  23.953  0.00  0.00    +0.144 C 
ATOM     21  O   UNL     1      -3.639  -2.628  24.572  0.00  0.00    -0.354 OA
ATOM     22  C   UNL     1      -3.383  -2.206  25.233  0.00  0.00    +0.144 C 
ATOM     23  C   UNL     1      -3.508  -1.391  25.276  0.00  0.00    +0.048 C 
ENDBRANCH  14  18
BRANCH   3   4
ATOM      4  C   UNL     1      -3.214   3.256  24.369  0.00  0.00    +0.141 C 
BRANCH   4   5
ATOM      5  C   UNL     1      -2.488   3.488  24.684  0.00  0.00    +0.079 A 
ATOM      6  N   UNL     1      -1.790   3.322  24.276  0.00  0.00    -0.246 NA
ATOM      7  C   UNL     1      -1.063   3.553  24.591  0.00  0.00    +0.099 A 
ATOM      8  C   UNL     1      -1.034   3.950  25.314  0.00  0.00    +0.021 A 
ATOM      9  C   UNL     1      -1.732   4.115  25.722  0.00  0.00    +0.003 A 
ATOM     10  C   UNL     1      -2.459   3.884  25.407  0.00  0.00    +0.016 A 
ENDBRANCH   4   5
ENDBRANCH   3   4
TORSDOF 3
ENDMDL
MODEL 2
REMARK VINA RESULT:     -10.5      1.237      4.638
REMARK  Name = 
REMARK  3 active torsions:
REMARK  status: ('A' for Active; 'I' for Inactive)
REMARK    1  A    between atoms: N_3  and  C_4
REMARK    2  A    between atoms: C_4  and  C_5
REMARK    3  A    between atoms: N_14  and  C_18
REMARK                            x       y       z     vdW  Elec       q    Type
REMARK                         _______ _______ _______ _____ _____    ______ ____
ROOT
ATOM      1  O   UNL     1      -5.451   1.754  25.207  0.00  0.00    -0.252 OA
ATOM      2  C   UNL     1      -4.647   1.691  25.032  0.00  0.00    +0.308 C 
ATOM      3  N   UNL     1      -4.260   1.014  24.764  0.00  0.00    -0.257 N 
ATOM     11  C   UNL     1      -3.463   1.199  24.660  0.00  0.00    +0.117 C 
ATOM     12  C   UNL     1      -3.357   1.991  24.864  0.00  0.00    +0.113 C 
ATOM     13  C   UNL     1      -2.689   2.475  24.871  0.00  0.00    +0.094 C 
ATOM     14  N   UNL     1      -2.752   3.262  25.107  0.00  0.00    -0.271 NA
ATOM     15  C   UNL     1      -3.484   3.567  25.336  0.00  0.00    +0.094 C 
ATOM     16  C   UNL     1      -4.152   3.084  25.330  0.00  0.00    +0.112 C 
ATOM     17  N   UNL     1      -4.089   2.295  25.094  0.00  0.00    -0.261 N 
ENDROOT
BRANCH  14  18
ATOM     18  C   UNL     1      -2.084   3.747  25.113  0.00  0.00    +0.063 C 
ATOM     19  C   UNL     1      -1.331   3.410  25.099  0.00  0.00    +0.048 C 
ATOM     20  C   UNL     1      -0.662   3.893  25.105  0.00  0.00    +0.144 C 
ATOM     21  O   UNL     1      -0.747   4.714  25.127  0.00  0.00    -0.354 OA
ATOM     22  C   UNL     1      -1.500   5.051  25.141  0.00  0.00    +0.144 C 
ATOM     23  C   UNL     1      -2.168   4.566  25.135  0.00  0.00    +0.048 C 
ENDBRANCH  14  18
BRANCH   3   4
ATOM      4  C   UNL     1      -4.610   0.279  24.624  0.00  0.00    +0.141 C 
BRANCH   4   5
ATOM      5  C   UNL     1      -4.183  -0.413  24.758  0.00  0.00    +0.079 A 
ATOM      6  N   UNL     1      -3.987  -0.634  25.530  0.00  0.00    -0.246 NA
ATOM      7  C   UNL     1      -3.560  -1.327  25.664  0.00  0.00    +0.099 A 
ATOM      8  C   UNL     1      -3.329  -1.799  25.028  0.00  0.00    +0.021 A 
ATOM      9  C   UNL     1      -3.524  -1.578  24.258  0.00  0.00    +0.003 A 
ATOM     10  C   UNL     1      -3.951  -0.886  24.123  0.00  0.00    +0.016 A 
ENDBRANCH   4   5
ENDBRANCH   3   4
TORSDOF 3
ENDMDL
MODEL 3
REMARK VINA RESULT:      -9.8      1.864      5.113
REMARK  Name = 
REMARK  3 active torsions:
REMARK  status: ('A' for Active; 'I' for Inactive)
REMARK    1  A    between atoms: N_3  and  C_4
REMARK    2  A    between atoms: C_4  and  C_5
REMARK    3  A    between atoms: N_14  and  C_18
REMARK                            x       y       z     vdW  Elec       q    Type
REMARK                         _______ _______ _______ _____ _____    ______ ____
ROOT
ATOM      1  O   UNL     1      -0.510  -0.192  25.622  0.00  0.00    -0.252 OA
ATOM      2  C   UNL     1      -1.033   0.341  25.272  0.00  0.00    +0.308 C 
ATOM      3  N   UNL     1      -1.661   0.148  24.773  0.00  0.00    -0.257 N 
ATOM     11  C   UNL     1      -2.036   0.849  24.552  0.00  0.00    +0.117 C 
ATOM     12  C   UNL     1      -1.640   1.475  24.915  0.00  0.00    +0.113 C 
ATOM     13  C   UNL     1      -1.763   2.291  24.897  0.00  0.00    +0.094 C 
ATOM     14  N   UNL     1      -1.267   2.792  25.324  0.00  0.00    -0.271 NA
ATOM     15  C   UNL     1      -0.647   2.478  25.769  0.00  0.00    +0.094 C 
ATOM     16  C   UNL     1      -0.523   1.663  25.787  0.00  0.00    +0.112 C 
ATOM     17  N   UNL     1      -1.020   1.161  25.359  0.00  0.00    -0.261 N 
ENDROOT
BRANCH  14  18
ATOM     18  C   UNL     1      -1.391   3.608  25.307  0.00  0.00    +0.063 C 
ATOM     19  C   UNL     1      -2.076   3.928  25.636  0.00  0.00    +0.048 C 
ATOM     20  C   UNL     1      -2.200   4.743  25.620  0.00  0.00    +0.144 C 
ATOM     21  O   UNL     1      -1.638   5.239  25.273  0.00  0.00    -0.354 OA
ATOM     22  C   UNL     1      -0.953   4.919  24.944  0.00  0.00    +0.144 C 
ATOM     23  C   UNL     1      -0.829   4.103  24.961  0.00  0.00    +0.048 C 
ENDBRANCH  14  18
BRANCH   3   4
ATOM      4  C   UNL     1      -1.876  -0.613  24.537  0.00  0.00    +0.141 C 
BRANCH   4   5
ATOM      5  C   UNL     1      -2.660  -0.860  24.605  0.00  0.00    +0.079 A 
ATOM      6  N   UNL     1      -2.943  -1.140  25.328  0.00  0.00    -0.246 NA
ATOM      7  C   UNL     1      -3.727  -1.388  25.396  0.00  0.00    +0.099 A 
ATOM      8  C   UNL     1      -4.228  -1.355  24.741  0.00  0.00    +0.021 A 
ATOM      9  C   UNL     1      -3.946  -1.074  24.019  0.00  0.00    +0.003 A 
ATOM     10  C   UNL     1      -3.162  -0.827  23.950  0.00  0.00    +0.016 A 
ENDBRANCH   4   5
ENDBRANCH   3   4
TORSDOF 3
ENDMDL
MODEL 4
REMARK VINA RESULT:      -9.6      1.749      2.252
REMARK  Name = 
REMARK  3 active torsions:
REMARK  status: ('A' for Active; 'I' for Inactive)
REMARK    1  A    between atoms: N_3  and  C_4
REMARK    2  A    between atoms: C_4  and  C_5
REMARK    3  A    between atoms: N_14  and  C_18
REMARK                            x       y       z     vdW  Elec       q    Type
REMARK                         _______ _______ _______ _____ _____    ______ ____
ROOT
ATOM      1  O   UNL     1      -0.262   1.740  25.754  0.00  0.00    -0.252 OA
ATOM      2  C   UNL     1      -0.965   1.489  25.401  0.00  0.00    +0.308 C 
ATOM      3  N   UNL     1      -1.515   1.972  25.021  0.00  0.00    -0.257 N 
ATOM     11  C   UNL     1      -2.131   1.493  24.752  0.00  0.00    +0.117 C 
ATOM     12  C   UNL     1      -1.961   0.715  24.966  0.00  0.00    +0.113 C 
ATOM     13  C   UNL     1      -2.369   0.008  24.848  0.00  0.00    +0.094 C 
ATOM     14  N   UNL     1      -2.057  -0.701  25.130  0.00  0.00    -0.271 NA
ATOM     15  C   UNL     1      -1.336  -0.703  25.532  0.00  0.00    +0.094 C 
ATOM     16  C   UNL     1      -0.928   0.003  25.651  0.00  0.00    +0.112 C 
ATOM     17  N   UNL     1      -1.240   0.713  25.367  0.00  0.00    -0.261 N 
ENDROOT
BRANCH  14  18
ATOM     18  C   UNL     1      -2.465  -1.409  25.012  0.00  0.00    +0.063 C 
ATOM     19  C   UNL     1      -3.182  -1.540  25.399  0.00  0.00    +0.048 C 
ATOM     20  C   UNL     1      -3.591  -2.247  25.281  0.00  0.00    +0.144 C 
ATOM     21  O   UNL     1      -3.282  -2.823  24.776  0.00  0.00    -0.354 OA
ATOM     22  C   UNL     1      -2.565  -2.691  24.389  0.00  0.00    +0.144 C 
ATOM     23  C   UNL     1      -2.157  -1.983  24.508  0.00  0.00    +0.048 C 
ENDBRANCH  14  18
BRANCH   3   4
ATOM      4  C   UNL     1      -1.459   2.789  24.926  0.00  0.00    +0.141 C 
BRANCH   4   5
ATOM      5  C   UNL     1      -2.100   3.272  25.119  0.00  0.00    +0.079 A 
ATOM      6  N   UNL     1      -2.690   3.417  24.559  0.00  0.00    -0.246 NA
ATOM      7  C   UNL     1      -3.330   3.899  24.752  0.00  0.00    +0.099 A 
ATOM      8  C   UNL     1      -3.382   4.237  25.503  0.00  0.00    +0.021 A 
ATOM      9  C   UNL     1      -2.794   4.092  26.061  0.00  0.00    +0.003 A 
ATOM     10  C   UNL     1      -2.152   3.609  25.870  0.00  0.00    +0.016 A 
ENDBRANCH   4   5
ENDBRANCH   3   4
TORSDOF 3
ENDMDL
