MODEL 1
REMARK VINA RESULT:     -10.9      0.000      0.000
REMARK  Name = 
REMARK  5 active torsions:
REMARK  status: ('A' for Active; 'I' for Inactive)
REMARK    1  A    between atoms: N_3  and  C_4
REMARK    2  A    between atoms: C_8  and  N_12
REMARK    3  A    between atoms: C_14  and  C_15
REMARK    4  A    between atoms: C_15  and  C_16
REMARK    5  A    between atoms: N_24  and  C_25
REMARK                            x       y       z     vdW  Elec       q    Type
REMARK                         _______ _______ _______ _____ _____    ______ ____
ROOT
ATOM      4  C   UNL     1      -4.284   0.672  24.277  0.00  0.00    +0.156 C 
ATOM      5  C   UNL     1      -3.601   0.936  23.899  0.00  0.00    +0.166 C 
ATOM      6  O   UNL     1      -3.466   1.715  24.134  0.00  0.00    -0.350 OA
ATOM      7  C   UNL     1      -4.065   1.932  24.656  0.00  0.00    +0.169 C 
ATOM      8  C   UNL     1      -4.353   2.547  25.125  0.00  0.00    +0.166 C 
ATOM      9  C   UNL     1      -5.037   2.283  25.502  0.00  0.00    +0.169 C 
ATOM     10  O   UNL     1      -5.172   1.504  25.267  0.00  0.00    -0.350 OA
ATOM     11  C   UNL     1      -4.571   1.287  24.745  0.00  0.00    +0.167 C 
ENDROOT
BRANCH   8  12
ATOM     12  N   UNL     1      -4.016   3.297  25.201  0.00  0.00    -0.227 N 
ATOM     13  C   UNL     1      -3.322   3.477  25.612  0.00  0.00    +0.113 A 
ATOM     14  C   UNL     1      -3.191   4.289  25.545  0.00  0.00    +0.101 A 
ATOM     22  N   UNL     1      -3.802   4.610  25.095  0.00  0.00    -0.133 NA
ATOM     23  N   UNL     1      -4.312   3.997  24.882  0.00  0.00    -0.064 NA
BRANCH  14  15
ATOM     15  C   UNL     1      -2.558   4.706  25.873  0.00  0.00    +0.049 C 
BRANCH  15  16
ATOM     16  C   UNL     1      -1.837   4.741  25.474  0.00  0.00    +0.006 C 
ATOM     17  C   UNL     1      -1.621   5.428  25.073  0.00  0.00    +0.000 C 
ATOM     18  C   UNL     1      -0.900   5.463  24.674  0.00  0.00    +0.000 C 
ATOM     19  C   UNL     1      -0.394   4.812  24.677  0.00  0.00    +0.000 C 
ATOM     20  C   UNL     1      -0.611   4.124  25.078  0.00  0.00    +0.000 C 
ATOM     21  C   UNL     1      -1.332   4.088  25.477  0.00  0.00    +0.000 C 
ENDBRANCH  15  16
ENDBRANCH  14  15
ENDBRANCH   8  12
BRANCH   4   3
ATOM      1  O   UNL     1      -3.353  -0.676  24.471  0.00  0.00    -0.249 OA
ATOM      2  C   UNL     1      -4.156  -0.752  24.297  0.00  0.00    +0.344 C 
ATOM      3  N   UNL     1      -4.622  -0.077  24.200  0.00  0.00    -0.184 NA
ATOM     24  N   UNL     1      -4.493  -1.500  24.220  0.00  0.00    -0.161 NA
BRANCH  24  25
ATOM     25  C   UNL     1      -4.028  -2.175  24.317  0.00  0.00    +0.075 A 
ATOM     26  C   UNL     1      -3.678  -2.333  25.047  0.00  0.00    +0.017 A 
ATOM     27  C   UNL     1      -3.212  -3.008  25.144  0.00  0.00    +0.001 A 
ATOM     28  C   UNL     1      -3.098  -3.524  24.511  0.00  0.00    +0.000 A 
ATOM     29  C   UNL     1      -3.448  -3.366  23.780  0.00  0.00    +0.001 A 
ATOM     30  C   UNL     1      -3.913  -2.691  23.684  0.00  0.00    +0.017 A 
ENDBRANCH  24  25
ENDBRANCH   4   3
TORSDOF 5
ENDMDL
MODEL 2
REMARK VINA RESULT:     -10.1      2.342      6.523
REMARK  Name = 
REMARK  5 active torsions:
REMARK  status: ('A' for Active; 'I' for Inactive)
REMARK    1  A    between atoms: N_3  and  C_4
REMARK    2  A    between atoms: C_8  and  N_12
REMARK    3  A    between atoms: C_14  and  C_15
REMARK    4  A    between atoms: C_15  and  C_16
REMARK    5  A    between atoms: N_24  and  C_25
REMARK                            x       y       z     vdW  Elec       q    Type
REMARK                         _______ _______ _______ _____ _____    ______ ____
ROOT
ATOM      4  C   UNL     1      -0.506   1.549  24.777  0.00  0.00    +0.156 C 
ATOM      5  C   UNL     1      -0.746   1.315  24.023  0.00  0.00    +0.166 C 
ATOM      6  O   UNL     1      -1.008   0.535  24.071  0.00  0.00    -0.350 OA
ATOM      7  C   UNL     1      -0.930   0.286  24.852  0.00  0.00    +0.169 C 
ATOM      8  C   UNL     1      -1.044  -0.350  25.366  0.00  0.00    +0.166 C 
ATOM      9  C   UNL     1      -0.805  -0.116  26.120  0.00  0.00    +0.169 C 
ATOM     10  O   UNL     1      -0.543   0.665  26.073  0.00  0.00    -0.350 OA
ATOM     11  C   UNL     1      -0.620   0.913  25.289  0.00  0.00    +0.167 C 
ENDROOT
BRANCH   8  12
ATOM     12  N   UNL     1      -1.345  -1.090  25.161  0.00  0.00    -0.227 N 
ATOM     13  C   UNL     1      -2.111  -1.361  25.310  0.00  0.00    +0.113 A 
ATOM     14  C   UNL     1      -2.172  -2.128  25.012  0.00  0.00    +0.101 A 
ATOM     22  N   UNL     1      -1.445  -2.331  24.679  0.00  0.00    -0.133 NA
ATOM     23  N   UNL     1      -0.934  -1.690  24.771  0.00  0.00    -0.064 NA
BRANCH  14  15
ATOM     15  C   UNL     1      -2.843  -2.608  25.042  0.00  0.00    +0.049 C 
BRANCH  15  16
ATOM     16  C   UNL     1      -3.468  -2.475  24.520  0.00  0.00    +0.006 C 
ATOM     17  C   UNL     1      -3.654  -3.038  23.948  0.00  0.00    +0.000 C 
ATOM     18  C   UNL     1      -4.280  -2.905  23.427  0.00  0.00    +0.000 C 
ATOM     19  C   UNL     1      -4.719  -2.209  23.478  0.00  0.00    +0.000 C 
ATOM     20  C   UNL     1      -4.533  -1.645  24.051  0.00  0.00    +0.000 C 
ATOM     21  C   UNL     1      -3.907  -1.778  24.572  0.00  0.00    +0.000 C 
ENDBRANCH  15  16
ENDBRANCH  14  15
ENDBRANCH   8  12
BRANCH   4   3
ATOM      1  O   UNL     1      -1.474   2.883  24.701  0.00  0.00    -0.249 OA
ATOM      2  C   UNL     1      -0.689   2.957  24.944  0.00  0.00    +0.344 C 
ATOM      3  N   UNL     1      -0.205   2.290  24.982  0.00  0.00    -0.184 NA
ATOM     24  N   UNL     1      -0.388   3.697  25.149  0.00  0.00    -0.161 NA
BRANCH  24  25
ATOM     25  C   UNL     1      -0.872   4.364  25.111  0.00  0.00    +0.075 A 
ATOM     26  C   UNL     1      -1.581   4.385  25.532  0.00  0.00    +0.017 A 
ATOM     27  C   UNL     1      -2.065   5.052  25.493  0.00  0.00    +0.001 A 
ATOM     28  C   UNL     1      -1.839   5.699  25.034  0.00  0.00    +0.000 A 
ATOM     29  C   UNL     1      -1.129   5.679  24.613  0.00  0.00    +0.001 A 
ATOM     30  C   UNL     1      -0.646   5.011  24.652  0.00  0.00    +0.017 A 
ENDBRANCH  24  25
ENDBRANCH   4   3
TORSDOF 5
ENDMDL
MODEL 3
REMARK VINA RESULT:     -10.1      4.394      6.533
REMARK  Name = 
REMARK  5 active torsions:
REMARK  status: ('A' for Active; 'I' for Inactive)
REMARK    1  A    between atoms: N_3  and  C_4
REMARK    2  A    between atoms: C_8  and  N_12
REMARK    3  A    between atoms: C_14  and  C_15
REMARK    4  A    between atoms: C_15  and  C_16
REMARK    5  A    between atoms: N_24  and  C_25
REMARK                            x       y       z     vdW  Elec       q    Type
REMARK                         _______ _______ _______ _____ _____    ______ ____
ROOT
ATOM      4  C   UNL     1       0.820   0.027  23.182  0.00  0.00    +0.156 C 
ATOM      5  C   UNL     1       0.664  -0.763  23.361  0.00  0.00    +0.166 C 
ATOM      6  O   UNL     1      -0.015  -0.788  23.827  0.00  0.00    -0.350 OA
ATOM      7  C   UNL     1      -0.279  -0.015  23.937  0.00  0.00    +0.169 C 
ATOM      8  C   UNL     1      -0.862   0.448  24.293  0.00  0.00    +0.166 C 
ATOM      9  C   UNL     1      -0.706   1.238  24.114  0.00  0.00    +0.169 C 
ATOM     10  O   UNL     1      -0.027   1.263  23.647  0.00  0.00    -0.350 OA
ATOM     11  C   UNL     1       0.237   0.489  23.538  0.00  0.00    +0.167 C 
ENDROOT
BRANCH   8  12
ATOM     12  N   UNL     1      -1.491   0.169  24.748  0.00  0.00    -0.227 N 
ATOM     13  C   UNL     1      -2.243  -0.029  24.469  0.00  0.00    +0.113 A 
ATOM     14  C   UNL     1      -2.695  -0.281  25.111  0.00  0.00    +0.101 A 
ATOM     22  N   UNL     1      -2.224  -0.239  25.787  0.00  0.00    -0.133 NA
ATOM     23  N   UNL     1      -1.480   0.039  25.562  0.00  0.00    -0.064 NA
BRANCH  14  15
ATOM     15  C   UNL     1      -3.481  -0.531  25.083  0.00  0.00    +0.049 C 
BRANCH  15  16
ATOM     16  C   UNL     1      -3.666  -1.273  24.775  0.00  0.00    +0.006 C 
ATOM     17  C   UNL     1      -3.438  -1.955  25.178  0.00  0.00    +0.000 C 
ATOM     18  C   UNL     1      -3.624  -2.698  24.870  0.00  0.00    +0.000 C 
ATOM     19  C   UNL     1      -4.037  -2.758  24.159  0.00  0.00    +0.000 C 
ATOM     20  C   UNL     1      -4.266  -2.075  23.756  0.00  0.00    +0.000 C 
ATOM     21  C   UNL     1      -4.080  -1.333  24.064  0.00  0.00    +0.000 C 
ENDBRANCH  15  16
ENDBRANCH  14  15
ENDBRANCH   8  12
BRANCH   4   3
ATOM      1  O   UNL     1       2.373  -0.200  23.692  0.00  0.00    -0.249 OA
ATOM      2  C   UNL     1       2.226   0.193  22.981  0.00  0.00    +0.344 C 
ATOM      3  N   UNL     1       1.449   0.306  22.726  0.00  0.00    -0.184 NA
ATOM     24  N   UNL     1       2.854   0.471  22.526  0.00  0.00    -0.161 NA
BRANCH  24  25
ATOM     25  C   UNL     1       3.631   0.358  22.781  0.00  0.00    +0.075 A 
ATOM     26  C   UNL     1       3.935  -0.405  22.852  0.00  0.00    +0.017 A 
ATOM     27  C   UNL     1       4.711  -0.519  23.107  0.00  0.00    +0.001 A 
ATOM     28  C   UNL     1       5.184   0.132  23.291  0.00  0.00    +0.000 A 
ATOM     29  C   UNL     1       4.880   0.896  23.220  0.00  0.00    +0.001 A 
ATOM     30  C   UNL     1       4.103   1.008  22.965  0.00  0.00    +0.017 A 
ENDBRANCH  24  25
ENDBRANCH   4   3
TORSDOF 5
ENDMDL
MODEL 4
REMARK VINA RESULT:      -9.8      4.169      5.629
REMARK  Name = 
REMARK  5 active torsions:
REMARK  status: ('A' for Active; 'I' for Inactive)
REMARK    1  A    between atoms: N_3  and  C_4
REMARK    2  A    between atoms: C_8  and  N_12
REMARK    3  A    between atoms: C_14  and  C_15
REMARK    4  A    between atoms: C_15  and  C_16
REMARK    5  A    between atoms: N_24  and  C_25
REMARK                            x       y       z     vdW  Elec       q    Type
REMARK                         _______ _______ _______ _____ _____    ______ ____
ROOT
ATOM      4  C   UNL     1       0.544   0.085  23.267  0.00  0.00    +0.156 C 
ATOM      5  C   UNL     1       0.350   0.886  23.226  0.00  0.00    +0.166 C 
ATOM      6  O   UNL     1      -0.362   0.995  23.627  0.00  0.00    -0.350 OA
ATOM      7  C   UNL     1      -0.608   0.264  23.916  0.00  0.00    +0.169 C 
ATOM      8  C   UNL     1      -1.200  -0.122  24.342  0.00  0.00    +0.166 C 
ATOM      9  C   UNL     1      -1.006  -0.922  24.384  0.00  0.00    +0.169 C 
ATOM     10  O   UNL     1      -0.293  -1.032  23.983  0.00  0.00    -0.350 OA
ATOM     11  C   UNL     1      -0.048  -0.299  23.693  0.00  0.00    +0.167 C 
ENDROOT
BRANCH   8  12
ATOM     12  N   UNL     1      -1.870   0.232  24.670  0.00  0.00    -0.227 N 
ATOM     13  C   UNL     1      -2.571   0.408  24.271  0.00  0.00    +0.113 A 
ATOM     14  C   UNL     1      -3.090   0.756  24.809  0.00  0.00    +0.101 A 
ATOM     22  N   UNL     1      -2.710   0.797  25.539  0.00  0.00    -0.133 NA
ATOM     23  N   UNL     1      -1.956   0.473  25.454  0.00  0.00    -0.064 NA
BRANCH  14  15
ATOM     15  C   UNL     1      -3.855   1.019  24.644  0.00  0.00    +0.049 C 
BRANCH  15  16
ATOM     16  C   UNL     1      -4.011   1.827  24.594  0.00  0.00    +0.006 C 
ATOM     17  C   UNL     1      -3.819   2.243  23.908  0.00  0.00    +0.000 C 
ATOM     18  C   UNL     1      -3.976   3.051  23.859  0.00  0.00    +0.000 C 
ATOM     19  C   UNL     1      -4.325   3.444  24.494  0.00  0.00    +0.000 C 
ATOM     20  C   UNL     1      -4.517   3.028  25.181  0.00  0.00    +0.000 C 
ATOM     21  C   UNL     1      -4.361   2.219  25.231  0.00  0.00    +0.000 C 
ENDBRANCH  15  16
ENDBRANCH  14  15
ENDBRANCH   8  12
BRANCH   4   3
ATOM      1  O   UNL     1       2.032   0.758  23.504  0.00  0.00    -0.249 OA
ATOM      2  C   UNL     1       1.958   0.067  23.057  0.00  0.00    +0.344 C 
ATOM      3  N   UNL     1       1.214  -0.269  22.939  0.00  0.00    -0.184 NA
ATOM     24  N   UNL     1       2.627  -0.286  22.730  0.00  0.00    -0.161 NA
BRANCH  24  25
ATOM     25  C   UNL     1       3.372   0.050  22.848  0.00  0.00    +0.075 A 
ATOM     26  C   UNL     1       3.567   0.760  22.478  0.00  0.00    +0.017 A 
ATOM     27  C   UNL     1       4.312   1.096  22.596  0.00  0.00    +0.001 A 
ATOM     28  C   UNL     1       4.860   0.721  23.084  0.00  0.00    +0.000 A 
ATOM     29  C   UNL     1       4.665   0.010  23.455  0.00  0.00    +0.001 A 
ATOM     30  C   UNL     1       3.920  -0.325  23.336  0.00  0.00    +0.017 A 
ENDBRANCH  24  25
ENDBRANCH   4   3
TORSDOF 5
ENDMDL
MODEL 5
REMARK VINA RESULT:      -9.6      4.877      5.779
REMARK  Name = 
REMARK  5 active torsions:
REMARK  status: ('A' for Active; 'I' for Inactive)
REMARK    1  A    between atoms: N_3  and  C_4
REMARK    2  A    between atoms: C_8  and  N_12
REMARK    3  A    between atoms: C_14  and  C_15
REMARK    4  A    between atoms: C_15  and  C_16
REMARK    5  A    between atoms: N_24  and  C_25
REMARK                            x       y       z     vdW  Elec       q    Type
REMARK                         _______ _______ _______ _____ _____    ______ ____
ROOT
ATOM      4  C   UNL     1      -0.403  -0.417  24.256  0.00  0.00    +0.156 C 
ATOM      5  C   UNL     1       0.020  -1.116  24.141  0.00  0.00    +0.166 C 
ATOM      6  O   UNL     1       0.721  -0.927  23.748  0.00  0.00    -0.350 OA
ATOM      7  C   UNL     1       0.730  -0.112  23.620  0.00  0.00    +0.169 C 
ATOM      8  C   UNL     1       1.168   0.509  23.299  0.00  0.00    +0.166 C 
ATOM      9  C   UNL     1       0.744   1.207  23.414  0.00  0.00    +0.169 C 
ATOM     10  O   UNL     1       0.044   1.018  23.807  0.00  0.00    -0.350 OA
ATOM     11  C   UNL     1       0.035   0.202  23.934  0.00  0.00    +0.167 C 
ENDROOT
BRANCH   8  12
ATOM     12  N   UNL     1       1.902   0.442  22.927  0.00  0.00    -0.227 N 
ATOM     13  C   UNL     1       2.606   0.793  23.177  0.00  0.00    +0.113 A 
ATOM     14  C   UNL     1       3.199   0.581  22.645  0.00  0.00    +0.101 A 
ATOM     22  N   UNL     1       2.862   0.100  22.066  0.00  0.00    -0.133 NA
ATOM     23  N   UNL     1       2.061   0.014  22.241  0.00  0.00    -0.064 NA
BRANCH  14  15
ATOM     15  C   UNL     1       3.991   0.811  22.684  0.00  0.00    +0.049 C 
BRANCH  15  16
ATOM     16  C   UNL     1       4.516   0.400  23.170  0.00  0.00    +0.006 C 
ATOM     17  C   UNL     1       4.953   0.805  23.740  0.00  0.00    +0.000 C 
ATOM     18  C   UNL     1       5.478   0.395  24.226  0.00  0.00    +0.000 C 
ATOM     19  C   UNL     1       5.565  -0.421  24.143  0.00  0.00    +0.000 C 
ATOM     20  C   UNL     1       5.128  -0.827  23.573  0.00  0.00    +0.000 C 
ATOM     21  C   UNL     1       4.603  -0.416  23.086  0.00  0.00    +0.000 C 
ENDBRANCH  15  16
ENDBRANCH  14  15
ENDBRANCH   8  12
BRANCH   4   3
ATOM      1  O   UNL     1      -1.615  -1.474  23.884  0.00  0.00    -0.249 OA
ATOM      2  C   UNL     1      -1.743  -0.879  24.442  0.00  0.00    +0.344 C 
ATOM      3  N   UNL     1      -1.137  -0.351  24.628  0.00  0.00    -0.184 NA
ATOM     24  N   UNL     1      -2.476  -0.813  24.813  0.00  0.00    -0.161 NA
BRANCH  24  25
ATOM     25  C   UNL     1      -3.083  -1.341  24.627  0.00  0.00    +0.075 A 
ATOM     26  C   UNL     1      -3.092  -2.094  24.963  0.00  0.00    +0.017 A 
ATOM     27  C   UNL     1      -3.698  -2.622  24.777  0.00  0.00    +0.001 A 
ATOM     28  C   UNL     1      -4.295  -2.396  24.255  0.00  0.00    +0.000 A 
ATOM     29  C   UNL     1      -4.286  -1.643  23.918  0.00  0.00    +0.001 A 
ATOM     30  C   UNL     1      -3.680  -1.116  24.105  0.00  0.00    +0.017 A 
ENDBRANCH  24  25
ENDBRANCH   4   3
TORSDOF 5
ENDMDL
MODEL 6
REMARK VINA RESULT:      -9.5      4.880      6.331
REMARK  Name = 
REMARK  5 active torsions:
REMARK  status: ('A' for Active; 'I' for Inactive)
REMARK    1  A    between atoms: N_3  and  C_4
REMARK    2  A    between atoms: C_8  and  N_12
REMARK    3  A    between atoms: C_14  and  C_15
REMARK    4  A    between atoms: C_15  and  C_16
REMARK    5  A    between atoms: N_24  and  C_25
REMARK                            x       y       z     vdW  Elec       q    Type
REMARK                         _______ _______ _______ _____ _____    ______ ____
ROOT
ATOM      4  C   UNL     1      -0.595   1.180  24.294  0.00  0.00    +0.156 C 
ATOM      5  C   UNL     1      -0.155   1.823  24.563  0.00  0.00    +0.166 C 
ATOM      6  O   UNL     1       0.611   1.748  24.266  0.00  0.00    -0.350 OA
ATOM      7  C   UNL     1       0.644   1.059  23.815  0.00  0.00    +0.169 C 
ATOM      8  C   UNL     1       1.137   0.586  23.353  0.00  0.00    +0.166 C 
ATOM      9  C   UNL     1       0.696  -0.057  23.084  0.00  0.00    +0.169 C 
ATOM     10  O   UNL     1      -0.069   0.018  23.381  0.00  0.00    -0.350 OA
ATOM     11  C   UNL     1      -0.102   0.708  23.833  0.00  0.00    +0.167 C 
ENDROOT
BRANCH   8  12
ATOM     12  N   UNL     1       1.933   0.731  23.188  0.00  0.00    -0.227 N 
ATOM     13  C   UNL     1       2.484   0.175  22.928  0.00  0.00    +0.113 A 
ATOM     14  C   UNL     1       3.208   0.559  22.833  0.00  0.00    +0.101 A 
ATOM     22  N   UNL     1       3.105   1.351  23.034  0.00  0.00    -0.133 NA
ATOM     23  N   UNL     1       2.316   1.458  23.253  0.00  0.00    -0.064 NA
BRANCH  14  15
ATOM     15  C   UNL     1       3.912   0.210  22.581  0.00  0.00    +0.049 C 
BRANCH  15  16
ATOM     16  C   UNL     1       4.490   0.002  23.132  0.00  0.00    +0.006 C 
ATOM     17  C   UNL     1       4.497  -0.758  23.454  0.00  0.00    +0.000 C 
ATOM     18  C   UNL     1       5.075  -0.966  24.005  0.00  0.00    +0.000 C 
ATOM     19  C   UNL     1       5.644  -0.415  24.234  0.00  0.00    +0.000 C 
ATOM     20  C   UNL     1       5.637   0.345  23.912  0.00  0.00    +0.000 C 
ATOM     21  C   UNL     1       5.059   0.553  23.361  0.00  0.00    +0.000 C 
ENDBRANCH  15  16
ENDBRANCH  14  15
ENDBRANCH   8  12
BRANCH   4   3
ATOM      1  O   UNL     1      -1.684   2.420  24.266  0.00  0.00    -0.249 OA
ATOM      2  C   UNL     1      -1.935   1.654  24.445  0.00  0.00    +0.344 C 
ATOM      3  N   UNL     1      -1.391   1.034  24.460  0.00  0.00    -0.184 NA
ATOM     24  N   UNL     1      -2.730   1.509  24.610  0.00  0.00    -0.161 NA
BRANCH  24  25
ATOM     25  C   UNL     1      -3.275   2.129  24.596  0.00  0.00    +0.075 A 
ATOM     26  C   UNL     1      -3.627   2.352  23.885  0.00  0.00    +0.017 A 
ATOM     27  C   UNL     1      -4.172   2.972  23.871  0.00  0.00    +0.001 A 
ATOM     28  C   UNL     1      -4.364   3.368  24.569  0.00  0.00    +0.000 A 
ATOM     29  C   UNL     1      -4.011   3.144  25.281  0.00  0.00    +0.001 A 
ATOM     30  C   UNL     1      -3.467   2.525  25.294  0.00  0.00    +0.017 A 
ENDBRANCH  24  25
ENDBRANCH   4   3
TORSDOF 5
ENDMDL
MODEL 7
REMARK VINA RESULT:      -9.2      4.017      5.391
REMARK  Name = 
REMARK  5 active torsions:
REMARK  status: ('A' for Active; 'I' for Inactive)
REMARK    1  A    between atoms: N_3  and  C_4
REMARK    2  A    between atoms: C_8  and  N_12
REMARK    3  A    between atoms: C_14  and  C_15
REMARK    4  A    between atoms: C_15  and  C_16
REMARK    5  A    between atoms: N_24  and  C_25
REMARK                            x       y       z     vdW  Elec       q    Type
REMARK                         _______ _______ _______ _____ _____    ______ ____
ROOT
ATOM      4  C   UNL     1      -2.153   0.725  24.151  0.00  0.00    +0.156 C 
ATOM      5  C   UNL     1      -2.006   1.326  23.606  0.00  0.00    +0.166 C 
ATOM      6  O   UNL     1      -1.200   1.318  23.430  0.00  0.00    -0.350 OA
ATOM      7  C   UNL     1      -0.850   0.713  23.866  0.00  0.00    +0.169 C 
ATOM      8  C   UNL     1      -0.135   0.333  24.027  0.00  0.00    +0.166 C 
ATOM      9  C   UNL     1      -0.283  -0.268  24.572  0.00  0.00    +0.169 C 
ATOM     10  O   UNL     1      -1.088  -0.260  24.748  0.00  0.00    -0.350 OA
ATOM     11  C   UNL     1      -1.439   0.346  24.312  0.00  0.00    +0.167 C 
ENDROOT
BRANCH   8  12
ATOM     12  N   UNL     1       0.599   0.522  23.700  0.00  0.00    -0.227 N 
ATOM     13  C   UNL     1       1.036   0.049  23.183  0.00  0.00    +0.113 A 
ATOM     14  C   UNL     1       1.731   0.452  22.996  0.00  0.00    +0.101 A 
ATOM     22  N   UNL     1       1.724   1.172  23.397  0.00  0.00    -0.133 NA
ATOM     23  N   UNL     1       1.024   1.216  23.831  0.00  0.00    -0.064 NA
BRANCH  14  15
ATOM     15  C   UNL     1       2.329   0.180  22.496  0.00  0.00    +0.049 C 
BRANCH  15  16
ATOM     16  C   UNL     1       3.117   0.216  22.737  0.00  0.00    +0.006 C 
ATOM     17  C   UNL     1       3.449  -0.413  23.153  0.00  0.00    +0.000 C 
ATOM     18  C   UNL     1       4.237  -0.377  23.394  0.00  0.00    +0.000 C 
ATOM     19  C   UNL     1       4.692   0.288  23.220  0.00  0.00    +0.000 C 
ATOM     20  C   UNL     1       4.359   0.919  22.804  0.00  0.00    +0.000 C 
ATOM     21  C   UNL     1       3.571   0.883  22.563  0.00  0.00    +0.000 C 
ENDBRANCH  15  16
ENDBRANCH  14  15
ENDBRANCH   8  12
BRANCH   4   3
ATOM      1  O   UNL     1      -3.259   1.916  24.437  0.00  0.00    -0.249 OA
ATOM      2  C   UNL     1      -3.441   1.131  24.622  0.00  0.00    +0.344 C 
ATOM      3  N   UNL     1      -2.887   0.536  24.478  0.00  0.00    -0.184 NA
ATOM     24  N   UNL     1      -4.174   0.943  24.948  0.00  0.00    -0.161 NA
BRANCH  24  25
ATOM     25  C   UNL     1      -4.727   1.538  25.092  0.00  0.00    +0.075 A 
ATOM     26  C   UNL     1      -4.547   2.153  25.611  0.00  0.00    +0.017 A 
ATOM     27  C   UNL     1      -5.100   2.748  25.754  0.00  0.00    +0.001 A 
ATOM     28  C   UNL     1      -5.834   2.727  25.378  0.00  0.00    +0.000 A 
ATOM     29  C   UNL     1      -6.015   2.112  24.859  0.00  0.00    +0.001 A 
ATOM     30  C   UNL     1      -5.461   1.517  24.716  0.00  0.00    +0.017 A 
ENDBRANCH  24  25
ENDBRANCH   4   3
TORSDOF 5
ENDMDL
MODEL 8
REMARK VINA RESULT:      -9.0      3.086      4.720
REMARK  Name = 
REMARK  5 active torsions:
REMARK  status: ('A' for Active; 'I' for Inactive)
REMARK    1  A    between atoms: N_3  and  C_4
REMARK    2  A    between atoms: C_8  and  N_12
REMARK    3  A    between atoms: C_14  and  C_15
REMARK    4  A    between atoms: C_15  and  C_16
REMARK    5  A    between atoms: N_24  and  C_25
REMARK                            x       y       z     vdW  Elec       q    Type
REMARK                         _______ _______ _______ _____ _____    ______ ____
ROOT
ATOM      4  C   UNL     1      -0.255   2.211  24.988  0.00  0.00    +0.156 C 
ATOM      5  C   UNL     1      -0.806   1.635  25.200  0.00  0.00    +0.166 C 
ATOM      6  O   UNL     1      -1.518   2.015  25.371  0.00  0.00    -0.350 OA
ATOM      7  C   UNL     1      -1.407   2.825  25.264  0.00  0.00    +0.169 C 
ATOM      8  C   UNL     1      -1.777   3.561  25.304  0.00  0.00    +0.166 C 
ATOM      9  C   UNL     1      -1.226   4.137  25.092  0.00  0.00    +0.169 C 
ATOM     10  O   UNL     1      -0.514   3.757  24.921  0.00  0.00    -0.350 OA
ATOM     11  C   UNL     1      -0.626   2.946  25.028  0.00  0.00    +0.167 C 
ENDROOT
BRANCH   8  12
ATOM     12  N   UNL     1      -2.563   3.697  25.518  0.00  0.00    -0.227 N 
ATOM     13  C   UNL     1      -3.225   3.565  25.044  0.00  0.00    +0.113 A 
ATOM     14  C   UNL     1      -3.895   3.776  25.476  0.00  0.00    +0.101 A 
ATOM     22  N   UNL     1      -3.647   4.038  26.218  0.00  0.00    -0.133 NA
ATOM     23  N   UNL     1      -2.824   3.990  26.243  0.00  0.00    -0.064 NA
BRANCH  14  15
ATOM     15  C   UNL     1      -4.676   3.731  25.214  0.00  0.00    +0.049 C 
BRANCH  15  16
ATOM     16  C   UNL     1      -5.094   3.023  25.279  0.00  0.00    +0.006 C 
ATOM     17  C   UNL     1      -5.073   2.474  24.665  0.00  0.00    +0.000 C 
ATOM     18  C   UNL     1      -5.491   1.766  24.730  0.00  0.00    +0.000 C 
ATOM     19  C   UNL     1      -5.929   1.607  25.411  0.00  0.00    +0.000 C 
ATOM     20  C   UNL     1      -5.950   2.157  26.026  0.00  0.00    +0.000 C 
ATOM     21  C   UNL     1      -5.532   2.865  25.960  0.00  0.00    +0.000 C 
ENDBRANCH  15  16
ENDBRANCH  14  15
ENDBRANCH   8  12
BRANCH   4   3
ATOM      1  O   UNL     1       0.101   1.099  23.822  0.00  0.00    -0.249 OA
ATOM      2  C   UNL     1       0.709   1.519  24.191  0.00  0.00    +0.344 C 
ATOM      3  N   UNL     1       0.531   2.075  24.774  0.00  0.00    -0.184 NA
ATOM     24  N   UNL     1       1.494   1.383  23.977  0.00  0.00    -0.161 NA
BRANCH  24  25
ATOM     25  C   UNL     1       1.672   0.827  23.394  0.00  0.00    +0.075 A 
ATOM     26  C   UNL     1       1.111   0.264  23.174  0.00  0.00    +0.017 A 
ATOM     27  C   UNL     1       1.290  -0.292  22.591  0.00  0.00    +0.001 A 
ATOM     28  C   UNL     1       2.030  -0.284  22.227  0.00  0.00    +0.000 A 
ATOM     29  C   UNL     1       2.592   0.279  22.447  0.00  0.00    +0.001 A 
ATOM     30  C   UNL     1       2.413   0.834  23.030  0.00  0.00    +0.017 A 
ENDBRANCH  24  25
ENDBRANCH   4   3
TORSDOF 5
ENDMDL
MODEL 9
REMARK VINA RESULT:      -8.9      2.291      3.004
REMARK  Name = 
REMARK  5 active torsions:
REMARK  status: ('A' for Active; 'I' for Inactive)
REMARK    1  A    between atoms: N_3  and  C_4
REMARK    2  A    between atoms: C_8  and  N_12
REMARK    3  A    between atoms: C_14  and  C_15
REMARK    4  A    between atoms: C_15  and  C_16
REMARK    5  A    between atoms: N_24  and  C_25
REMARK                            x       y       z     vdW  Elec       q    Type
REMARK                         _______ _______ _______ _____ _____    ______ ____
ROOT
ATOM      4  C   UNL     1      -1.025  -0.266  25.089  0.00  0.00    +0.156 C 
ATOM      5  C   UNL     1      -1.355   0.070  25.766  0.00  0.00    +0.166 C 
ATOM      6  O   UNL     1      -1.178   0.876  25.762  0.00  0.00    -0.350 OA
ATOM      7  C   UNL     1      -0.739   1.038  25.084  0.00  0.00    +0.169 C 
ATOM      8  C   UNL     1      -0.358   1.635  24.661  0.00  0.00    +0.166 C 
ATOM      9  C   UNL     1      -0.027   1.299  23.984  0.00  0.00    +0.169 C 
ATOM     10  O   UNL     1      -0.204   0.493  23.988  0.00  0.00    -0.350 OA
ATOM     11  C   UNL     1      -0.644   0.332  24.667  0.00  0.00    +0.167 C 
ENDROOT
BRANCH   8  12
ATOM     12  N   UNL     1      -0.314   2.430  24.878  0.00  0.00    -0.227 N 
ATOM     13  C   UNL     1      -0.923   2.984  24.817  0.00  0.00    +0.113 A 
ATOM     14  C   UNL     1      -0.640   3.706  25.096  0.00  0.00    +0.101 A 
ATOM     22  N   UNL     1       0.144   3.600  25.329  0.00  0.00    -0.133 NA
ATOM     23  N   UNL     1       0.345   2.811  25.195  0.00  0.00    -0.064 NA
BRANCH  14  15
ATOM     15  C   UNL     1      -1.066   4.412  25.134  0.00  0.00    +0.049 C 
BRANCH  15  16
ATOM     16  C   UNL     1      -1.872   4.399  25.310  0.00  0.00    +0.006 C 
ATOM     17  C   UNL     1      -2.427   4.430  24.702  0.00  0.00    +0.000 C 
ATOM     18  C   UNL     1      -3.233   4.417  24.878  0.00  0.00    +0.000 C 
ATOM     19  C   UNL     1      -3.483   4.372  25.663  0.00  0.00    +0.000 C 
ATOM     20  C   UNL     1      -2.927   4.340  26.272  0.00  0.00    +0.000 C 
ATOM     21  C   UNL     1      -2.121   4.354  26.095  0.00  0.00    +0.000 C 
ENDBRANCH  15  16
ENDBRANCH  14  15
ENDBRANCH   8  12
BRANCH   4   3
ATOM      1  O   UNL     1      -2.495  -0.994  24.913  0.00  0.00    -0.249 OA
ATOM      2  C   UNL     1      -1.803  -1.426  24.784  0.00  0.00    +0.344 C 
ATOM      3  N   UNL     1      -1.068  -1.061  24.871  0.00  0.00    -0.184 NA
ATOM     24  N   UNL     1      -1.846  -2.220  24.567  0.00  0.00    -0.161 NA
BRANCH  24  25
ATOM     25  C   UNL     1      -2.581  -2.585  24.479  0.00  0.00    +0.075 A 
ATOM     26  C   UNL     1      -2.981  -2.540  23.759  0.00  0.00    +0.017 A 
ATOM     27  C   UNL     1      -3.716  -2.905  23.671  0.00  0.00    +0.001 A 
ATOM     28  C   UNL     1      -4.051  -3.314  24.304  0.00  0.00    +0.000 A 
ATOM     29  C   UNL     1      -3.651  -3.359  25.025  0.00  0.00    +0.001 A 
ATOM     30  C   UNL     1      -2.917  -2.994  25.112  0.00  0.00    +0.017 A 
ENDBRANCH  24  25
ENDBRANCH   4   3
TORSDOF 5
ENDMDL
MODEL 10
REMARK VINA RESULT:      -7.6     14.431     16.539
REMARK  Name = 
REMARK  5 active torsions:
REMARK  status: ('A' for Active; 'I' for Inactive)
REMARK    1  A    between atoms: N_3  and  C_4
REMARK    2  A    between atoms: C_8  and  N_12
REMARK    3  A    between atoms: C_14  and  C_15
REMARK    4  A    between atoms: C_15  and  C_16
REMARK    5  A    between atoms: N_24  and  C_25
REMARK                            x       y       z     vdW  Elec       q    Type
REMARK                         _______ _______ _______ _____ _____    ______ ____
ROOT
ATOM      4  C   UNL     1      -5.136 -10.363  13.213  0.00  0.00    +0.156 C 
ATOM      5  C   UNL     1      -5.844  -9.957  13.099  0.00  0.00    +0.166 C 
ATOM      6  O   UNL     1      -6.174  -9.807  13.840  0.00  0.00    -0.350 OA
ATOM      7  C   UNL     1      -5.670 -10.121  14.412  0.00  0.00    +0.169 C 
ATOM      8  C   UNL     1      -5.562 -10.224  15.223  0.00  0.00    +0.166 C 
ATOM      9  C   UNL     1      -4.853 -10.631  15.337  0.00  0.00    +0.169 C 
ATOM     10  O   UNL     1      -4.524 -10.780  14.596  0.00  0.00    -0.350 OA
ATOM     11  C   UNL     1      -5.029 -10.465  14.024  0.00  0.00    +0.167 C 
ENDROOT
BRANCH   8  12
ATOM     12  N   UNL     1      -6.073  -9.964  15.817  0.00  0.00    -0.227 N 
ATOM     13  C   UNL     1      -6.813 -10.284  15.995  0.00  0.00    +0.113 A 
ATOM     14  C   UNL     1      -7.130  -9.856  16.624  0.00  0.00    +0.101 A 
ATOM     22  N   UNL     1      -6.588  -9.273  16.836  0.00  0.00    -0.133 NA
ATOM     23  N   UNL     1      -5.934  -9.339  16.337  0.00  0.00    -0.064 NA
BRANCH  14  15
ATOM     15  C   UNL     1      -7.863  -9.990  16.980  0.00  0.00    +0.049 C 
BRANCH  15  16
ATOM     16  C   UNL     1      -8.500  -9.493  16.811  0.00  0.00    +0.006 C 
ATOM     17  C   UNL     1      -8.650  -8.839  17.290  0.00  0.00    +0.000 C 
ATOM     18  C   UNL     1      -9.287  -8.342  17.121  0.00  0.00    +0.000 C 
ATOM     19  C   UNL     1      -9.773  -8.500  16.474  0.00  0.00    +0.000 C 
ATOM     20  C   UNL     1      -9.623  -9.155  15.995  0.00  0.00    +0.000 C 
ATOM     21  C   UNL     1      -8.986  -9.652  16.164  0.00  0.00    +0.000 C 
ENDBRANCH  15  16
ENDBRANCH  14  15
ENDBRANCH   8  12
BRANCH   4   3
ATOM      1  O   UNL     1      -4.967  -9.484  11.827  0.00  0.00    -0.249 OA
ATOM      2  C   UNL     1      -4.540 -10.184  11.926  0.00  0.00    +0.344 C 
ATOM      3  N   UNL     1      -4.625 -10.623  12.619  0.00  0.00    -0.184 NA
ATOM     24  N   UNL     1      -4.030 -10.443  11.333  0.00  0.00    -0.161 NA
BRANCH  24  25
ATOM     25  C   UNL     1      -3.945 -10.003  10.640  0.00  0.00    +0.075 A 
ATOM     26  C   UNL     1      -3.367  -9.417  10.591  0.00  0.00    +0.017 A 
ATOM     27  C   UNL     1      -3.283  -8.978   9.897  0.00  0.00    +0.001 A 
ATOM     28  C   UNL     1      -3.776  -9.125   9.253  0.00  0.00    +0.000 A 
ATOM     29  C   UNL     1      -4.354  -9.712   9.302  0.00  0.00    +0.001 A 
ATOM     30  C   UNL     1      -4.438 -10.151   9.995  0.00  0.00    +0.017 A 
ENDBRANCH  24  25
ENDBRANCH   4   3
TORSDOF 5
ENDMDL
