MODEL 1
REMARK VINA RESULT:      -8.1      0.000      0.000
REMARK  Name = 
REMARK  7 active torsions:
REMARK  status: ('A' for Active; 'I' for Inactive)
REMARK    1  A    between atoms: C_3  and  C_4
REMARK    2  A    between atoms: C_4  and  N_5
REMARK    3  A    between atoms: N_8  and  C_9
REMARK    4  A    between atoms: C_17  and  N_18
REMARK    5  A    between atoms: N_18  and  C_19
REMARK    6  A    between atoms: C_19  and  C_20
REMARK    7  A    between atoms: C_23  and  C_26
REMARK                            x       y       z     vdW  Elec       q    Type
REMARK                         _______ _______ _______ _____ _____    ______ ____
ROOT
ATOM      1  O   UNL     1      -0.707   2.110  24.440  0.00  0.00    -0.219 OA
ATOM      2  C   UNL     1      -0.834   1.345  24.158  0.00  0.00    +0.199 C 
ATOM      3  C   UNL     1      -0.260   0.845  23.839  0.00  0.00    +0.169 C 
ATOM     15  O   UNL     1      -0.627   0.137  23.629  0.00  0.00    -0.350 OA
ATOM     16  C   UNL     1      -1.428   0.199  23.816  0.00  0.00    +0.162 C 
ATOM     17  C   UNL     1      -1.556   0.947  24.143  0.00  0.00    +0.135 C 
ENDROOT
BRANCH   3   4
ATOM      4  C   UNL     1       0.541   1.022  23.749  0.00  0.00    +0.149 C 
BRANCH   4   5
ATOM      5  N   UNL     1       1.022   0.530  23.292  0.00  0.00    -0.184 NA
ATOM      6  C   UNL     1       1.842   0.625  23.310  0.00  0.00    +0.344 C 
ATOM      7  O   UNL     1       2.180   1.210  23.783  0.00  0.00    -0.249 OA
ATOM      8  N   UNL     1       2.323   0.134  22.853  0.00  0.00    -0.161 NA
BRANCH   8   9
ATOM      9  C   UNL     1       3.142   0.229  22.871  0.00  0.00    +0.075 A 
ATOM     10  C   UNL     1       3.493   0.867  22.483  0.00  0.00    +0.017 A 
ATOM     11  C   UNL     1       4.313   0.960  22.501  0.00  0.00    +0.001 A 
ATOM     12  C   UNL     1       4.781   0.417  22.907  0.00  0.00    +0.000 A 
ATOM     13  C   UNL     1       4.431  -0.221  23.295  0.00  0.00    +0.001 A 
ATOM     14  C   UNL     1       3.612  -0.316  23.277  0.00  0.00    +0.017 A 
ENDBRANCH   8   9
ENDBRANCH   4   5
ENDBRANCH   3   4
BRANCH  17  18
ATOM     18  N   UNL     1      -2.278   1.242  24.409  0.00  0.00    -0.209 NA
BRANCH  18  19
ATOM     19  C   UNL     1      -2.983   0.949  24.098  0.00  0.00    +0.115 C 
BRANCH  19  20
ATOM     20  C   UNL     1      -3.707   1.218  24.391  0.00  0.00    -0.005 A 
ATOM     21  C   UNL     1      -4.156   0.736  24.888  0.00  0.00    -0.003 A 
ATOM     22  C   UNL     1      -4.879   1.005  25.180  0.00  0.00    +0.006 A 
ATOM     23  C   UNL     1      -5.154   1.755  24.975  0.00  0.00    +0.080 A 
ATOM     24  C   UNL     1      -4.705   2.237  24.478  0.00  0.00    +0.006 A 
ATOM     25  C   UNL     1      -3.981   1.968  24.185  0.00  0.00    -0.003 A 
BRANCH  23  26
ATOM     26  C   UNL     1      -5.876   2.024  25.267  0.00  0.00    +0.388 C 
ATOM     27  O   UNL     1      -6.579   1.799  24.897  0.00  0.00    -0.241 OA
ATOM     28  O   UNL     1      -5.898   2.518  25.927  0.00  0.00    -0.241 OA
ENDBRANCH  23  26
ENDBRANCH  19  20
ENDBRANCH  18  19
ENDBRANCH  17  18
TORSDOF 7
ENDMDL
MODEL 2
REMARK VINA RESULT:      -8.0      1.240      7.355
REMARK  Name = 
REMARK  7 active torsions:
REMARK  status: ('A' for Active; 'I' for Inactive)
REMARK    1  A    between atoms: C_3  and  C_4
REMARK    2  A    between atoms: C_4  and  N_5
REMARK    3  A    between atoms: N_8  and  C_9
REMARK    4  A    between atoms: C_17  and  N_18
REMARK    5  A    between atoms: N_18  and  C_19
REMARK    6  A    between atoms: C_19  and  C_20
REMARK    7  A    between atoms: C_23  and  C_26
REMARK                            x       y       z     vdW  Elec       q    Type
REMARK                         _______ _______ _______ _____ _____    ______ ____
ROOT
ATOM      1  O   UNL     1       0.599   1.814  24.314  0.00  0.00    -0.219 OA
ATOM      2  C   UNL     1       0.405   1.130  23.895  0.00  0.00    +0.199 C 
ATOM      3  C   UNL     1      -0.345   0.788  23.846  0.00  0.00    +0.169 C 
ATOM     15  O   UNL     1      -0.288   0.115  23.373  0.00  0.00    -0.350 OA
ATOM     16  C   UNL     1       0.497   0.041  23.128  0.00  0.00    +0.162 C 
ATOM     17  C   UNL     1       0.925   0.669  23.451  0.00  0.00    +0.135 C 
ENDROOT
BRANCH   3   4
ATOM      4  C   UNL     1      -1.030   1.070  24.208  0.00  0.00    +0.149 C 
BRANCH   4   5
ATOM      5  N   UNL     1      -1.763   0.964  23.841  0.00  0.00    -0.184 NA
ATOM      6  C   UNL     1      -2.454   1.196  24.228  0.00  0.00    +0.344 C 
ATOM      7  O   UNL     1      -2.413   1.534  24.979  0.00  0.00    -0.249 OA
ATOM      8  N   UNL     1      -3.186   1.090  23.862  0.00  0.00    -0.161 NA
BRANCH   8   9
ATOM      9  C   UNL     1      -3.877   1.322  24.248  0.00  0.00    +0.075 A 
ATOM     10  C   UNL     1      -4.141   2.102  24.190  0.00  0.00    +0.017 A 
ATOM     11  C   UNL     1      -4.832   2.333  24.577  0.00  0.00    +0.001 A 
ATOM     12  C   UNL     1      -5.259   1.786  25.021  0.00  0.00    +0.000 A 
ATOM     13  C   UNL     1      -4.996   1.006  25.079  0.00  0.00    +0.001 A 
ATOM     14  C   UNL     1      -4.305   0.774  24.693  0.00  0.00    +0.017 A 
ENDBRANCH   8   9
ENDBRANCH   4   5
ENDBRANCH   3   4
BRANCH  17  18
ATOM     18  N   UNL     1       1.731   0.810  23.349  0.00  0.00    -0.209 NA
BRANCH  18  19
ATOM     19  C   UNL     1       2.182   0.302  22.881  0.00  0.00    +0.115 C 
BRANCH  19  20
ATOM     20  C   UNL     1       3.000   0.259  22.988  0.00  0.00    -0.005 A 
ATOM     21  C   UNL     1       3.478   0.897  22.779  0.00  0.00    -0.003 A 
ATOM     22  C   UNL     1       4.295   0.853  22.887  0.00  0.00    +0.006 A 
ATOM     23  C   UNL     1       4.633   0.171  23.204  0.00  0.00    +0.080 A 
ATOM     24  C   UNL     1       4.154  -0.468  23.413  0.00  0.00    +0.006 A 
ATOM     25  C   UNL     1       3.337  -0.424  23.306  0.00  0.00    -0.003 A 
BRANCH  23  26
ATOM     26  C   UNL     1       5.449   0.126  23.312  0.00  0.00    +0.388 C 
ATOM     27  O   UNL     1       5.789   0.406  24.010  0.00  0.00    -0.241 OA
ATOM     28  O   UNL     1       5.927  -0.199  22.723  0.00  0.00    -0.241 OA
ENDBRANCH  23  26
ENDBRANCH  19  20
ENDBRANCH  18  19
ENDBRANCH  17  18
TORSDOF 7
ENDMDL
MODEL 3
REMARK VINA RESULT:      -7.6      4.179      5.393
REMARK  Name = 
REMARK  7 active torsions:
REMARK  status: ('A' for Active; 'I' for Inactive)
REMARK    1  A    between atoms: C_3  and  C_4
REMARK    2  A    between atoms: C_4  and  N_5
REMARK    3  A    between atoms: N_8  and  C_9
REMARK    4  A    between atoms: C_17  and  N_18
REMARK    5  A    between atoms: N_18  and  C_19
REMARK    6  A    between atoms: C_19  and  C_20
REMARK    7  A    between atoms: C_23  and  C_26
REMARK                            x       y       z     vdW  Elec       q    Type
REMARK                         _______ _______ _______ _____ _____    ______ ____
ROOT
ATOM      1  O   UNL     1      -3.756   1.726  23.928  0.00  0.00    -0.219 OA
ATOM      2  C   UNL     1      -4.319   1.777  24.529  0.00  0.00    +0.199 C 
ATOM      3  C   UNL     1      -4.542   2.465  24.927  0.00  0.00    +0.169 C 
ATOM     15  O   UNL     1      -5.118   2.264  25.482  0.00  0.00    -0.350 OA
ATOM     16  C   UNL     1      -5.252   1.452  25.427  0.00  0.00    +0.162 C 
ATOM     17  C   UNL     1      -4.758   1.151  24.838  0.00  0.00    +0.135 C 
ENDROOT
BRANCH   3   4
ATOM      4  C   UNL     1      -4.240   3.221  24.794  0.00  0.00    +0.149 C 
BRANCH   4   5
ATOM      5  N   UNL     1      -3.698   3.549  25.324  0.00  0.00    -0.184 NA
ATOM      6  C   UNL     1      -3.035   3.949  25.040  0.00  0.00    +0.344 C 
ATOM      7  O   UNL     1      -2.913   4.022  24.228  0.00  0.00    -0.249 OA
ATOM      8  N   UNL     1      -2.493   4.276  25.571  0.00  0.00    -0.161 NA
BRANCH   8   9
ATOM      9  C   UNL     1      -1.830   4.676  25.287  0.00  0.00    +0.075 A 
ATOM     10  C   UNL     1      -1.861   5.491  25.162  0.00  0.00    +0.017 A 
ATOM     11  C   UNL     1      -1.197   5.890  24.879  0.00  0.00    +0.001 A 
ATOM     12  C   UNL     1      -0.503   5.476  24.720  0.00  0.00    +0.000 A 
ATOM     13  C   UNL     1      -0.471   4.661  24.845  0.00  0.00    +0.001 A 
ATOM     14  C   UNL     1      -1.134   4.260  25.129  0.00  0.00    +0.017 A 
ENDBRANCH   8   9
ENDBRANCH   4   5
ENDBRANCH   3   4
BRANCH  17  18
ATOM     18  N   UNL     1      -4.712   0.363  24.600  0.00  0.00    -0.209 NA
BRANCH  18  19
ATOM     19  C   UNL     1      -4.589  -0.230  25.159  0.00  0.00    +0.115 C 
BRANCH  19  20
ATOM     20  C   UNL     1      -4.188  -0.921  24.947  0.00  0.00    -0.005 A 
ATOM     21  C   UNL     1      -4.360  -1.294  24.232  0.00  0.00    -0.003 A 
ATOM     22  C   UNL     1      -3.959  -1.984  24.021  0.00  0.00    +0.006 A 
ATOM     23  C   UNL     1      -3.388  -2.300  24.525  0.00  0.00    +0.080 A 
ATOM     24  C   UNL     1      -3.217  -1.927  25.241  0.00  0.00    +0.006 A 
ATOM     25  C   UNL     1      -3.617  -1.236  25.452  0.00  0.00    -0.003 A 
BRANCH  23  26
ATOM     26  C   UNL     1      -2.987  -2.990  24.314  0.00  0.00    +0.388 C 
ATOM     27  O   UNL     1      -3.406  -3.693  24.210  0.00  0.00    -0.241 OA
ATOM     28  O   UNL     1      -2.170  -2.977  24.209  0.00  0.00    -0.241 OA
ENDBRANCH  23  26
ENDBRANCH  19  20
ENDBRANCH  18  19
ENDBRANCH  17  18
TORSDOF 7
ENDMDL
MODEL 4
REMARK VINA RESULT:      -6.4     17.604     19.171
REMARK  Name = 
REMARK  7 active torsions:
REMARK  status: ('A' for Active; 'I' for Inactive)
REMARK    1  A    between atoms: C_3  and  C_4
REMARK    2  A    between atoms: C_4  and  N_5
REMARK    3  A    between atoms: N_8  and  C_9
REMARK    4  A    between atoms: C_17  and  N_18
REMARK    5  A    between atoms: N_18  and  C_19
REMARK    6  A    between atoms: C_19  and  C_20
REMARK    7  A    between atoms: C_23  and  C_26
REMARK                            x       y       z     vdW  Elec       q    Type
REMARK                         _______ _______ _______ _____ _____    ______ ____
ROOT
ATOM      1  O   UNL     1      -6.475  -8.765  10.622  0.00  0.00    -0.219 OA
ATOM      2  C   UNL     1      -6.298  -8.896   9.827  0.00  0.00    +0.199 C 
ATOM      3  C   UNL     1      -6.771  -8.686   9.184  0.00  0.00    +0.169 C 
ATOM     15  O   UNL     1      -6.382  -8.920   8.495  0.00  0.00    -0.350 OA
ATOM     16  C   UNL     1      -5.669  -9.273   8.711  0.00  0.00    +0.162 C 
ATOM     17  C   UNL     1      -5.617  -9.258   9.535  0.00  0.00    +0.135 C 
ENDROOT
BRANCH   3   4
ATOM      4  C   UNL     1      -7.503  -8.310   9.224  0.00  0.00    +0.149 C 
BRANCH   4   5
ATOM      5  N   UNL     1      -7.712  -7.753   8.651  0.00  0.00    -0.184 NA
ATOM      6  C   UNL     1      -8.399  -7.305   8.743  0.00  0.00    +0.344 C 
ATOM      7  O   UNL     1      -8.877  -7.414   9.407  0.00  0.00    -0.249 OA
ATOM      8  N   UNL     1      -8.608  -6.748   8.171  0.00  0.00    -0.161 NA
BRANCH   8   9
ATOM      9  C   UNL     1      -9.295  -6.301   8.263  0.00  0.00    +0.075 A 
ATOM     10  C   UNL     1      -9.245  -5.510   8.494  0.00  0.00    +0.017 A 
ATOM     11  C   UNL     1      -9.933  -5.064   8.586  0.00  0.00    +0.001 A 
ATOM     12  C   UNL     1     -10.670  -5.407   8.447  0.00  0.00    +0.000 A 
ATOM     13  C   UNL     1     -10.719  -6.197   8.216  0.00  0.00    +0.001 A 
ATOM     14  C   UNL     1     -10.033  -6.645   8.124  0.00  0.00    +0.017 A 
ENDBRANCH   8   9
ENDBRANCH   4   5
ENDBRANCH   3   4
BRANCH  17  18
ATOM     18  N   UNL     1      -4.993  -9.554   9.987  0.00  0.00    -0.209 NA
BRANCH  18  19
ATOM     19  C   UNL     1      -4.230  -9.574   9.675  0.00  0.00    +0.115 C 
BRANCH  19  20
ATOM     20  C   UNL     1      -3.583  -9.689  10.173  0.00  0.00    -0.005 A 
ATOM     21  C   UNL     1      -3.001  -9.107  10.235  0.00  0.00    -0.003 A 
ATOM     22  C   UNL     1      -2.354  -9.223  10.733  0.00  0.00    +0.006 A 
ATOM     23  C   UNL     1      -2.288  -9.919  11.170  0.00  0.00    +0.080 A 
ATOM     24  C   UNL     1      -2.870 -10.501  11.108  0.00  0.00    +0.006 A 
ATOM     25  C   UNL     1      -3.518 -10.386  10.610  0.00  0.00    -0.003 A 
BRANCH  23  26
ATOM     26  C   UNL     1      -1.641 -10.035  11.668  0.00  0.00    +0.388 C 
ATOM     27  O   UNL     1      -1.729 -10.476  12.360  0.00  0.00    -0.241 OA
ATOM     28  O   UNL     1      -0.908  -9.712  11.476  0.00  0.00    -0.241 OA
ENDBRANCH  23  26
ENDBRANCH  19  20
ENDBRANCH  18  19
ENDBRANCH  17  18
TORSDOF 7
ENDMDL
MODEL 5
REMARK VINA RESULT:      -4.9     15.761     17.758
REMARK  Name = 
REMARK  7 active torsions:
REMARK  status: ('A' for Active; 'I' for Inactive)
REMARK    1  A    between atoms: C_3  and  C_4
REMARK    2  A    between atoms: C_4  and  N_5
REMARK    3  A    between atoms: N_8  and  C_9
REMARK    4  A    between atoms: C_17  and  N_18
REMARK    5  A    between atoms: N_18  and  C_19
REMARK    6  A    between atoms: C_19  and  C_20
REMARK    7  A    between atoms: C_23  and  C_26
REMARK                            x       y       z     vdW  Elec       q    Type
REMARK                         _______ _______ _______ _____ _____    ______ ____
ROOT
ATOM      1  O   UNL     1      11.738  -8.122  31.496  0.00  0.00    -0.219 OA
ATOM      2  C   UNL     1      11.318  -7.600  31.977  0.00  0.00    +0.199 C 
ATOM      3  C   UNL     1      10.556  -7.719  32.273  0.00  0.00    +0.169 C 
ATOM     15  O   UNL     1      10.353  -7.061  32.726  0.00  0.00    -0.350 OA
ATOM     16  C   UNL     1      10.987  -6.534  32.710  0.00  0.00    +0.162 C 
ATOM     17  C   UNL     1      11.584  -6.868  32.247  0.00  0.00    +0.135 C 
ENDROOT
BRANCH   3   4
ATOM      4  C   UNL     1      10.083  -8.381  32.140  0.00  0.00    +0.149 C 
BRANCH   4   5
ATOM      5  N   UNL     1       9.262  -8.300  32.100  0.00  0.00    -0.184 NA
ATOM      6  C   UNL     1       8.796  -8.941  31.871  0.00  0.00    +0.344 C 
ATOM      7  O   UNL     1       9.149  -9.662  31.681  0.00  0.00    -0.249 OA
ATOM      8  N   UNL     1       7.975  -8.859  31.831  0.00  0.00    -0.161 NA
BRANCH   8   9
ATOM      9  C   UNL     1       7.508  -9.500  31.602  0.00  0.00    +0.075 A 
ATOM     10  C   UNL     1       7.279  -9.582  30.814  0.00  0.00    +0.017 A 
ATOM     11  C   UNL     1       6.812 -10.223  30.586  0.00  0.00    +0.001 A 
ATOM     12  C   UNL     1       6.575 -10.781  31.144  0.00  0.00    +0.000 A 
ATOM     13  C   UNL     1       6.805 -10.698  31.933  0.00  0.00    +0.001 A 
ATOM     14  C   UNL     1       7.271 -10.058  32.162  0.00  0.00    +0.017 A 
ENDBRANCH   8   9
ENDBRANCH   4   5
ENDBRANCH   3   4
BRANCH  17  18
ATOM     18  N   UNL     1      12.317  -6.528  32.083  0.00  0.00    -0.209 NA
BRANCH  18  19
ATOM     19  C   UNL     1      12.372  -5.721  31.922  0.00  0.00    +0.115 C 
BRANCH  19  20
ATOM     20  C   UNL     1      13.109  -5.375  31.788  0.00  0.00    -0.005 A 
ATOM     21  C   UNL     1      13.562  -5.607  31.137  0.00  0.00    -0.003 A 
ATOM     22  C   UNL     1      14.298  -5.261  31.004  0.00  0.00    +0.006 A 
ATOM     23  C   UNL     1      14.584  -4.684  31.520  0.00  0.00    +0.080 A 
ATOM     24  C   UNL     1      14.131  -4.453  32.170  0.00  0.00    +0.006 A 
ATOM     25  C   UNL     1      13.394  -4.798  32.305  0.00  0.00    -0.003 A 
BRANCH  23  26
ATOM     26  C   UNL     1      15.320  -4.338  31.387  0.00  0.00    +0.388 C 
ATOM     27  O   UNL     1      15.385  -3.690  30.880  0.00  0.00    -0.241 OA
ATOM     28  O   UNL     1      15.992  -4.639  31.759  0.00  0.00    -0.241 OA
ENDBRANCH  23  26
ENDBRANCH  19  20
ENDBRANCH  18  19
ENDBRANCH  17  18
TORSDOF 7
ENDMDL
MODEL 6
REMARK VINA RESULT:      -4.9     17.953     19.409
REMARK  Name = 
REMARK  7 active torsions:
REMARK  status: ('A' for Active; 'I' for Inactive)
REMARK    1  A    between atoms: C_3  and  C_4
REMARK    2  A    between atoms: C_4  and  N_5
REMARK    3  A    between atoms: N_8  and  C_9
REMARK    4  A    between atoms: C_17  and  N_18
REMARK    5  A    between atoms: N_18  and  C_19
REMARK    6  A    between atoms: C_19  and  C_20
REMARK    7  A    between atoms: C_23  and  C_26
REMARK                            x       y       z     vdW  Elec       q    Type
REMARK                         _______ _______ _______ _____ _____    ______ ____
ROOT
ATOM      1  O   UNL     1      16.680  -6.511  25.121  0.00  0.00    -0.219 OA
ATOM      2  C   UNL     1      16.935  -6.091  25.784  0.00  0.00    +0.199 C 
ATOM      3  C   UNL     1      17.187  -5.305  25.792  0.00  0.00    +0.169 C 
ATOM     15  O   UNL     1      17.391  -5.111  26.567  0.00  0.00    -0.350 OA
ATOM     16  C   UNL     1      17.266  -5.777  27.039  0.00  0.00    +0.162 C 
ATOM     17  C   UNL     1      16.984  -6.383  26.554  0.00  0.00    +0.135 C 
ENDROOT
BRANCH   3   4
ATOM      4  C   UNL     1      17.226  -4.802  25.140  0.00  0.00    +0.149 C 
BRANCH   4   5
ATOM      5  N   UNL     1      16.789  -4.102  25.132  0.00  0.00    -0.184 NA
ATOM      6  C   UNL     1      16.878  -3.568  24.509  0.00  0.00    +0.344 C 
ATOM      7  O   UNL     1      17.403  -3.733  23.895  0.00  0.00    -0.249 OA
ATOM      8  N   UNL     1      16.440  -2.868  24.501  0.00  0.00    -0.161 NA
BRANCH   8   9
ATOM      9  C   UNL     1      16.529  -2.334  23.879  0.00  0.00    +0.075 A 
ATOM     10  C   UNL     1      15.983  -2.326  23.261  0.00  0.00    +0.017 A 
ATOM     11  C   UNL     1      16.073  -1.791  22.638  0.00  0.00    +0.001 A 
ATOM     12  C   UNL     1      16.708  -1.265  22.634  0.00  0.00    +0.000 A 
ATOM     13  C   UNL     1      17.254  -1.274  23.253  0.00  0.00    +0.001 A 
ATOM     14  C   UNL     1      17.165  -1.808  23.875  0.00  0.00    +0.017 A 
ENDBRANCH   8   9
ENDBRANCH   4   5
ENDBRANCH   3   4
BRANCH  17  18
ATOM     18  N   UNL     1      16.787  -7.145  26.797  0.00  0.00    -0.209 NA
BRANCH  18  19
ATOM     19  C   UNL     1      16.626  -7.297  27.592  0.00  0.00    +0.115 C 
BRANCH  19  20
ATOM     20  C   UNL     1      16.316  -8.027  27.819  0.00  0.00    -0.005 A 
ATOM     21  C   UNL     1      16.679  -8.725  27.568  0.00  0.00    -0.003 A 
ATOM     22  C   UNL     1      16.370  -9.455  27.795  0.00  0.00    +0.006 A 
ATOM     23  C   UNL     1      15.698  -9.488  28.273  0.00  0.00    +0.080 A 
ATOM     24  C   UNL     1      15.336  -8.791  28.524  0.00  0.00    +0.006 A 
ATOM     25  C   UNL     1      15.645  -8.060  28.297  0.00  0.00    -0.003 A 
BRANCH  23  26
ATOM     26  C   UNL     1      15.389 -10.218  28.500  0.00  0.00    +0.388 C 
ATOM     27  O   UNL     1      15.170 -10.769  27.926  0.00  0.00    -0.241 OA
ATOM     28  O   UNL     1      15.298 -10.397  29.300  0.00  0.00    -0.241 OA
ENDBRANCH  23  26
ENDBRANCH  19  20
ENDBRANCH  18  19
ENDBRANCH  17  18
TORSDOF 7
ENDMDL
MODEL 7
REMARK VINA RESULT:      -4.8     14.875     18.020
REMARK  Name = 
REMARK  7 active torsions:
REMARK  status: ('A' for Active; 'I' for Inactive)
REMARK    1  A    between atoms: C_3  and  C_4
REMARK    2  A    between atoms: C_4  and  N_5
REMARK    3  A    between atoms: N_8  and  C_9
REMARK    4  A    between atoms: C_17  and  N_18
REMARK    5  A    between atoms: N_18  and  C_19
REMARK    6  A    between atoms: C_19  and  C_20
REMARK    7  A    between atoms: C_23  and  C_26
REMARK                            x       y       z     vdW  Elec       q    Type
REMARK                         _______ _______ _______ _____ _____    ______ ____
ROOT
ATOM      1  O   UNL     1      11.231  -6.614  32.060  0.00  0.00    -0.219 OA
ATOM      2  C   UNL     1      11.385  -7.403  31.875  0.00  0.00    +0.199 C 
ATOM      3  C   UNL     1      10.865  -8.036  31.981  0.00  0.00    +0.169 C 
ATOM     15  O   UNL     1      11.243  -8.722  31.724  0.00  0.00    -0.350 OA
ATOM     16  C   UNL     1      11.997  -8.515  31.458  0.00  0.00    +0.162 C 
ATOM     17  C   UNL     1      12.084  -7.699  31.552  0.00  0.00    +0.135 C 
ENDROOT
BRANCH   3   4
ATOM      4  C   UNL     1      10.102  -7.990  32.290  0.00  0.00    +0.149 C 
BRANCH   4   5
ATOM      5  N   UNL     1       9.475  -8.356  31.897  0.00  0.00    -0.184 NA
ATOM      6  C   UNL     1       8.706  -8.277  32.185  0.00  0.00    +0.344 C 
ATOM      7  O   UNL     1       8.564  -7.833  32.865  0.00  0.00    -0.249 OA
ATOM      8  N   UNL     1       8.079  -8.643  31.792  0.00  0.00    -0.161 NA
BRANCH   8   9
ATOM      9  C   UNL     1       7.310  -8.564  32.080  0.00  0.00    +0.075 A 
ATOM     10  C   UNL     1       6.997  -9.138  32.583  0.00  0.00    +0.017 A 
ATOM     11  C   UNL     1       6.228  -9.058  32.870  0.00  0.00    +0.001 A 
ATOM     12  C   UNL     1       5.772  -8.405  32.655  0.00  0.00    +0.000 A 
ATOM     13  C   UNL     1       6.086  -7.832  32.152  0.00  0.00    +0.001 A 
ATOM     14  C   UNL     1       6.854  -7.910  31.864  0.00  0.00    +0.017 A 
ENDBRANCH   8   9
ENDBRANCH   4   5
ENDBRANCH   3   4
BRANCH  17  18
ATOM     18  N   UNL     1      12.753  -7.258  31.358  0.00  0.00    -0.209 NA
BRANCH  18  19
ATOM     19  C   UNL     1      13.325  -7.575  30.856  0.00  0.00    +0.115 C 
BRANCH  19  20
ATOM     20  C   UNL     1      13.956  -7.108  30.601  0.00  0.00    -0.005 A 
ATOM     21  C   UNL     1      13.901  -6.693  29.889  0.00  0.00    -0.003 A 
ATOM     22  C   UNL     1      14.532  -6.227  29.635  0.00  0.00    +0.006 A 
ATOM     23  C   UNL     1      15.217  -6.174  30.091  0.00  0.00    +0.080 A 
ATOM     24  C   UNL     1      15.272  -6.589  30.802  0.00  0.00    +0.006 A 
ATOM     25  C   UNL     1      14.641  -7.056  31.058  0.00  0.00    -0.003 A 
BRANCH  23  26
ATOM     26  C   UNL     1      15.848  -5.708  29.836  0.00  0.00    +0.388 C 
ATOM     27  O   UNL     1      15.892  -4.915  30.064  0.00  0.00    -0.241 OA
ATOM     28  O   UNL     1      16.434  -6.032  29.356  0.00  0.00    -0.241 OA
ENDBRANCH  23  26
ENDBRANCH  19  20
ENDBRANCH  18  19
ENDBRANCH  17  18
TORSDOF 7
ENDMDL
MODEL 8
REMARK VINA RESULT:      -4.7     18.737     19.424
REMARK  Name = 
REMARK  7 active torsions:
REMARK  status: ('A' for Active; 'I' for Inactive)
REMARK    1  A    between atoms: C_3  and  C_4
REMARK    2  A    between atoms: C_4  and  N_5
REMARK    3  A    between atoms: N_8  and  C_9
REMARK    4  A    between atoms: C_17  and  N_18
REMARK    5  A    between atoms: N_18  and  C_19
REMARK    6  A    between atoms: C_19  and  C_20
REMARK    7  A    between atoms: C_23  and  C_26
REMARK                            x       y       z     vdW  Elec       q    Type
REMARK                         _______ _______ _______ _____ _____    ______ ____
ROOT
ATOM      1  O   UNL     1      17.253  -5.196  29.524  0.00  0.00    -0.219 OA
ATOM      2  C   UNL     1      16.457  -5.294  29.717  0.00  0.00    +0.199 C 
ATOM      3  C   UNL     1      15.962  -5.895  29.442  0.00  0.00    +0.169 C 
ATOM     15  O   UNL     1      15.216  -5.781  29.773  0.00  0.00    -0.350 OA
ATOM     16  C   UNL     1      15.248  -5.111  30.252  0.00  0.00    +0.162 C 
ATOM     17  C   UNL     1      16.016  -4.809  30.218  0.00  0.00    +0.135 C 
ENDROOT
BRANCH   3   4
ATOM      4  C   UNL     1      16.177  -6.502  28.927  0.00  0.00    +0.149 C 
BRANCH   4   5
ATOM      5  N   UNL     1      15.707  -6.670  28.269  0.00  0.00    -0.184 NA
ATOM      6  C   UNL     1      15.938  -7.257  27.737  0.00  0.00    +0.344 C 
ATOM      7  O   UNL     1      16.639  -7.675  27.862  0.00  0.00    -0.249 OA
ATOM      8  N   UNL     1      15.468  -7.425  27.079  0.00  0.00    -0.161 NA
BRANCH   8   9
ATOM      9  C   UNL     1      15.699  -8.011  26.547  0.00  0.00    +0.075 A 
ATOM     10  C   UNL     1      16.166  -7.817  25.896  0.00  0.00    +0.017 A 
ATOM     11  C   UNL     1      16.397  -8.405  25.364  0.00  0.00    +0.001 A 
ATOM     12  C   UNL     1      16.161  -9.186  25.484  0.00  0.00    +0.000 A 
ATOM     13  C   UNL     1      15.694  -9.380  26.136  0.00  0.00    +0.001 A 
ATOM     14  C   UNL     1      15.463  -8.793  26.668  0.00  0.00    +0.017 A 
ENDBRANCH   8   9
ENDBRANCH   4   5
ENDBRANCH   3   4
BRANCH  17  18
ATOM     18  N   UNL     1      16.293  -4.141  30.614  0.00  0.00    -0.209 NA
BRANCH  18  19
ATOM     19  C   UNL     1      15.773  -3.533  30.811  0.00  0.00    +0.115 C 
BRANCH  19  20
ATOM     20  C   UNL     1      16.062  -2.828  31.128  0.00  0.00    -0.005 A 
ATOM     21  C   UNL     1      16.109  -2.732  31.947  0.00  0.00    -0.003 A 
ATOM     22  C   UNL     1      16.399  -2.027  32.262  0.00  0.00    +0.006 A 
ATOM     23  C   UNL     1      16.641  -1.419  31.761  0.00  0.00    +0.080 A 
ATOM     24  C   UNL     1      16.594  -1.515  30.943  0.00  0.00    +0.006 A 
ATOM     25  C   UNL     1      16.304  -2.220  30.626  0.00  0.00    -0.003 A 
BRANCH  23  26
ATOM     26  C   UNL     1      16.930  -0.714  32.077  0.00  0.00    +0.388 C 
ATOM     27  O   UNL     1      17.340  -0.184  31.594  0.00  0.00    -0.241 OA
ATOM     28  O   UNL     1      16.811  -0.538  32.873  0.00  0.00    -0.241 OA
ENDBRANCH  23  26
ENDBRANCH  19  20
ENDBRANCH  18  19
ENDBRANCH  17  18
TORSDOF 7
ENDMDL
MODEL 9
REMARK VINA RESULT:      -4.6     16.385     18.406
REMARK  Name = 
REMARK  7 active torsions:
REMARK  status: ('A' for Active; 'I' for Inactive)
REMARK    1  A    between atoms: C_3  and  C_4
REMARK    2  A    between atoms: C_4  and  N_5
REMARK    3  A    between atoms: N_8  and  C_9
REMARK    4  A    between atoms: C_17  and  N_18
REMARK    5  A    between atoms: N_18  and  C_19
REMARK    6  A    between atoms: C_19  and  C_20
REMARK    7  A    between atoms: C_23  and  C_26
REMARK                            x       y       z     vdW  Elec       q    Type
REMARK                         _______ _______ _______ _____ _____    ______ ____
ROOT
ATOM      1  O   UNL     1      12.269  -5.443  30.980  0.00  0.00    -0.219 OA
ATOM      2  C   UNL     1      12.684  -5.832  31.576  0.00  0.00    +0.199 C 
ATOM      3  C   UNL     1      12.459  -6.535  31.945  0.00  0.00    +0.169 C 
ATOM     15  O   UNL     1      13.033  -6.725  32.505  0.00  0.00    -0.350 OA
ATOM     16  C   UNL     1      13.614  -6.140  32.484  0.00  0.00    +0.162 C 
ATOM     17  C   UNL     1      13.399  -5.588  31.909  0.00  0.00    +0.135 C 
ENDROOT
BRANCH   3   4
ATOM      4  C   UNL     1      11.778  -6.971  31.781  0.00  0.00    +0.149 C 
BRANCH   4   5
ATOM      5  N   UNL     1      11.371  -7.345  32.395  0.00  0.00    -0.184 NA
ATOM      6  C   UNL     1      10.697  -7.792  32.229  0.00  0.00    +0.344 C 
ATOM      7  O   UNL     1      10.430  -7.865  31.452  0.00  0.00    -0.249 OA
ATOM      8  N   UNL     1      10.290  -8.166  32.843  0.00  0.00    -0.161 NA
BRANCH   8   9
ATOM      9  C   UNL     1       9.616  -8.612  32.677  0.00  0.00    +0.075 A 
ATOM     10  C   UNL     1       8.873  -8.254  32.675  0.00  0.00    +0.017 A 
ATOM     11  C   UNL     1       8.200  -8.702  32.509  0.00  0.00    +0.001 A 
ATOM     12  C   UNL     1       8.270  -9.507  32.346  0.00  0.00    +0.000 A 
ATOM     13  C   UNL     1       9.013  -9.865  32.349  0.00  0.00    +0.001 A 
ATOM     14  C   UNL     1       9.686  -9.419  32.514  0.00  0.00    +0.017 A 
ENDBRANCH   8   9
ENDBRANCH   4   5
ENDBRANCH   3   4
BRANCH  17  18
ATOM     18  N   UNL     1      13.823  -4.911  31.704  0.00  0.00    -0.209 NA
BRANCH  18  19
ATOM     19  C   UNL     1      14.627  -4.860  31.877  0.00  0.00    +0.115 C 
BRANCH  19  20
ATOM     20  C   UNL     1      15.057  -4.193  31.649  0.00  0.00    -0.005 A 
ATOM     21  C   UNL     1      15.461  -4.190  30.929  0.00  0.00    -0.003 A 
ATOM     22  C   UNL     1      15.891  -3.524  30.701  0.00  0.00    +0.006 A 
ATOM     23  C   UNL     1      15.917  -2.861  31.192  0.00  0.00    +0.080 A 
ATOM     24  C   UNL     1      15.513  -2.865  31.912  0.00  0.00    +0.006 A 
ATOM     25  C   UNL     1      15.083  -3.531  32.140  0.00  0.00    -0.003 A 
BRANCH  23  26
ATOM     26  C   UNL     1      16.347  -2.195  30.964  0.00  0.00    +0.388 C 
ATOM     27  O   UNL     1      16.880  -1.849  31.491  0.00  0.00    -0.241 OA
ATOM     28  O   UNL     1      16.245  -1.874  30.212  0.00  0.00    -0.241 OA
ENDBRANCH  23  26
ENDBRANCH  19  20
ENDBRANCH  18  19
ENDBRANCH  17  18
TORSDOF 7
ENDMDL
MODEL 10
REMARK VINA RESULT:      -4.4     18.786     19.340
REMARK  Name = 
REMARK  7 active torsions:
REMARK  status: ('A' for Active; 'I' for Inactive)
REMARK    1  A    between atoms: C_3  and  C_4
REMARK    2  A    between atoms: C_4  and  N_5
REMARK    3  A    between atoms: N_8  and  C_9
REMARK    4  A    between atoms: C_17  and  N_18
REMARK    5  A    between atoms: N_18  and  C_19
REMARK    6  A    between atoms: C_19  and  C_20
REMARK    7  A    between atoms: C_23  and  C_26
REMARK                            x       y       z     vdW  Elec       q    Type
REMARK                         _______ _______ _______ _____ _____    ______ ____
ROOT
ATOM      1  O   UNL     1      16.129  -6.116  27.475  0.00  0.00    -0.219 OA
ATOM      2  C   UNL     1      15.949  -6.687  28.043  0.00  0.00    +0.199 C 
ATOM      3  C   UNL     1      15.762  -7.477  27.894  0.00  0.00    +0.169 C 
ATOM     15  O   UNL     1      15.622  -7.847  28.617  0.00  0.00    -0.350 OA
ATOM     16  C   UNL     1      15.722  -7.286  29.214  0.00  0.00    +0.162 C 
ATOM     17  C   UNL     1      15.924  -6.569  28.859  0.00  0.00    +0.135 C 
ENDROOT
BRANCH   3   4
ATOM      4  C   UNL     1      15.722  -7.833  27.151  0.00  0.00    +0.149 C 
BRANCH   4   5
ATOM      5  N   UNL     1      15.588  -8.645  27.090  0.00  0.00    -0.184 NA
ATOM      6  C   UNL     1      15.375  -8.974  26.365  0.00  0.00    +0.344 C 
ATOM      7  O   UNL     1      15.295  -8.492  25.700  0.00  0.00    -0.249 OA
ATOM      8  N   UNL     1      15.241  -9.787  26.304  0.00  0.00    -0.161 NA
BRANCH   8   9
ATOM      9  C   UNL     1      15.028 -10.116  25.578  0.00  0.00    +0.075 A 
ATOM     10  C   UNL     1      15.606 -10.431  25.081  0.00  0.00    +0.017 A 
ATOM     11  C   UNL     1      15.391 -10.759  24.355  0.00  0.00    +0.001 A 
ATOM     12  C   UNL     1      14.599 -10.774  24.127  0.00  0.00    +0.000 A 
ATOM     13  C   UNL     1      14.021 -10.459  24.624  0.00  0.00    +0.001 A 
ATOM     14  C   UNL     1      14.234 -10.130  25.349  0.00  0.00    +0.017 A 
ENDBRANCH   8   9
ENDBRANCH   4   5
ENDBRANCH   3   4
BRANCH  17  18
ATOM     18  N   UNL     1      16.075  -5.859  29.251  0.00  0.00    -0.209 NA
BRANCH  18  19
ATOM     19  C   UNL     1      15.913  -5.790  30.056  0.00  0.00    +0.115 C 
BRANCH  19  20
ATOM     20  C   UNL     1      15.905  -5.046  30.414  0.00  0.00    -0.005 A 
ATOM     21  C   UNL     1      16.580  -4.571  30.394  0.00  0.00    -0.003 A 
ATOM     22  C   UNL     1      16.571  -3.828  30.752  0.00  0.00    +0.006 A 
ATOM     23  C   UNL     1      15.889  -3.559  31.129  0.00  0.00    +0.080 A 
ATOM     24  C   UNL     1      15.214  -4.034  31.149  0.00  0.00    +0.006 A 
ATOM     25  C   UNL     1      15.222  -4.778  30.791  0.00  0.00    -0.003 A 
BRANCH  23  26
ATOM     26  C   UNL     1      15.880  -2.816  31.486  0.00  0.00    +0.388 C 
ATOM     27  O   UNL     1      16.246  -2.176  31.115  0.00  0.00    -0.241 OA
ATOM     28  O   UNL     1      15.505  -2.712  32.214  0.00  0.00    -0.241 OA
ENDBRANCH  23  26
ENDBRANCH  19  20
ENDBRANCH  18  19
ENDBRANCH  17  18
TORSDOF 7
ENDMDL
