MODEL 1
REMARK VINA RESULT:      -9.9      0.000      0.000
REMARK  Name = 
REMARK  4 active torsions:
REMARK  status: ('A' for Active; 'I' for Inactive)
REMARK    1  A    between atoms: C_2  and  C_3
REMARK    2  A    between atoms: C_10  and  C_11
REMARK    3  A    between atoms: C_11  and  N_12
REMARK    4  A    between atoms: C_13  and  C_15
REMARK                            x       y       z     vdW  Elec       q    Type
REMARK                         _______ _______ _______ _____ _____    ______ ____
ROOT
ATOM      3  C   UNL     1      -3.835  -1.642  24.626  0.00  0.00    +0.016 C 
ATOM      4  C   UNL     1      -4.270  -1.360  24.046  0.00  0.00    +0.072 C 
ATOM      5  N   UNL     1      -4.049  -0.955  24.730  0.00  0.00    -0.272 NA
ATOM      6  C   UNL     1      -3.468  -1.613  25.305  0.00  0.00    +0.072 C 
ATOM      7  C   UNL     1      -3.118  -1.741  25.841  0.00  0.00    +0.017 C 
ATOM      8  C   UNL     1      -3.622  -1.239  25.294  0.00  0.00    +0.004 C 
ATOM      9  C   UNL     1      -3.792  -0.422  25.568  0.00  0.00    +0.018 C 
ATOM     10  C   UNL     1      -4.222  -0.108  25.021  0.00  0.00    +0.079 C 
ENDROOT
BRANCH   3   2
ATOM      1  C   UNL     1      -3.824  -2.888  23.925  0.00  0.00    +0.000 C 
ATOM      2  C   UNL     1      -3.567  -2.421  24.554  0.00  0.00    +0.001 C 
ENDBRANCH   3   2
BRANCH  10  11
ATOM     11  C   UNL     1      -4.612   0.588  24.814  0.00  0.00    +0.131 C 
BRANCH  11  12
ATOM     12  N   UNL     1      -4.228   1.315  24.888  0.00  0.00    -0.198 NA
ATOM     13  C   UNL     1      -4.642   2.015  24.753  0.00  0.00    +0.300 C 
ATOM     14  O   UNL     1      -5.440   1.990  24.545  0.00  0.00    -0.265 OA
BRANCH  13  15
ATOM     15  C   UNL     1      -4.258   2.741  24.827  0.00  0.00    +0.200 A 
ATOM     16  C   UNL     1      -3.923   3.178  24.212  0.00  0.00    +0.046 A 
ATOM     17  C   UNL     1      -3.600   3.865  24.533  0.00  0.00    +0.044 A 
ATOM     18  C   UNL     1      -3.735   3.854  25.347  0.00  0.00    +0.180 A 
ATOM     19  O   UNL     1      -4.142   3.160  25.528  0.00  0.00    -0.446 OA
ENDBRANCH  13  15
ENDBRANCH  11  12
ENDBRANCH  10  11
TORSDOF 4
ENDMDL
MODEL 2
REMARK VINA RESULT:      -9.3      1.533      4.549
REMARK  Name = 
REMARK  4 active torsions:
REMARK  status: ('A' for Active; 'I' for Inactive)
REMARK    1  A    between atoms: C_2  and  C_3
REMARK    2  A    between atoms: C_10  and  C_11
REMARK    3  A    between atoms: C_11  and  N_12
REMARK    4  A    between atoms: C_13  and  C_15
REMARK                            x       y       z     vdW  Elec       q    Type
REMARK                         _______ _______ _______ _____ _____    ______ ____
ROOT
ATOM      3  C   UNL     1      -4.753   2.648  25.183  0.00  0.00    +0.016 C 
ATOM      4  C   UNL     1      -3.995   2.647  25.007  0.00  0.00    +0.072 C 
ATOM      5  N   UNL     1      -4.493   1.989  25.023  0.00  0.00    -0.272 NA
ATOM      6  C   UNL     1      -5.447   2.328  25.296  0.00  0.00    +0.072 C 
ATOM      7  C   UNL     1      -6.076   2.211  25.425  0.00  0.00    +0.017 C 
ATOM      8  C   UNL     1      -5.235   1.998  25.197  0.00  0.00    +0.004 C 
ATOM      9  C   UNL     1      -5.083   1.149  25.033  0.00  0.00    +0.018 C 
ATOM     10  C   UNL     1      -4.342   1.105  24.854  0.00  0.00    +0.079 C 
ENDROOT
BRANCH   3   2
ATOM      1  C   UNL     1      -4.635   4.059  25.376  0.00  0.00    +0.000 C 
ATOM      2  C   UNL     1      -5.095   3.376  25.374  0.00  0.00    +0.001 C 
ENDBRANCH   3   2
BRANCH  10  11
ATOM     11  C   UNL     1      -3.753   0.571  24.636  0.00  0.00    +0.131 C 
BRANCH  11  12
ATOM     12  N   UNL     1      -3.917  -0.237  24.609  0.00  0.00    -0.198 NA
ATOM     13  C   UNL     1      -3.313  -0.775  24.447  0.00  0.00    +0.300 C 
ATOM     14  O   UNL     1      -2.545  -0.505  24.311  0.00  0.00    -0.265 OA
BRANCH  13  15
ATOM     15  C   UNL     1      -3.477  -1.583  24.420  0.00  0.00    +0.200 A 
ATOM     16  C   UNL     1      -3.228  -2.147  24.969  0.00  0.00    +0.046 A 
ATOM     17  C   UNL     1      -3.516  -2.881  24.728  0.00  0.00    +0.044 A 
ATOM     18  C   UNL     1      -3.942  -2.772  24.031  0.00  0.00    +0.180 A 
ATOM     19  O   UNL     1      -3.918  -1.970  23.840  0.00  0.00    -0.446 OA
ENDBRANCH  13  15
ENDBRANCH  11  12
ENDBRANCH  10  11
TORSDOF 4
ENDMDL
MODEL 3
REMARK VINA RESULT:      -9.1      2.035      4.658
REMARK  Name = 
REMARK  4 active torsions:
REMARK  status: ('A' for Active; 'I' for Inactive)
REMARK    1  A    between atoms: C_2  and  C_3
REMARK    2  A    between atoms: C_10  and  C_11
REMARK    3  A    between atoms: C_11  and  N_12
REMARK    4  A    between atoms: C_13  and  C_15
REMARK                            x       y       z     vdW  Elec       q    Type
REMARK                         _______ _______ _______ _____ _____    ______ ____
ROOT
ATOM      3  C   UNL     1      -1.735   3.625  25.158  0.00  0.00    +0.016 C 
ATOM      4  C   UNL     1      -2.486   3.760  25.008  0.00  0.00    +0.072 C 
ATOM      5  N   UNL     1      -2.125   3.019  25.062  0.00  0.00    -0.272 NA
ATOM      6  C   UNL     1      -1.112   3.183  25.273  0.00  0.00    +0.072 C 
ATOM      7  C   UNL     1      -0.511   2.954  25.389  0.00  0.00    +0.017 C 
ATOM      8  C   UNL     1      -1.388   2.895  25.209  0.00  0.00    +0.004 C 
ATOM      9  C   UNL     1      -1.710   2.083  25.121  0.00  0.00    +0.018 C 
ATOM     10  C   UNL     1      -2.453   2.173  24.972  0.00  0.00    +0.079 C 
ENDROOT
BRANCH   3   2
ATOM      1  C   UNL     1      -1.555   5.042  25.186  0.00  0.00    +0.000 C 
ATOM      2  C   UNL     1      -1.248   4.282  25.275  0.00  0.00    +0.001 C 
ENDBRANCH   3   2
BRANCH  10  11
ATOM     11  C   UNL     1      -3.145   1.751  24.820  0.00  0.00    +0.131 C 
BRANCH  11  12
ATOM     12  N   UNL     1      -3.139   0.926  24.835  0.00  0.00    -0.198 NA
ATOM     13  C   UNL     1      -3.841   0.507  24.730  0.00  0.00    +0.300 C 
ATOM     14  O   UNL     1      -4.550   0.911  24.609  0.00  0.00    -0.265 OA
BRANCH  13  15
ATOM     15  C   UNL     1      -3.834  -0.318  24.745  0.00  0.00    +0.200 A 
ATOM     16  C   UNL     1      -3.992  -0.817  24.107  0.00  0.00    +0.046 A 
ATOM     17  C   UNL     1      -3.924  -1.596  24.369  0.00  0.00    +0.044 A 
ATOM     18  C   UNL     1      -3.723  -1.579  25.169  0.00  0.00    +0.180 A 
ATOM     19  O   UNL     1      -3.667  -0.790  25.401  0.00  0.00    -0.446 OA
ENDBRANCH  13  15
ENDBRANCH  11  12
ENDBRANCH  10  11
TORSDOF 4
ENDMDL
MODEL 4
REMARK VINA RESULT:      -9.1      1.810      2.216
REMARK  Name = 
REMARK  4 active torsions:
REMARK  status: ('A' for Active; 'I' for Inactive)
REMARK    1  A    between atoms: C_2  and  C_3
REMARK    2  A    between atoms: C_10  and  C_11
REMARK    3  A    between atoms: C_11  and  N_12
REMARK    4  A    between atoms: C_13  and  C_15
REMARK                            x       y       z     vdW  Elec       q    Type
REMARK                         _______ _______ _______ _____ _____    ______ ____
ROOT
ATOM      3  C   UNL     1      -3.253  -1.131  24.796  0.00  0.00    +0.016 C 
ATOM      4  C   UNL     1      -2.582  -1.168  25.189  0.00  0.00    +0.072 C 
ATOM      5  N   UNL     1      -2.911  -0.492  24.848  0.00  0.00    -0.272 NA
ATOM      6  C   UNL     1      -3.812  -0.779  24.397  0.00  0.00    +0.072 C 
ATOM      7  C   UNL     1      -4.350  -0.630  24.056  0.00  0.00    +0.017 C 
ATOM      8  C   UNL     1      -3.569  -0.463  24.465  0.00  0.00    +0.004 C 
ATOM      9  C   UNL     1      -3.290   0.369  24.437  0.00  0.00    +0.018 C 
ATOM     10  C   UNL     1      -2.626   0.375  24.815  0.00  0.00    +0.079 C 
ENDROOT
BRANCH   3   2
ATOM      1  C   UNL     1      -3.372  -2.540  25.000  0.00  0.00    +0.000 C 
ATOM      2  C   UNL     1      -3.680  -1.833  24.710  0.00  0.00    +0.001 C 
ENDBRANCH   3   2
BRANCH  10  11
ATOM     11  C   UNL     1      -2.014   0.872  25.053  0.00  0.00    +0.131 C 
BRANCH  11  12
ATOM     12  N   UNL     1      -2.132   1.688  25.082  0.00  0.00    -0.198 NA
ATOM     13  C   UNL     1      -1.530   2.182  25.355  0.00  0.00    +0.300 C 
ATOM     14  O   UNL     1      -0.810   1.861  25.598  0.00  0.00    -0.265 OA
BRANCH  13  15
ATOM     15  C   UNL     1      -1.648   2.998  25.383  0.00  0.00    +0.200 A 
ATOM     16  C   UNL     1      -1.135   3.573  25.089  0.00  0.00    +0.046 A 
ATOM     17  C   UNL     1      -1.470   4.313  25.235  0.00  0.00    +0.044 A 
ATOM     18  C   UNL     1      -2.190   4.195  25.620  0.00  0.00    +0.180 A 
ATOM     19  O   UNL     1      -2.300   3.383  25.711  0.00  0.00    -0.446 OA
ENDBRANCH  13  15
ENDBRANCH  11  12
ENDBRANCH  10  11
TORSDOF 4
ENDMDL
