MODEL 1
REMARK VINA RESULT:      -9.9      0.000      0.000
REMARK  Name = 
REMARK  2 active torsions:
REMARK  status: ('A' for Active; 'I' for Inactive)
REMARK    1  A    between atoms: C_6  and  C_7
REMARK    2  A    between atoms: C_9  and  C_12
REMARK                            x       y       z     vdW  Elec       q    Type
REMARK                         _______ _______ _______ _____ _____    ______ ____
ROOT
ATOM      7  C   UNL     1      -4.406   1.342  24.689  0.00  0.00    +0.251 A 
ATOM      8  N   UNL     1      -4.427   0.580  25.005  0.00  0.00    -0.188 NA
ATOM      9  C   UNL     1      -4.001   0.084  24.502  0.00  0.00    +0.221 A 
ATOM     10  N   UNL     1      -3.717   0.539  23.876  0.00  0.00    -0.054 NA
ATOM     11  O   UNL     1      -3.967   1.316  23.991  0.00  0.00    -0.336 OA
ENDROOT
BRANCH   9  12
ATOM     12  C   UNL     1      -3.880  -0.726  24.607  0.00  0.00    +0.120 A 
ATOM     13  N   UNL     1      -3.517  -1.002  25.294  0.00  0.00    -0.238 NA
ATOM     14  C   UNL     1      -3.396  -1.811  25.400  0.00  0.00    +0.128 A 
ATOM     15  C   UNL     1      -3.639  -2.344  24.819  0.00  0.00    +0.159 A 
ATOM     16  F   UNL     1      -3.518  -3.153  24.924  0.00  0.00    -0.203 F 
ATOM     17  C   UNL     1      -4.002  -2.068  24.131  0.00  0.00    +0.033 A 
ATOM     18  C   UNL     1      -4.123  -1.258  24.026  0.00  0.00    +0.025 A 
ENDBRANCH   9  12
BRANCH   7   6
ATOM      1  C   UNL     1      -3.562   2.838  25.206  0.00  0.00    +0.090 C 
ATOM      2  N   UNL     1      -4.374   2.699  25.252  0.00  0.00    -0.265 NA
ATOM      3  C   UNL     1      -4.939   3.224  25.543  0.00  0.00    +0.073 C 
ATOM      4  C   UNL     1      -5.678   2.860  25.486  0.00  0.00    +0.019 C 
ATOM      5  C   UNL     1      -5.568   2.111  25.158  0.00  0.00    +0.027 C 
ATOM      6  C   UNL     1      -4.762   2.011  25.014  0.00  0.00    +0.138 C 
ENDBRANCH   7   6
TORSDOF 2
ENDMDL
MODEL 2
REMARK VINA RESULT:      -9.7      1.792      4.061
REMARK  Name = 
REMARK  2 active torsions:
REMARK  status: ('A' for Active; 'I' for Inactive)
REMARK    1  A    between atoms: C_6  and  C_7
REMARK    2  A    between atoms: C_9  and  C_12
REMARK                            x       y       z     vdW  Elec       q    Type
REMARK                         _______ _______ _______ _____ _____    ______ ____
ROOT
ATOM      7  C   UNL     1      -3.870  -0.264  24.351  0.00  0.00    +0.251 A 
ATOM      8  N   UNL     1      -4.371   0.218  24.795  0.00  0.00    -0.188 NA
ATOM      9  C   UNL     1      -4.237   1.000  24.570  0.00  0.00    +0.221 A 
ATOM     10  N   UNL     1      -3.654   1.001  23.987  0.00  0.00    -0.054 NA
ATOM     11  O   UNL     1      -3.427   0.221  23.852  0.00  0.00    -0.336 OA
ENDROOT
BRANCH   9  12
ATOM     12  C   UNL     1      -4.620   1.665  24.874  0.00  0.00    +0.120 A 
ATOM     13  N   UNL     1      -4.184   2.335  25.078  0.00  0.00    -0.238 NA
ATOM     14  C   UNL     1      -4.567   2.999  25.383  0.00  0.00    +0.128 A 
ATOM     15  C   UNL     1      -5.385   2.994  25.484  0.00  0.00    +0.159 A 
ATOM     16  F   UNL     1      -5.768   3.658  25.788  0.00  0.00    -0.203 F 
ATOM     17  C   UNL     1      -5.822   2.324  25.280  0.00  0.00    +0.033 A 
ATOM     18  C   UNL     1      -5.439   1.659  24.975  0.00  0.00    +0.025 A 
ENDBRANCH   9  12
BRANCH   7   6
ATOM      1  C   UNL     1      -2.888  -1.195  25.528  0.00  0.00    +0.090 C 
ATOM      2  N   UNL     1      -3.370  -1.514  24.939  0.00  0.00    -0.265 NA
ATOM      3  C   UNL     1      -3.484  -2.317  24.789  0.00  0.00    +0.073 C 
ATOM      4  C   UNL     1      -4.007  -2.385  24.154  0.00  0.00    +0.019 C 
ATOM      5  C   UNL     1      -4.215  -1.624  23.913  0.00  0.00    +0.027 C 
ATOM      6  C   UNL     1      -3.821  -1.086  24.398  0.00  0.00    +0.138 C 
ENDBRANCH   7   6
TORSDOF 2
ENDMDL
