MODEL 1
REMARK VINA RESULT:     -11.6      0.000      0.000
REMARK  Name = 
REMARK  9 active torsions:
REMARK  status: ('A' for Active; 'I' for Inactive)
REMARK    1  A    between atoms: C_2  and  C_4
REMARK    2  A    between atoms: C_6  and  C_7
REMARK    3  A    between atoms: C_7  and  C_8
REMARK    4  A    between atoms: N_10  and  C_11
REMARK    5  A    between atoms: C_19  and  C_20
REMARK    6  A    between atoms: C_20  and  N_21
REMARK    7  A    between atoms: N_21  and  S_22
REMARK    8  A    between atoms: S_22  and  C_25
REMARK    9  A    between atoms: C_25  and  C_26
REMARK                            x       y       z     vdW  Elec       q    Type
REMARK                         _______ _______ _______ _____ _____    ______ ____
ROOT
ATOM      4  C   UNL     1      -3.346   1.388  23.993  0.00  0.00    +0.006 C 
ATOM      5  C   UNL     1      -3.698   0.648  23.898  0.00  0.00    +0.005 C 
ATOM      6  C   UNL     1      -4.331   0.427  24.379  0.00  0.00    +0.027 C 
ATOM     16  C   UNL     1      -4.612   0.948  24.954  0.00  0.00    -0.048 C 
ATOM     17  C   UNL     1      -5.246   0.728  25.435  0.00  0.00    +0.026 C 
ATOM     18  C   UNL     1      -4.261   1.688  25.049  0.00  0.00    -0.033 C 
ATOM     19  C   UNL     1      -3.627   1.908  24.568  0.00  0.00    +0.041 C 
ENDROOT
BRANCH   4   2
ATOM      1  C   UNL     1      -2.846   2.059  22.835  0.00  0.00    +0.000 C 
ATOM      2  C   UNL     1      -2.712   1.608  23.512  0.00  0.00    +0.000 C 
ATOM      3  C   UNL     1      -1.945   1.377  23.710  0.00  0.00    +0.000 C 
ENDBRANCH   4   2
BRANCH   6   7
ATOM      7  C   UNL     1      -4.682  -0.312  24.284  0.00  0.00    +0.091 C 
BRANCH   7   8
ATOM      8  C   UNL     1      -4.213  -0.979  24.160  0.00  0.00    +0.242 C 
ATOM      9  O   UNL     1      -3.992  -1.191  23.394  0.00  0.00    -0.273 OA
ATOM     10  N   UNL     1      -3.963  -1.434  24.802  0.00  0.00    -0.207 NA
BRANCH  10  11
ATOM     11  C   UNL     1      -3.494  -2.101  24.677  0.00  0.00    +0.095 C 
ATOM     12  C   UNL     1      -2.681  -2.153  24.806  0.00  0.00    +0.022 C 
ATOM     13  C   UNL     1      -2.439  -2.917  24.610  0.00  0.00    +0.002 C 
ATOM     14  C   UNL     1      -3.103  -3.338  24.360  0.00  0.00    +0.002 C 
ATOM     15  C   UNL     1      -3.755  -2.834  24.401  0.00  0.00    +0.022 C 
ENDBRANCH  10  11
ENDBRANCH   7   8
ENDBRANCH   6   7
BRANCH  19  20
ATOM     20  C   UNL     1      -3.276   2.649  24.663  0.00  0.00    +0.119 C 
BRANCH  20  21
ATOM     21  N   UNL     1      -3.536   3.155  25.262  0.00  0.00    -0.081 NA
BRANCH  21  22
ATOM     22  S   UNL     1      -3.087   3.814  25.468  0.00  0.00    +0.062 S 
ATOM     23  O   UNL     1      -2.794   3.410  26.125  0.00  0.00    -0.156 OA
ATOM     24  O   UNL     1      -3.379   4.220  24.810  0.00  0.00    -0.156 OA
BRANCH  22  25
ATOM     25  C   UNL     1      -2.638   4.474  25.674  0.00  0.00    +0.197 C 
BRANCH  25  26
ATOM     26  C   UNL     1      -1.868   4.556  25.384  0.00  0.00    +0.003 A 
ATOM     27  C   UNL     1      -1.695   5.151  24.839  0.00  0.00    -0.003 A 
ATOM     28  C   UNL     1      -0.926   5.233  24.550  0.00  0.00    -0.000 A 
ATOM     29  C   UNL     1      -0.332   4.721  24.806  0.00  0.00    -0.000 A 
ATOM     30  C   UNL     1      -0.506   4.127  25.351  0.00  0.00    -0.000 A 
ATOM     31  C   UNL     1      -1.275   4.045  25.640  0.00  0.00    -0.003 A 
ENDBRANCH  25  26
ENDBRANCH  22  25
ENDBRANCH  21  22
ENDBRANCH  20  21
ENDBRANCH  19  20
TORSDOF 9
ENDMDL
MODEL 2
REMARK VINA RESULT:     -11.0      1.235      5.377
REMARK  Name = 
REMARK  9 active torsions:
REMARK  status: ('A' for Active; 'I' for Inactive)
REMARK    1  A    between atoms: C_2  and  C_4
REMARK    2  A    between atoms: C_6  and  C_7
REMARK    3  A    between atoms: C_7  and  C_8
REMARK    4  A    between atoms: N_10  and  C_11
REMARK    5  A    between atoms: C_19  and  C_20
REMARK    6  A    between atoms: C_20  and  N_21
REMARK    7  A    between atoms: N_21  and  S_22
REMARK    8  A    between atoms: S_22  and  C_25
REMARK    9  A    between atoms: C_25  and  C_26
REMARK                            x       y       z     vdW  Elec       q    Type
REMARK                         _______ _______ _______ _____ _____    ______ ____
ROOT
ATOM      4  C   UNL     1      -3.304   1.538  24.045  0.00  0.00    +0.006 C 
ATOM      5  C   UNL     1      -3.340   2.350  24.193  0.00  0.00    +0.005 C 
ATOM      6  C   UNL     1      -3.932   2.654  24.680  0.00  0.00    +0.027 C 
ATOM     16  C   UNL     1      -4.488   2.147  25.019  0.00  0.00    -0.048 C 
ATOM     17  C   UNL     1      -5.080   2.451  25.506  0.00  0.00    +0.026 C 
ATOM     18  C   UNL     1      -4.452   1.337  24.871  0.00  0.00    -0.033 C 
ATOM     19  C   UNL     1      -3.860   1.032  24.384  0.00  0.00    +0.041 C 
ENDROOT
BRANCH   4   2
ATOM      1  C   UNL     1      -1.974   1.046  23.874  0.00  0.00    +0.000 C 
ATOM      2  C   UNL     1      -2.711   1.234  23.558  0.00  0.00    +0.000 C 
ATOM      3  C   UNL     1      -2.858   1.118  22.754  0.00  0.00    +0.000 C 
ENDBRANCH   4   2
BRANCH   6   7
ATOM      7  C   UNL     1      -3.968   3.464  24.828  0.00  0.00    +0.091 C 
BRANCH   7   8
ATOM      8  C   UNL     1      -3.303   3.936  24.700  0.00  0.00    +0.242 C 
ATOM      9  O   UNL     1      -3.150   4.237  23.947  0.00  0.00    -0.273 OA
ATOM     10  N   UNL     1      -2.792   4.109  25.325  0.00  0.00    -0.207 NA
BRANCH  10  11
ATOM     11  C   UNL     1      -2.128   4.581  25.196  0.00  0.00    +0.095 C 
ATOM     12  C   UNL     1      -2.124   5.402  25.121  0.00  0.00    +0.022 C 
ATOM     13  C   UNL     1      -1.344   5.644  24.999  0.00  0.00    +0.002 C 
ATOM     14  C   UNL     1      -0.866   4.972  24.998  0.00  0.00    +0.002 C 
ATOM     15  C   UNL     1      -1.350   4.314  25.120  0.00  0.00    +0.022 C 
ENDBRANCH  10  11
ENDBRANCH   7   8
ENDBRANCH   6   7
BRANCH  19  20
ATOM     20  C   UNL     1      -3.824   0.221  24.236  0.00  0.00    +0.119 C 
BRANCH  20  21
ATOM     21  N   UNL     1      -4.312  -0.296  24.657  0.00  0.00    -0.081 NA
BRANCH  21  22
ATOM     22  S   UNL     1      -4.157  -1.106  24.649  0.00  0.00    +0.062 S 
ATOM     23  O   UNL     1      -4.344  -1.135  23.846  0.00  0.00    -0.156 OA
ATOM     24  O   UNL     1      -3.970  -1.078  25.453  0.00  0.00    -0.156 OA
BRANCH  22  25
ATOM     25  C   UNL     1      -4.002  -1.916  24.641  0.00  0.00    +0.197 C 
BRANCH  25  26
ATOM     26  C   UNL     1      -3.222  -2.187  24.635  0.00  0.00    +0.003 A 
ATOM     27  C   UNL     1      -2.908  -2.524  23.951  0.00  0.00    -0.003 A 
ATOM     28  C   UNL     1      -2.129  -2.795  23.945  0.00  0.00    -0.000 A 
ATOM     29  C   UNL     1      -1.663  -2.728  24.623  0.00  0.00    -0.000 A 
ATOM     30  C   UNL     1      -1.978  -2.391  25.307  0.00  0.00    -0.000 A 
ATOM     31  C   UNL     1      -2.757  -2.120  25.313  0.00  0.00    -0.003 A 
ENDBRANCH  25  26
ENDBRANCH  22  25
ENDBRANCH  21  22
ENDBRANCH  20  21
ENDBRANCH  19  20
TORSDOF 9
ENDMDL
MODEL 3
REMARK VINA RESULT:     -10.5      2.070      2.689
REMARK  Name = 
REMARK  9 active torsions:
REMARK  status: ('A' for Active; 'I' for Inactive)
REMARK    1  A    between atoms: C_2  and  C_4
REMARK    2  A    between atoms: C_6  and  C_7
REMARK    3  A    between atoms: C_7  and  C_8
REMARK    4  A    between atoms: N_10  and  C_11
REMARK    5  A    between atoms: C_19  and  C_20
REMARK    6  A    between atoms: C_20  and  N_21
REMARK    7  A    between atoms: N_21  and  S_22
REMARK    8  A    between atoms: S_22  and  C_25
REMARK    9  A    between atoms: C_25  and  C_26
REMARK                            x       y       z     vdW  Elec       q    Type
REMARK                         _______ _______ _______ _____ _____    ______ ____
ROOT
ATOM      4  C   UNL     1      -0.535   0.016  24.339  0.00  0.00    +0.006 C 
ATOM      5  C   UNL     1      -0.781  -0.765  24.442  0.00  0.00    +0.005 C 
ATOM      6  C   UNL     1      -1.128  -0.997  25.153  0.00  0.00    +0.027 C 
ATOM     16  C   UNL     1      -1.228  -0.449  25.762  0.00  0.00    -0.048 C 
ATOM     17  C   UNL     1      -1.575  -0.681  26.473  0.00  0.00    +0.026 C 
ATOM     18  C   UNL     1      -0.982   0.331  25.659  0.00  0.00    -0.033 C 
ATOM     19  C   UNL     1      -0.635   0.564  24.947  0.00  0.00    +0.041 C 
ENDROOT
BRANCH   4   2
ATOM      1  C   UNL     1       0.625   0.164  23.517  0.00  0.00    +0.000 C 
ATOM      2  C   UNL     1      -0.188   0.249  23.627  0.00  0.00    +0.000 C 
ATOM      3  C   UNL     1      -0.655   0.567  23.025  0.00  0.00    +0.000 C 
ENDBRANCH   4   2
BRANCH   6   7
ATOM      7  C   UNL     1      -1.374  -1.777  25.256  0.00  0.00    +0.091 C 
BRANCH   7   8
ATOM      8  C   UNL     1      -1.972  -2.087  24.780  0.00  0.00    +0.242 C 
ATOM      9  O   UNL     1      -1.781  -2.480  24.080  0.00  0.00    -0.273 OA
ATOM     10  N   UNL     1      -2.763  -2.005  25.004  0.00  0.00    -0.207 NA
BRANCH  10  11
ATOM     11  C   UNL     1      -3.361  -2.314  24.527  0.00  0.00    +0.095 C 
ATOM     12  C   UNL     1      -3.539  -3.114  24.431  0.00  0.00    +0.022 C 
ATOM     13  C   UNL     1      -4.174  -3.173  23.907  0.00  0.00    +0.002 C 
ATOM     14  C   UNL     1      -4.389  -2.409  23.681  0.00  0.00    +0.002 C 
ATOM     15  C   UNL     1      -3.887  -1.878  24.064  0.00  0.00    +0.022 C 
ENDBRANCH  10  11
ENDBRANCH   7   8
ENDBRANCH   6   7
BRANCH  19  20
ATOM     20  C   UNL     1      -0.389   1.345  24.845  0.00  0.00    +0.119 C 
BRANCH  20  21
ATOM     21  N   UNL     1      -0.676   1.937  25.344  0.00  0.00    -0.081 NA
BRANCH  21  22
ATOM     22  S   UNL     1      -0.467   2.723  25.214  0.00  0.00    +0.062 S 
ATOM     23  O   UNL     1      -0.968   2.749  24.559  0.00  0.00    -0.156 OA
ATOM     24  O   UNL     1       0.035   2.698  25.869  0.00  0.00    -0.156 OA
BRANCH  22  25
ATOM     25  C   UNL     1      -0.257   3.510  25.083  0.00  0.00    +0.197 C 
BRANCH  25  26
ATOM     26  C   UNL     1      -0.824   4.106  25.162  0.00  0.00    +0.003 A 
ATOM     27  C   UNL     1      -1.507   3.970  25.604  0.00  0.00    -0.003 A 
ATOM     28  C   UNL     1      -2.072   4.566  25.682  0.00  0.00    -0.000 A 
ATOM     29  C   UNL     1      -1.955   5.297  25.318  0.00  0.00    -0.000 A 
ATOM     30  C   UNL     1      -1.271   5.432  24.876  0.00  0.00    -0.000 A 
ATOM     31  C   UNL     1      -0.705   4.836  24.798  0.00  0.00    -0.003 A 
ENDBRANCH  25  26
ENDBRANCH  22  25
ENDBRANCH  21  22
ENDBRANCH  20  21
ENDBRANCH  19  20
TORSDOF 9
ENDMDL
MODEL 4
REMARK VINA RESULT:     -10.2      1.720      5.809
REMARK  Name = 
REMARK  9 active torsions:
REMARK  status: ('A' for Active; 'I' for Inactive)
REMARK    1  A    between atoms: C_2  and  C_4
REMARK    2  A    between atoms: C_6  and  C_7
REMARK    3  A    between atoms: C_7  and  C_8
REMARK    4  A    between atoms: N_10  and  C_11
REMARK    5  A    between atoms: C_19  and  C_20
REMARK    6  A    between atoms: C_20  and  N_21
REMARK    7  A    between atoms: N_21  and  S_22
REMARK    8  A    between atoms: S_22  and  C_25
REMARK    9  A    between atoms: C_25  and  C_26
REMARK                            x       y       z     vdW  Elec       q    Type
REMARK                         _______ _______ _______ _____ _____    ______ ____
ROOT
ATOM      4  C   UNL     1      -2.131   1.377  24.378  0.00  0.00    +0.006 C 
ATOM      5  C   UNL     1      -1.587   1.995  24.326  0.00  0.00    +0.005 C 
ATOM      6  C   UNL     1      -0.946   2.024  24.845  0.00  0.00    +0.027 C 
ATOM     16  C   UNL     1      -0.851   1.436  25.416  0.00  0.00    -0.048 C 
ATOM     17  C   UNL     1      -0.211   1.465  25.935  0.00  0.00    +0.026 C 
ATOM     18  C   UNL     1      -1.395   0.818  25.467  0.00  0.00    -0.033 C 
ATOM     19  C   UNL     1      -2.036   0.789  24.948  0.00  0.00    +0.041 C 
ENDROOT
BRANCH   4   2
ATOM      1  C   UNL     1      -2.686   0.996  23.117  0.00  0.00    +0.000 C 
ATOM      2  C   UNL     1      -2.772   1.348  23.858  0.00  0.00    +0.000 C 
ATOM      3  C   UNL     1      -3.499   1.671  24.080  0.00  0.00    +0.000 C 
ENDBRANCH   4   2
BRANCH   6   7
ATOM      7  C   UNL     1      -0.402   2.641  24.794  0.00  0.00    +0.091 C 
BRANCH   7   8
ATOM      8  C   UNL     1      -0.664   3.411  24.655  0.00  0.00    +0.242 C 
ATOM      9  O   UNL     1      -0.704   3.701  23.884  0.00  0.00    -0.273 OA
ATOM     10  N   UNL     1      -0.886   3.893  25.288  0.00  0.00    -0.207 NA
BRANCH  10  11
ATOM     11  C   UNL     1      -1.147   4.663  25.149  0.00  0.00    +0.095 C 
ATOM     12  C   UNL     1      -0.701   5.276  24.825  0.00  0.00    +0.022 C 
ATOM     13  C   UNL     1      -1.179   5.947  24.785  0.00  0.00    +0.002 C 
ATOM     14  C   UNL     1      -1.922   5.749  25.084  0.00  0.00    +0.002 C 
ATOM     15  C   UNL     1      -1.903   4.955  25.309  0.00  0.00    +0.022 C 
ENDBRANCH  10  11
ENDBRANCH   7   8
ENDBRANCH   6   7
BRANCH  19  20
ATOM     20  C   UNL     1      -2.580   0.171  24.999  0.00  0.00    +0.119 C 
BRANCH  20  21
ATOM     21  N   UNL     1      -2.488  -0.412  25.576  0.00  0.00    -0.081 NA
BRANCH  21  22
ATOM     22  S   UNL     1      -2.993  -1.064  25.587  0.00  0.00    +0.062 S 
ATOM     23  O   UNL     1      -2.371  -1.550  25.347  0.00  0.00    -0.156 OA
ATOM     24  O   UNL     1      -3.615  -0.579  25.828  0.00  0.00    -0.156 OA
BRANCH  22  25
ATOM     25  C   UNL     1      -3.497  -1.716  25.599  0.00  0.00    +0.197 C 
BRANCH  25  26
ATOM     26  C   UNL     1      -3.692  -2.099  24.893  0.00  0.00    +0.003 A 
ATOM     27  C   UNL     1      -4.305  -1.809  24.422  0.00  0.00    -0.003 A 
ATOM     28  C   UNL     1      -4.499  -2.192  23.718  0.00  0.00    -0.000 A 
ATOM     29  C   UNL     1      -4.081  -2.865  23.484  0.00  0.00    -0.000 A 
ATOM     30  C   UNL     1      -3.469  -3.154  23.956  0.00  0.00    -0.000 A 
ATOM     31  C   UNL     1      -3.275  -2.771  24.660  0.00  0.00    -0.003 A 
ENDBRANCH  25  26
ENDBRANCH  22  25
ENDBRANCH  21  22
ENDBRANCH  20  21
ENDBRANCH  19  20
TORSDOF 9
ENDMDL
MODEL 5
REMARK VINA RESULT:      -9.6      2.934      4.603
REMARK  Name = 
REMARK  9 active torsions:
REMARK  status: ('A' for Active; 'I' for Inactive)
REMARK    1  A    between atoms: C_2  and  C_4
REMARK    2  A    between atoms: C_6  and  C_7
REMARK    3  A    between atoms: C_7  and  C_8
REMARK    4  A    between atoms: N_10  and  C_11
REMARK    5  A    between atoms: C_19  and  C_20
REMARK    6  A    between atoms: C_20  and  N_21
REMARK    7  A    between atoms: N_21  and  S_22
REMARK    8  A    between atoms: S_22  and  C_25
REMARK    9  A    between atoms: C_25  and  C_26
REMARK                            x       y       z     vdW  Elec       q    Type
REMARK                         _______ _______ _______ _____ _____    ______ ____
ROOT
ATOM      4  C   UNL     1      -0.597   1.665  24.376  0.00  0.00    +0.006 C 
ATOM      5  C   UNL     1      -0.010   1.117  24.186  0.00  0.00    +0.005 C 
ATOM      6  C   UNL     1      -0.215   0.338  24.008  0.00  0.00    +0.027 C 
ATOM     16  C   UNL     1      -1.007   0.107  24.021  0.00  0.00    -0.048 C 
ATOM     17  C   UNL     1      -1.212  -0.672  23.843  0.00  0.00    +0.026 C 
ATOM     18  C   UNL     1      -1.593   0.655  24.211  0.00  0.00    -0.033 C 
ATOM     19  C   UNL     1      -1.388   1.434  24.389  0.00  0.00    +0.041 C 
ENDROOT
BRANCH   4   2
ATOM      1  C   UNL     1      -0.374   3.013  23.957  0.00  0.00    +0.000 C 
ATOM      2  C   UNL     1      -0.392   2.445  24.554  0.00  0.00    +0.000 C 
ATOM      3  C   UNL     1      -0.205   2.655  25.330  0.00  0.00    +0.000 C 
ENDBRANCH   4   2
BRANCH   6   7
ATOM      7  C   UNL     1       0.372  -0.209  23.819  0.00  0.00    +0.091 C 
BRANCH   7   8
ATOM      8  C   UNL     1       0.966  -0.008  23.282  0.00  0.00    +0.242 C 
ATOM      9  O   UNL     1       0.768   0.219  22.514  0.00  0.00    -0.273 OA
ATOM     10  N   UNL     1       1.758  -0.033  23.514  0.00  0.00    -0.207 NA
BRANCH  10  11
ATOM     11  C   UNL     1       2.351   0.169  22.978  0.00  0.00    +0.095 C 
ATOM     12  C   UNL     1       2.474  -0.176  22.239  0.00  0.00    +0.022 C 
ATOM     13  C   UNL     1       3.125   0.192  21.890  0.00  0.00    +0.002 C 
ATOM     14  C   UNL     1       3.405   0.765  22.414  0.00  0.00    +0.002 C 
ATOM     15  C   UNL     1       2.926   0.751  23.086  0.00  0.00    +0.022 C 
ENDBRANCH  10  11
ENDBRANCH   7   8
ENDBRANCH   6   7
BRANCH  19  20
ATOM     20  C   UNL     1      -1.976   1.981  24.579  0.00  0.00    +0.119 C 
BRANCH  20  21
ATOM     21  N   UNL     1      -2.768   1.749  24.589  0.00  0.00    -0.081 NA
BRANCH  21  22
ATOM     22  S   UNL     1      -3.361   2.311  24.699  0.00  0.00    +0.062 S 
ATOM     23  O   UNL     1      -3.484   2.341  23.884  0.00  0.00    -0.156 OA
ATOM     24  O   UNL     1      -3.239   2.281  25.515  0.00  0.00    -0.156 OA
BRANCH  22  25
ATOM     25  C   UNL     1      -3.954   2.873  24.809  0.00  0.00    +0.197 C 
BRANCH  25  26
ATOM     26  C   UNL     1      -4.705   2.638  25.060  0.00  0.00    +0.003 A 
ATOM     27  C   UNL     1      -5.020   2.943  25.759  0.00  0.00    -0.003 A 
ATOM     28  C   UNL     1      -5.770   2.708  26.010  0.00  0.00    -0.000 A 
ATOM     29  C   UNL     1      -6.205   2.167  25.562  0.00  0.00    -0.000 A 
ATOM     30  C   UNL     1      -5.888   1.862  24.864  0.00  0.00    -0.000 A 
ATOM     31  C   UNL     1      -5.138   2.097  24.613  0.00  0.00    -0.003 A 
ENDBRANCH  25  26
ENDBRANCH  22  25
ENDBRANCH  21  22
ENDBRANCH  20  21
ENDBRANCH  19  20
TORSDOF 9
ENDMDL
