MODEL 1
REMARK VINA RESULT:     -12.7      0.000      0.000
REMARK  Name = 
REMARK  6 active torsions:
REMARK  status: ('A' for Active; 'I' for Inactive)
REMARK    1  A    between atoms: C_5  and  C_6
REMARK    2  A    between atoms: C_6  and  C_7
REMARK    3  A    between atoms: C_10  and  C_12
REMARK    4  A    between atoms: C_20  and  C_21
REMARK    5  A    between atoms: C_21  and  N_22
REMARK    6  A    between atoms: N_22  and  C_23
REMARK                            x       y       z     vdW  Elec       q    Type
REMARK                         _______ _______ _______ _____ _____    ______ ____
ROOT
ATOM      1  O   UNL     1      -4.975   3.992  26.134  0.00  0.00    -0.220 OA
ATOM      2  C   UNL     1      -4.947   3.287  25.705  0.00  0.00    +0.180 C 
ATOM      3  C   UNL     1      -5.623   2.820  25.635  0.00  0.00    +0.038 C 
ATOM      4  C   UNL     1      -5.596   2.115  25.207  0.00  0.00    +0.033 C 
ATOM      5  C   UNL     1      -4.892   1.879  24.848  0.00  0.00    +0.121 C 
ATOM     19  O   UNL     1      -4.216   2.346  24.917  0.00  0.00    -0.354 OA
ATOM     20  C   UNL     1      -4.243   3.050  25.346  0.00  0.00    +0.163 C 
ENDROOT
BRANCH   5   6
ATOM      6  C   UNL     1      -4.864   1.174  24.419  0.00  0.00    +0.079 C 
BRANCH   6   7
ATOM      7  C   UNL     1      -4.523   0.501  24.753  0.00  0.00    +0.103 A 
ATOM      8  N   UNL     1      -4.688   0.193  25.500  0.00  0.00    -0.081 NA
ATOM      9  O   UNL     1      -4.223  -0.481  25.607  0.00  0.00    -0.354 OA
ATOM     10  C   UNL     1      -3.772  -0.589  24.926  0.00  0.00    +0.177 A 
ATOM     11  C   UNL     1      -3.957   0.018  24.398  0.00  0.00    +0.058 A 
BRANCH  10  12
ATOM     12  C   UNL     1      -3.230  -1.197  24.794  0.00  0.00    +0.037 A 
ATOM     13  C   UNL     1      -2.421  -1.041  24.818  0.00  0.00    +0.005 A 
ATOM     14  C   UNL     1      -1.879  -1.649  24.687  0.00  0.00    +0.030 A 
ATOM     15  C   UNL     1      -2.146  -2.413  24.532  0.00  0.00    +0.140 A 
ATOM     16  F   UNL     1      -1.605  -3.021  24.401  0.00  0.00    -0.204 F 
ATOM     17  C   UNL     1      -2.956  -2.571  24.508  0.00  0.00    +0.030 A 
ATOM     18  C   UNL     1      -3.498  -1.963  24.640  0.00  0.00    +0.005 A 
ENDBRANCH  10  12
ENDBRANCH   6   7
ENDBRANCH   5   6
BRANCH  20  21
ATOM     21  C   UNL     1      -3.567   3.518  25.415  0.00  0.00    +0.121 C 
BRANCH  21  22
ATOM     22  N   UNL     1      -2.991   3.498  24.826  0.00  0.00    -0.217 NA
BRANCH  22  23
ATOM     23  C   UNL     1      -2.253   3.846  24.958  0.00  0.00    +0.073 C 
ATOM     24  C   UNL     1      -2.176   4.667  24.943  0.00  0.00    +0.017 C 
ATOM     25  C   UNL     1      -1.439   5.014  25.076  0.00  0.00    +0.001 C 
ATOM     26  C   UNL     1      -0.780   4.539  25.223  0.00  0.00    +0.000 C 
ATOM     27  C   UNL     1      -0.858   3.718  25.238  0.00  0.00    +0.001 C 
ATOM     28  C   UNL     1      -1.595   3.372  25.106  0.00  0.00    +0.017 C 
ENDBRANCH  22  23
ENDBRANCH  21  22
ENDBRANCH  20  21
TORSDOF 6
ENDMDL
MODEL 2
REMARK VINA RESULT:     -12.1      1.622      4.505
REMARK  Name = 
REMARK  6 active torsions:
REMARK  status: ('A' for Active; 'I' for Inactive)
REMARK    1  A    between atoms: C_5  and  C_6
REMARK    2  A    between atoms: C_6  and  C_7
REMARK    3  A    between atoms: C_10  and  C_12
REMARK    4  A    between atoms: C_20  and  C_21
REMARK    5  A    between atoms: C_21  and  N_22
REMARK    6  A    between atoms: N_22  and  C_23
REMARK                            x       y       z     vdW  Elec       q    Type
REMARK                         _______ _______ _______ _____ _____    ______ ____
ROOT
ATOM      1  O   UNL     1      -6.168   1.240  25.717  0.00  0.00    -0.220 OA
ATOM      2  C   UNL     1      -5.617   1.744  25.365  0.00  0.00    +0.180 C 
ATOM      3  C   UNL     1      -5.728   2.560  25.393  0.00  0.00    +0.038 C 
ATOM      4  C   UNL     1      -5.178   3.064  25.042  0.00  0.00    +0.033 C 
ATOM      5  C   UNL     1      -4.516   2.751  24.663  0.00  0.00    +0.121 C 
ATOM     19  O   UNL     1      -4.404   1.935  24.635  0.00  0.00    -0.354 OA
ATOM     20  C   UNL     1      -4.955   1.430  24.986  0.00  0.00    +0.163 C 
ENDROOT
BRANCH   5   6
ATOM      6  C   UNL     1      -3.965   3.255  24.311  0.00  0.00    +0.079 C 
BRANCH   6   7
ATOM      7  C   UNL     1      -3.286   3.477  24.725  0.00  0.00    +0.103 A 
ATOM      8  N   UNL     1      -3.169   4.194  25.116  0.00  0.00    -0.081 NA
ATOM      9  O   UNL     1      -2.415   4.181  25.452  0.00  0.00    -0.354 OA
ATOM     10  C   UNL     1      -2.067   3.457  25.269  0.00  0.00    +0.177 A 
ATOM     11  C   UNL     1      -2.605   3.022  24.819  0.00  0.00    +0.058 A 
BRANCH  10  12
ATOM     12  C   UNL     1      -1.313   3.210  25.495  0.00  0.00    +0.037 A 
ATOM     13  C   UNL     1      -0.651   3.472  25.078  0.00  0.00    +0.005 A 
ATOM     14  C   UNL     1       0.103   3.225  25.304  0.00  0.00    +0.030 A 
ATOM     15  C   UNL     1       0.195   2.717  25.947  0.00  0.00    +0.140 A 
ATOM     16  F   UNL     1       0.949   2.471  26.174  0.00  0.00    -0.204 F 
ATOM     17  C   UNL     1      -0.467   2.455  26.365  0.00  0.00    +0.030 A 
ATOM     18  C   UNL     1      -1.221   2.702  26.139  0.00  0.00    +0.005 A 
ENDBRANCH  10  12
ENDBRANCH   6   7
ENDBRANCH   5   6
BRANCH  20  21
ATOM     21  C   UNL     1      -4.843   0.613  24.958  0.00  0.00    +0.121 C 
BRANCH  21  22
ATOM     22  N   UNL     1      -4.176   0.301  24.588  0.00  0.00    -0.217 NA
BRANCH  22  23
ATOM     23  C   UNL     1      -4.021  -0.509  24.631  0.00  0.00    +0.073 C 
ATOM     24  C   UNL     1      -3.629  -0.819  25.288  0.00  0.00    +0.017 C 
ATOM     25  C   UNL     1      -3.475  -1.628  25.331  0.00  0.00    +0.001 C 
ATOM     26  C   UNL     1      -3.712  -2.127  24.717  0.00  0.00    +0.000 C 
ATOM     27  C   UNL     1      -4.103  -1.816  24.061  0.00  0.00    +0.001 C 
ATOM     28  C   UNL     1      -4.258  -1.007  24.018  0.00  0.00    +0.017 C 
ENDBRANCH  22  23
ENDBRANCH  21  22
ENDBRANCH  20  21
TORSDOF 6
ENDMDL
MODEL 3
REMARK VINA RESULT:     -12.1      1.514      3.124
REMARK  Name = 
REMARK  6 active torsions:
REMARK  status: ('A' for Active; 'I' for Inactive)
REMARK    1  A    between atoms: C_5  and  C_6
REMARK    2  A    between atoms: C_6  and  C_7
REMARK    3  A    between atoms: C_10  and  C_12
REMARK    4  A    between atoms: C_20  and  C_21
REMARK    5  A    between atoms: C_21  and  N_22
REMARK    6  A    between atoms: N_22  and  C_23
REMARK                            x       y       z     vdW  Elec       q    Type
REMARK                         _______ _______ _______ _____ _____    ______ ____
ROOT
ATOM      1  O   UNL     1      -1.802   4.260  25.786  0.00  0.00    -0.220 OA
ATOM      2  C   UNL     1      -1.574   3.530  25.475  0.00  0.00    +0.180 C 
ATOM      3  C   UNL     1      -0.775   3.338  25.417  0.00  0.00    +0.038 C 
ATOM      4  C   UNL     1      -0.547   2.608  25.106  0.00  0.00    +0.033 C 
ATOM      5  C   UNL     1      -1.120   2.071  24.854  0.00  0.00    +0.121 C 
ATOM     19  O   UNL     1      -1.919   2.263  24.912  0.00  0.00    -0.354 OA
ATOM     20  C   UNL     1      -2.147   2.993  25.222  0.00  0.00    +0.163 C 
ENDROOT
BRANCH   5   6
ATOM      6  C   UNL     1      -0.892   1.341  24.543  0.00  0.00    +0.079 C 
BRANCH   6   7
ATOM      7  C   UNL     1      -1.135   0.643  24.909  0.00  0.00    +0.103 A 
ATOM      8  N   UNL     1      -0.859   0.352  25.629  0.00  0.00    -0.081 NA
ATOM      9  O   UNL     1      -1.250  -0.358  25.784  0.00  0.00    -0.354 OA
ATOM     10  C   UNL     1      -1.767  -0.506  25.160  0.00  0.00    +0.177 A 
ATOM     11  C   UNL     1      -1.696   0.113  24.618  0.00  0.00    +0.058 A 
BRANCH  10  12
ATOM     12  C   UNL     1      -2.267  -1.157  25.088  0.00  0.00    +0.037 A 
ATOM     13  C   UNL     1      -2.019  -1.825  24.672  0.00  0.00    +0.005 A 
ATOM     14  C   UNL     1      -2.519  -2.476  24.600  0.00  0.00    +0.030 A 
ATOM     15  C   UNL     1      -3.269  -2.461  24.944  0.00  0.00    +0.140 A 
ATOM     16  F   UNL     1      -3.769  -3.113  24.872  0.00  0.00    -0.204 F 
ATOM     17  C   UNL     1      -3.518  -1.794  25.361  0.00  0.00    +0.030 A 
ATOM     18  C   UNL     1      -3.017  -1.142  25.433  0.00  0.00    +0.005 A 
ENDBRANCH  10  12
ENDBRANCH   6   7
ENDBRANCH   5   6
BRANCH  20  21
ATOM     21  C   UNL     1      -2.947   3.185  25.281  0.00  0.00    +0.121 C 
BRANCH  21  22
ATOM     22  N   UNL     1      -3.482   2.895  24.724  0.00  0.00    -0.217 NA
BRANCH  22  23
ATOM     23  C   UNL     1      -4.273   2.782  24.931  0.00  0.00    +0.073 C 
ATOM     24  C   UNL     1      -4.659   2.084  24.720  0.00  0.00    +0.017 C 
ATOM     25  C   UNL     1      -5.450   1.971  24.927  0.00  0.00    +0.001 C 
ATOM     26  C   UNL     1      -5.854   2.557  25.346  0.00  0.00    +0.000 C 
ATOM     27  C   UNL     1      -5.468   3.254  25.557  0.00  0.00    +0.001 C 
ATOM     28  C   UNL     1      -4.677   3.367  25.349  0.00  0.00    +0.017 C 
ENDBRANCH  22  23
ENDBRANCH  21  22
ENDBRANCH  20  21
TORSDOF 6
ENDMDL
MODEL 4
REMARK VINA RESULT:     -11.9      2.306      5.442
REMARK  Name = 
REMARK  6 active torsions:
REMARK  status: ('A' for Active; 'I' for Inactive)
REMARK    1  A    between atoms: C_5  and  C_6
REMARK    2  A    between atoms: C_6  and  C_7
REMARK    3  A    between atoms: C_10  and  C_12
REMARK    4  A    between atoms: C_20  and  C_21
REMARK    5  A    between atoms: C_21  and  N_22
REMARK    6  A    between atoms: N_22  and  C_23
REMARK                            x       y       z     vdW  Elec       q    Type
REMARK                         _______ _______ _______ _____ _____    ______ ____
ROOT
ATOM      1  O   UNL     1      -0.099  -0.775  23.687  0.00  0.00    -0.220 OA
ATOM      2  C   UNL     1      -0.356  -0.102  24.089  0.00  0.00    +0.180 C 
ATOM      3  C   UNL     1       0.109   0.578  24.095  0.00  0.00    +0.038 C 
ATOM      4  C   UNL     1      -0.147   1.251  24.497  0.00  0.00    +0.033 C 
ATOM      5  C   UNL     1      -0.871   1.243  24.892  0.00  0.00    +0.121 C 
ATOM     19  O   UNL     1      -1.337   0.563  24.886  0.00  0.00    -0.354 OA
ATOM     20  C   UNL     1      -1.080  -0.110  24.484  0.00  0.00    +0.163 C 
ENDROOT
BRANCH   5   6
ATOM      6  C   UNL     1      -1.129   1.917  25.294  0.00  0.00    +0.079 C 
BRANCH   6   7
ATOM      7  C   UNL     1      -1.792   2.329  25.026  0.00  0.00    +0.103 A 
ATOM      8  N   UNL     1      -1.822   2.821  24.365  0.00  0.00    -0.081 NA
ATOM      9  O   UNL     1      -2.590   3.118  24.303  0.00  0.00    -0.354 OA
ATOM     10  C   UNL     1      -3.033   2.809  24.925  0.00  0.00    +0.177 A 
ATOM     11  C   UNL     1      -2.540   2.322  25.372  0.00  0.00    +0.058 A 
BRANCH  10  12
ATOM     12  C   UNL     1      -3.830   2.961  25.074  0.00  0.00    +0.037 A 
ATOM     13  C   UNL     1      -4.052   3.656  25.460  0.00  0.00    +0.005 A 
ATOM     14  C   UNL     1      -4.849   3.808  25.609  0.00  0.00    +0.030 A 
ATOM     15  C   UNL     1      -5.424   3.265  25.374  0.00  0.00    +0.140 A 
ATOM     16  F   UNL     1      -6.221   3.417  25.523  0.00  0.00    -0.204 F 
ATOM     17  C   UNL     1      -5.202   2.570  24.988  0.00  0.00    +0.030 A 
ATOM     18  C   UNL     1      -4.405   2.418  24.838  0.00  0.00    +0.005 A 
ENDBRANCH  10  12
ENDBRANCH   6   7
ENDBRANCH   5   6
BRANCH  20  21
ATOM     21  C   UNL     1      -1.547  -0.790  24.478  0.00  0.00    +0.121 C 
BRANCH  21  22
ATOM     22  N   UNL     1      -2.281  -0.790  24.853  0.00  0.00    -0.217 NA
BRANCH  22  23
ATOM     23  C   UNL     1      -2.845  -1.360  24.656  0.00  0.00    +0.073 C 
ATOM     24  C   UNL     1      -3.514  -1.146  24.223  0.00  0.00    +0.017 C 
ATOM     25  C   UNL     1      -4.078  -1.716  24.027  0.00  0.00    +0.001 C 
ATOM     26  C   UNL     1      -3.972  -2.500  24.264  0.00  0.00    +0.000 C 
ATOM     27  C   UNL     1      -3.303  -2.713  24.696  0.00  0.00    +0.001 C 
ATOM     28  C   UNL     1      -2.740  -2.143  24.893  0.00  0.00    +0.017 C 
ENDBRANCH  22  23
ENDBRANCH  21  22
ENDBRANCH  20  21
TORSDOF 6
ENDMDL
