MODEL 1
REMARK VINA RESULT:     -15.3      0.000      0.000
REMARK  Name = 
REMARK  4 active torsions:
REMARK  status: ('A' for Active; 'I' for Inactive)
REMARK    1  A    between atoms: C_4  and  C_5
REMARK    2  A    between atoms: C_5  and  N_6
REMARK    3  A    between atoms: C_15  and  N_16
REMARK    4  A    between atoms: C_17  and  C_19
REMARK                            x       y       z     vdW  Elec       q    Type
REMARK                         _______ _______ _______ _____ _____    ______ ____
ROOT
ATOM      6  N   UNL     1      -3.222   3.148  25.160  0.00  0.00    -0.269 NA
ATOM      7  C   UNL     1      -3.414   3.940  25.342  0.00  0.00    +0.074 C 
ATOM      8  C   UNL     1      -4.397   3.861  25.408  0.00  0.00    +0.039 C 
ATOM      9  C   UNL     1      -5.201   3.962  25.497  0.00  0.00    +0.011 C 
ATOM     10  C   UNL     1      -4.757   3.439  25.350  0.00  0.00    +0.054 C 
ATOM     11  C   UNL     1      -3.808   3.531  25.289  0.00  0.00    +0.078 C 
ATOM     12  C   UNL     1      -4.740   2.540  25.160  0.00  0.00    +0.041 A 
ATOM     13  C   UNL     1      -5.246   1.895  25.068  0.00  0.00    +0.014 A 
ATOM     14  C   UNL     1      -4.938   1.152  24.886  0.00  0.00    +0.023 A 
ATOM     15  C   UNL     1      -4.123   1.053  24.797  0.00  0.00    +0.130 A 
ATOM     25  C   UNL     1      -3.617   1.697  24.889  0.00  0.00    +0.276 A 
ATOM     26  O   UNL     1      -2.803   1.599  24.800  0.00  0.00    -0.266 OA
ATOM     27  N   UNL     1      -3.926   2.441  25.071  0.00  0.00    -0.298 N 
ATOM     28  C   UNL     1      -4.370   2.922  25.209  0.00  0.00    +0.110 C 
ENDROOT
BRANCH  15  16
ATOM     16  N   UNL     1      -3.816   0.309  24.616  0.00  0.00    -0.171 NA
ATOM     17  C   UNL     1      -4.093  -0.359  25.013  0.00  0.00    +0.269 C 
ATOM     18  O   UNL     1      -4.676  -0.283  25.592  0.00  0.00    -0.268 OA
BRANCH  17  19
ATOM     19  C   UNL     1      -3.786  -1.103  24.832  0.00  0.00    +0.055 A 
ATOM     20  C   UNL     1      -3.169  -1.416  25.282  0.00  0.00    +0.005 A 
ATOM     21  C   UNL     1      -2.862  -2.160  25.101  0.00  0.00    +0.000 A 
ATOM     22  C   UNL     1      -3.173  -2.591  24.470  0.00  0.00    +0.000 A 
ATOM     23  C   UNL     1      -3.789  -2.279  24.020  0.00  0.00    +0.000 A 
ATOM     24  C   UNL     1      -4.096  -1.534  24.202  0.00  0.00    +0.005 A 
ENDBRANCH  17  19
ENDBRANCH  15  16
BRANCH   6   5
ATOM      5  C   UNL     1      -2.756   2.490  24.983  0.00  0.00    +0.101 C 
BRANCH   5   4
ATOM      1  C   UNL     1      -0.330   2.999  23.468  0.00  0.00    +0.130 C 
ATOM      2  N   UNL     1      -0.847   2.823  24.088  0.00  0.00    -0.324 N 
ATOM      3  C   UNL     1      -1.669   2.779  24.036  0.00  0.00    +0.073 A 
ATOM      4  C   UNL     1      -1.962   2.589  24.783  0.00  0.00    +0.012 A 
ATOM     29  C   UNL     1      -1.319   2.516  25.297  0.00  0.00    +0.015 A 
ATOM     30  C   UNL     1      -0.631   2.661  24.867  0.00  0.00    +0.060 A 
ATOM     31  C   UNL     1       0.104   2.626  25.240  0.00  0.00    +0.017 A 
ATOM     32  C   UNL     1       0.149   2.446  26.044  0.00  0.00    +0.001 A 
ATOM     33  C   UNL     1      -0.539   2.301  26.475  0.00  0.00    +0.000 A 
ATOM     34  C   UNL     1      -1.274   2.336  26.101  0.00  0.00    +0.001 A 
ENDBRANCH   5   4
ENDBRANCH   6   5
TORSDOF 4
ENDMDL
MODEL 2
REMARK VINA RESULT:     -14.7      1.195      3.081
REMARK  Name = 
REMARK  4 active torsions:
REMARK  status: ('A' for Active; 'I' for Inactive)
REMARK    1  A    between atoms: C_4  and  C_5
REMARK    2  A    between atoms: C_5  and  N_6
REMARK    3  A    between atoms: C_15  and  N_16
REMARK    4  A    between atoms: C_17  and  C_19
REMARK                            x       y       z     vdW  Elec       q    Type
REMARK                         _______ _______ _______ _____ _____    ______ ____
ROOT
ATOM      6  N   UNL     1      -1.881   2.625  25.359  0.00  0.00    -0.269 NA
ATOM      7  C   UNL     1      -1.425   3.252  25.670  0.00  0.00    +0.074 C 
ATOM      8  C   UNL     1      -0.609   2.755  25.922  0.00  0.00    +0.039 C 
ATOM      9  C   UNL     1       0.118   2.497  26.182  0.00  0.00    +0.011 C 
ATOM     10  C   UNL     1      -0.455   2.220  25.887  0.00  0.00    +0.054 C 
ATOM     11  C   UNL     1      -1.237   2.715  25.649  0.00  0.00    +0.078 C 
ATOM     12  C   UNL     1      -0.800   1.421  25.592  0.00  0.00    +0.041 A 
ATOM     13  C   UNL     1      -0.601   0.623  25.527  0.00  0.00    +0.014 A 
ATOM     14  C   UNL     1      -1.139   0.090  25.199  0.00  0.00    +0.023 A 
ATOM     15  C   UNL     1      -1.875   0.354  24.937  0.00  0.00    +0.130 A 
ATOM     25  C   UNL     1      -2.074   1.152  25.002  0.00  0.00    +0.276 A 
ATOM     26  O   UNL     1      -2.810   1.417  24.740  0.00  0.00    -0.266 OA
ATOM     27  N   UNL     1      -1.536   1.685  25.330  0.00  0.00    -0.298 N 
ATOM     28  C   UNL     1      -0.978   1.924  25.611  0.00  0.00    +0.110 C 
ENDROOT
BRANCH  15  16
ATOM     16  N   UNL     1      -2.412  -0.179  24.610  0.00  0.00    -0.171 NA
ATOM     17  C   UNL     1      -2.568  -0.894  24.993  0.00  0.00    +0.269 C 
ATOM     18  O   UNL     1      -2.187  -1.073  25.702  0.00  0.00    -0.268 OA
BRANCH  17  19
ATOM     19  C   UNL     1      -3.105  -1.428  24.666  0.00  0.00    +0.055 A 
ATOM     20  C   UNL     1      -3.776  -1.151  24.274  0.00  0.00    +0.005 A 
ATOM     21  C   UNL     1      -4.313  -1.686  23.948  0.00  0.00    +0.000 A 
ATOM     22  C   UNL     1      -4.178  -2.497  24.014  0.00  0.00    +0.000 A 
ATOM     23  C   UNL     1      -3.508  -2.774  24.405  0.00  0.00    +0.000 A 
ATOM     24  C   UNL     1      -2.971  -2.239  24.732  0.00  0.00    +0.005 A 
ENDBRANCH  17  19
ENDBRANCH  15  16
BRANCH   6   5
ATOM      5  C   UNL     1      -2.523   2.237  25.015  0.00  0.00    +0.101 C 
BRANCH   5   4
ATOM      1  C   UNL     1      -4.082   3.836  23.158  0.00  0.00    +0.130 C 
ATOM      2  N   UNL     1      -3.854   3.409  23.826  0.00  0.00    -0.324 N 
ATOM      3  C   UNL     1      -3.128   3.032  23.936  0.00  0.00    +0.073 A 
ATOM      4  C   UNL     1      -3.137   2.674  24.679  0.00  0.00    +0.012 A 
ATOM     29  C   UNL     1      -3.869   2.829  25.028  0.00  0.00    +0.015 A 
ATOM     30  C   UNL     1      -4.312   3.283  24.501  0.00  0.00    +0.060 A 
ATOM     31  C   UNL     1      -5.074   3.524  24.703  0.00  0.00    +0.017 A 
ATOM     32  C   UNL     1      -5.394   3.310  25.432  0.00  0.00    +0.001 A 
ATOM     33  C   UNL     1      -4.952   2.856  25.960  0.00  0.00    +0.000 A 
ATOM     34  C   UNL     1      -4.189   2.615  25.758  0.00  0.00    +0.001 A 
ENDBRANCH   5   4
ENDBRANCH   6   5
TORSDOF 4
ENDMDL
MODEL 3
REMARK VINA RESULT:     -14.2      0.951      3.897
REMARK  Name = 
REMARK  4 active torsions:
REMARK  status: ('A' for Active; 'I' for Inactive)
REMARK    1  A    between atoms: C_4  and  C_5
REMARK    2  A    between atoms: C_5  and  N_6
REMARK    3  A    between atoms: C_15  and  N_16
REMARK    4  A    between atoms: C_17  and  C_19
REMARK                            x       y       z     vdW  Elec       q    Type
REMARK                         _______ _______ _______ _____ _____    ______ ____
ROOT
ATOM      6  N   UNL     1      -4.931   0.946  25.053  0.00  0.00    -0.269 NA
ATOM      7  C   UNL     1      -5.743   0.953  25.246  0.00  0.00    +0.074 C 
ATOM      8  C   UNL     1      -5.884   1.927  25.335  0.00  0.00    +0.039 C 
ATOM      9  C   UNL     1      -6.160   2.685  25.444  0.00  0.00    +0.011 C 
ATOM     10  C   UNL     1      -5.553   2.373  25.281  0.00  0.00    +0.054 C 
ATOM     11  C   UNL     1      -5.433   1.429  25.200  0.00  0.00    +0.078 C 
ATOM     12  C   UNL     1      -4.676   2.561  25.083  0.00  0.00    +0.041 A 
ATOM     13  C   UNL     1      -4.162   3.200  24.997  0.00  0.00    +0.014 A 
ATOM     14  C   UNL     1      -3.371   3.069  24.801  0.00  0.00    +0.023 A 
ATOM     15  C   UNL     1      -3.094   2.299  24.692  0.00  0.00    +0.130 A 
ATOM     25  C   UNL     1      -3.609   1.660  24.778  0.00  0.00    +0.276 A 
ATOM     26  O   UNL     1      -3.332   0.891  24.669  0.00  0.00    -0.266 OA
ATOM     27  N   UNL     1      -4.399   1.791  24.974  0.00  0.00    -0.298 N 
ATOM     28  C   UNL     1      -4.965   2.114  25.127  0.00  0.00    +0.110 C 
ENDROOT
BRANCH  15  16
ATOM     16  N   UNL     1      -2.304   2.170  24.496  0.00  0.00    -0.171 NA
ATOM     17  C   UNL     1      -1.706   2.539  24.929  0.00  0.00    +0.269 C 
ATOM     18  O   UNL     1      -1.900   3.037  25.557  0.00  0.00    -0.268 OA
BRANCH  17  19
ATOM     19  C   UNL     1      -0.915   2.410  24.734  0.00  0.00    +0.055 A 
ATOM     20  C   UNL     1      -0.533   1.725  24.992  0.00  0.00    +0.005 A 
ATOM     21  C   UNL     1       0.258   1.596  24.797  0.00  0.00    +0.000 A 
ATOM     22  C   UNL     1       0.666   2.152  24.344  0.00  0.00    +0.000 A 
ATOM     23  C   UNL     1       0.285   2.836  24.086  0.00  0.00    +0.000 A 
ATOM     24  C   UNL     1      -0.507   2.965  24.282  0.00  0.00    +0.005 A 
ENDBRANCH  17  19
ENDBRANCH  15  16
BRANCH   6   5
ATOM      5  C   UNL     1      -4.188   0.642  24.859  0.00  0.00    +0.101 C 
BRANCH   5   4
ATOM      1  C   UNL     1      -4.288  -1.879  23.420  0.00  0.00    +0.130 C 
ATOM      2  N   UNL     1      -4.152  -1.315  24.007  0.00  0.00    -0.324 N 
ATOM      3  C   UNL     1      -4.337  -0.512  23.960  0.00  0.00    +0.073 A 
ATOM      4  C   UNL     1      -4.106  -0.156  24.668  0.00  0.00    +0.012 A 
ATOM     29  C   UNL     1      -3.779  -0.740  25.152  0.00  0.00    +0.015 A 
ATOM     30  C   UNL     1      -3.808  -1.456  24.743  0.00  0.00    +0.060 A 
ATOM     31  C   UNL     1      -3.517  -2.143  25.094  0.00  0.00    +0.017 A 
ATOM     32  C   UNL     1      -3.197  -2.114  25.854  0.00  0.00    +0.001 A 
ATOM     33  C   UNL     1      -3.168  -1.398  26.263  0.00  0.00    +0.000 A 
ATOM     34  C   UNL     1      -3.459  -0.711  25.912  0.00  0.00    +0.001 A 
ENDBRANCH   5   4
ENDBRANCH   6   5
TORSDOF 4
ENDMDL
MODEL 4
REMARK VINA RESULT:     -13.8      1.256      3.767
REMARK  Name = 
REMARK  4 active torsions:
REMARK  status: ('A' for Active; 'I' for Inactive)
REMARK    1  A    between atoms: C_4  and  C_5
REMARK    2  A    between atoms: C_5  and  N_6
REMARK    3  A    between atoms: C_15  and  N_16
REMARK    4  A    between atoms: C_17  and  C_19
REMARK                            x       y       z     vdW  Elec       q    Type
REMARK                         _______ _______ _______ _____ _____    ______ ____
ROOT
ATOM      6  N   UNL     1      -1.735  -0.821  24.643  0.00  0.00    -0.269 NA
ATOM      7  C   UNL     1      -1.391  -1.583  24.643  0.00  0.00    +0.074 C 
ATOM      8  C   UNL     1      -2.210  -2.135  24.628  0.00  0.00    +0.039 C 
ATOM      9  C   UNL     1      -2.776  -2.720  24.616  0.00  0.00    +0.011 C 
ATOM     10  C   UNL     1      -2.755  -2.019  24.621  0.00  0.00    +0.054 C 
ATOM     11  C   UNL     1      -1.954  -1.499  24.635  0.00  0.00    +0.078 C 
ATOM     12  C   UNL     1      -3.304  -1.281  24.618  0.00  0.00    +0.041 A 
ATOM     13  C   UNL     1      -4.103  -1.078  24.607  0.00  0.00    +0.014 A 
ATOM     14  C   UNL     1      -4.326  -0.283  24.609  0.00  0.00    +0.023 A 
ATOM     15  C   UNL     1      -3.750   0.307  24.621  0.00  0.00    +0.130 A 
ATOM     25  C   UNL     1      -2.951   0.103  24.631  0.00  0.00    +0.276 A 
ATOM     26  O   UNL     1      -2.374   0.694  24.643  0.00  0.00    -0.266 OA
ATOM     27  N   UNL     1      -2.728  -0.691  24.629  0.00  0.00    -0.298 N 
ATOM     28  C   UNL     1      -2.775  -1.359  24.625  0.00  0.00    +0.110 C 
ENDROOT
BRANCH  15  16
ATOM     16  N   UNL     1      -3.974   1.101  24.623  0.00  0.00    -0.171 NA
ATOM     17  C   UNL     1      -4.592   1.353  25.107  0.00  0.00    +0.269 C 
ATOM     18  O   UNL     1      -4.986   0.812  25.590  0.00  0.00    -0.268 OA
BRANCH  17  19
ATOM     19  C   UNL     1      -4.816   2.147  25.110  0.00  0.00    +0.055 A 
ATOM     20  C   UNL     1      -4.432   2.686  24.617  0.00  0.00    +0.005 A 
ATOM     21  C   UNL     1      -4.657   3.480  24.620  0.00  0.00    +0.000 A 
ATOM     22  C   UNL     1      -5.266   3.734  25.115  0.00  0.00    +0.000 A 
ATOM     23  C   UNL     1      -5.650   3.196  25.607  0.00  0.00    +0.000 A 
ATOM     24  C   UNL     1      -5.425   2.402  25.605  0.00  0.00    +0.005 A 
ENDBRANCH  17  19
ENDBRANCH  15  16
BRANCH   6   5
ATOM      5  C   UNL     1      -1.781   0.003  24.647  0.00  0.00    +0.101 C 
BRANCH   5   4
ATOM      1  C   UNL     1       0.573   1.115  23.359  0.00  0.00    +0.130 C 
ATOM      2  N   UNL     1      -0.025   0.965  23.909  0.00  0.00    -0.324 N 
ATOM      3  C   UNL     1      -0.640   0.422  23.821  0.00  0.00    +0.073 A 
ATOM      4  C   UNL     1      -1.106   0.454  24.500  0.00  0.00    +0.012 A 
ATOM     29  C   UNL     1      -0.778   1.017  25.008  0.00  0.00    +0.015 A 
ATOM     30  C   UNL     1      -0.110   1.332  24.642  0.00  0.00    +0.060 A 
ATOM     31  C   UNL     1       0.334   1.913  25.024  0.00  0.00    +0.017 A 
ATOM     32  C   UNL     1       0.109   2.178  25.772  0.00  0.00    +0.001 A 
ATOM     33  C   UNL     1      -0.559   1.863  26.138  0.00  0.00    +0.000 A 
ATOM     34  C   UNL     1      -1.003   1.282  25.757  0.00  0.00    +0.001 A 
ENDBRANCH   5   4
ENDBRANCH   6   5
TORSDOF 4
ENDMDL
MODEL 5
REMARK VINA RESULT:     -13.5      1.340      4.585
REMARK  Name = 
REMARK  4 active torsions:
REMARK  status: ('A' for Active; 'I' for Inactive)
REMARK    1  A    between atoms: C_4  and  C_5
REMARK    2  A    between atoms: C_5  and  N_6
REMARK    3  A    between atoms: C_15  and  N_16
REMARK    4  A    between atoms: C_17  and  C_19
REMARK                            x       y       z     vdW  Elec       q    Type
REMARK                         _______ _______ _______ _____ _____    ______ ____
ROOT
ATOM      6  N   UNL     1      -4.008  -0.485  24.495  0.00  0.00    -0.269 NA
ATOM      7  C   UNL     1      -4.507  -1.086  24.199  0.00  0.00    +0.074 C 
ATOM      8  C   UNL     1      -3.884  -1.852  24.236  0.00  0.00    +0.039 C 
ATOM      9  C   UNL     1      -3.502  -2.571  24.204  0.00  0.00    +0.011 C 
ATOM     10  C   UNL     1      -3.354  -1.912  24.398  0.00  0.00    +0.054 C 
ATOM     11  C   UNL     1      -3.968  -1.182  24.355  0.00  0.00    +0.078 C 
ATOM     12  C   UNL     1      -2.672  -1.397  24.735  0.00  0.00    +0.041 A 
ATOM     13  C   UNL     1      -1.887  -1.454  24.982  0.00  0.00    +0.014 A 
ATOM     14  C   UNL     1      -1.492  -0.785  25.259  0.00  0.00    +0.023 A 
ATOM     15  C   UNL     1      -1.882  -0.058  25.290  0.00  0.00    +0.130 A 
ATOM     25  C   UNL     1      -2.667  -0.001  25.043  0.00  0.00    +0.276 A 
ATOM     26  O   UNL     1      -3.057   0.725  25.074  0.00  0.00    -0.266 OA
ATOM     27  N   UNL     1      -3.062  -0.670  24.766  0.00  0.00    -0.298 N 
ATOM     28  C   UNL     1      -3.178  -1.305  24.589  0.00  0.00    +0.110 C 
ENDROOT
BRANCH  15  16
ATOM     16  N   UNL     1      -1.487   0.610  25.567  0.00  0.00    -0.171 NA
ATOM     17  C   UNL     1      -0.780   0.847  25.212  0.00  0.00    +0.269 C 
ATOM     18  O   UNL     1      -0.470   0.415  24.582  0.00  0.00    -0.268 OA
BRANCH  17  19
ATOM     19  C   UNL     1      -0.384   1.515  25.489  0.00  0.00    +0.055 A 
ATOM     20  C   UNL     1      -0.259   1.616  26.298  0.00  0.00    +0.005 A 
ATOM     21  C   UNL     1       0.138   2.284  26.575  0.00  0.00    +0.000 A 
ATOM     22  C   UNL     1       0.409   2.852  26.041  0.00  0.00    +0.000 A 
ATOM     23  C   UNL     1       0.285   2.753  25.233  0.00  0.00    +0.000 A 
ATOM     24  C   UNL     1      -0.112   2.083  24.956  0.00  0.00    +0.005 A 
ENDBRANCH  17  19
ENDBRANCH  15  16
BRANCH   6   5
ATOM      5  C   UNL     1      -3.769   0.267  24.739  0.00  0.00    +0.101 C 
BRANCH   5   4
ATOM      1  C   UNL     1      -6.072   1.768  25.677  0.00  0.00    +0.130 C 
ATOM      2  N   UNL     1      -5.387   1.555  25.269  0.00  0.00    -0.324 N 
ATOM      3  C   UNL     1      -4.977   0.842  25.347  0.00  0.00    +0.073 A 
ATOM      4  C   UNL     1      -4.328   0.865  24.838  0.00  0.00    +0.012 A 
ATOM     29  C   UNL     1      -4.337   1.591  24.446  0.00  0.00    +0.015 A 
ATOM     30  C   UNL     1      -4.991   2.017  24.713  0.00  0.00    +0.060 A 
ATOM     31  C   UNL     1      -5.142   2.771  24.414  0.00  0.00    +0.017 A 
ATOM     32  C   UNL     1      -4.638   3.099  23.849  0.00  0.00    +0.001 A 
ATOM     33  C   UNL     1      -3.984   2.673  23.582  0.00  0.00    +0.000 A 
ATOM     34  C   UNL     1      -3.833   1.919  23.880  0.00  0.00    +0.001 A 
ENDBRANCH   5   4
ENDBRANCH   6   5
TORSDOF 4
ENDMDL
MODEL 6
REMARK VINA RESULT:     -13.3      1.453      4.687
REMARK  Name = 
REMARK  4 active torsions:
REMARK  status: ('A' for Active; 'I' for Inactive)
REMARK    1  A    between atoms: C_4  and  C_5
REMARK    2  A    between atoms: C_5  and  N_6
REMARK    3  A    between atoms: C_15  and  N_16
REMARK    4  A    between atoms: C_17  and  C_19
REMARK                            x       y       z     vdW  Elec       q    Type
REMARK                         _______ _______ _______ _____ _____    ______ ____
ROOT
ATOM      6  N   UNL     1      -1.344  -0.074  24.404  0.00  0.00    -0.269 NA
ATOM      7  C   UNL     1      -0.629  -0.410  24.131  0.00  0.00    +0.074 C 
ATOM      8  C   UNL     1      -0.101   0.413  23.991  0.00  0.00    +0.039 C 
ATOM      9  C   UNL     1       0.456   0.984  23.826  0.00  0.00    +0.011 C 
ATOM     10  C   UNL     1      -0.205   0.957  24.059  0.00  0.00    +0.054 C 
ATOM     11  C   UNL     1      -0.703   0.152  24.189  0.00  0.00    +0.078 C 
ATOM     12  C   UNL     1      -0.895   1.498  24.335  0.00  0.00    +0.041 A 
ATOM     13  C   UNL     1      -1.080   2.294  24.447  0.00  0.00    +0.014 A 
ATOM     14  C   UNL     1      -1.827   2.509  24.724  0.00  0.00    +0.023 A 
ATOM     15  C   UNL     1      -2.389   1.928  24.890  0.00  0.00    +0.130 A 
ATOM     25  C   UNL     1      -2.204   1.132  24.778  0.00  0.00    +0.276 A 
ATOM     26  O   UNL     1      -2.766   0.551  24.944  0.00  0.00    -0.266 OA
ATOM     27  N   UNL     1      -1.457   0.917  24.501  0.00  0.00    -0.298 N 
ATOM     28  C   UNL     1      -0.828   0.970  24.281  0.00  0.00    +0.110 C 
ENDROOT
BRANCH  15  16
ATOM     16  N   UNL     1      -3.135   2.144  25.167  0.00  0.00    -0.171 NA
ATOM     17  C   UNL     1      -3.578   2.707  24.759  0.00  0.00    +0.269 C 
ATOM     18  O   UNL     1      -3.276   3.054  24.074  0.00  0.00    -0.268 OA
BRANCH  17  19
ATOM     19  C   UNL     1      -4.325   2.924  25.035  0.00  0.00    +0.055 A 
ATOM     20  C   UNL     1      -4.434   3.656  25.400  0.00  0.00    +0.005 A 
ATOM     21  C   UNL     1      -5.180   3.873  25.676  0.00  0.00    +0.000 A 
ATOM     22  C   UNL     1      -5.818   3.356  25.588  0.00  0.00    +0.000 A 
ATOM     23  C   UNL     1      -5.710   2.625  25.224  0.00  0.00    +0.000 A 
ATOM     24  C   UNL     1      -4.962   2.408  24.947  0.00  0.00    +0.005 A 
ENDBRANCH  17  19
ENDBRANCH  15  16
BRANCH   6   5
ATOM      5  C   UNL     1      -2.120  -0.036  24.681  0.00  0.00    +0.101 C 
BRANCH   5   4
ATOM      1  C   UNL     1      -2.947  -2.393  26.162  0.00  0.00    +0.130 C 
ATOM      2  N   UNL     1      -2.894  -1.810  25.580  0.00  0.00    -0.324 N 
ATOM      3  C   UNL     1      -2.379  -1.165  25.585  0.00  0.00    +0.073 A 
ATOM      4  C   UNL     1      -2.514  -0.727  24.900  0.00  0.00    +0.012 A 
ATOM     29  C   UNL     1      -3.112  -1.101  24.471  0.00  0.00    +0.015 A 
ATOM     30  C   UNL     1      -3.346  -1.770  24.892  0.00  0.00    +0.060 A 
ATOM     31  C   UNL     1      -3.942  -2.257  24.594  0.00  0.00    +0.017 A 
ATOM     32  C   UNL     1      -4.302  -2.074  23.874  0.00  0.00    +0.001 A 
ATOM     33  C   UNL     1      -4.068  -1.405  23.453  0.00  0.00    +0.000 A 
ATOM     34  C   UNL     1      -3.472  -0.918  23.752  0.00  0.00    +0.001 A 
ENDBRANCH   5   4
ENDBRANCH   6   5
TORSDOF 4
ENDMDL
