MODEL 1
REMARK VINA RESULT:     -14.0      0.000      0.000
REMARK  Name = 
REMARK  7 active torsions:
REMARK  status: ('A' for Active; 'I' for Inactive)
REMARK    1  A    between atoms: O_2  and  C_3
REMARK    2  A    between atoms: C_3  and  C_4
REMARK    3  A    between atoms: C_4  and  C_5
REMARK    4  A    between atoms: C_16  and  N_17
REMARK    5  A    between atoms: N_17  and  S_18
REMARK    6  A    between atoms: S_18  and  C_21
REMARK    7  A    between atoms: C_23  and  C_27
REMARK                            x       y       z     vdW  Elec       q    Type
REMARK                         _______ _______ _______ _____ _____    ______ ____
ROOT
ATOM      5  C   UNL     1      -3.625   3.006  24.741  0.00  0.00    +0.228 C 
ATOM      6  O   UNL     1      -3.330   2.240  24.655  0.00  0.00    -0.275 OA
ATOM      7  N   UNL     1      -4.393   3.124  25.019  0.00  0.00    -0.279 N 
ATOM      8  C   UNL     1      -5.081   3.533  25.259  0.00  0.00    +0.095 C 
ATOM      9  C   UNL     1      -5.658   2.766  25.492  0.00  0.00    +0.043 C 
ATOM     10  C   UNL     1      -6.247   2.253  25.722  0.00  0.00    +0.011 C 
ATOM     11  C   UNL     1      -5.589   2.212  25.483  0.00  0.00    +0.058 C 
ATOM     12  C   UNL     1      -5.044   2.965  25.261  0.00  0.00    +0.099 C 
ATOM     13  C   UNL     1      -4.939   1.602  25.262  0.00  0.00    +0.041 A 
ATOM     14  C   UNL     1      -4.807   0.788  25.237  0.00  0.00    +0.014 A 
ATOM     15  C   UNL     1      -4.079   0.496  24.979  0.00  0.00    +0.024 A 
ATOM     16  C   UNL     1      -3.484   1.018  24.747  0.00  0.00    +0.147 A 
ATOM     31  C   UNL     1      -3.616   1.832  24.772  0.00  0.00    +0.277 A 
ATOM     32  O   UNL     1      -2.897   2.131  24.500  0.00  0.00    -0.266 OA
ATOM     33  N   UNL     1      -4.344   2.124  25.030  0.00  0.00    -0.298 N 
ATOM     34  C   UNL     1      -4.972   2.135  25.259  0.00  0.00    +0.110 C 
ENDROOT
BRANCH   5   4
ATOM      4  C   UNL     1      -3.152   3.654  24.550  0.00  0.00    +0.117 C 
BRANCH   4   3
ATOM      3  C   UNL     1      -2.607   3.944  25.097  0.00  0.00    +0.152 C 
BRANCH   3   2
ATOM      1  C   UNL     1      -1.476   4.793  25.296  0.00  0.00    +0.174 C 
ATOM      2  O   UNL     1      -2.209   4.651  24.948  0.00  0.00    -0.351 OA
ENDBRANCH   3   2
ENDBRANCH   4   3
ENDBRANCH   5   4
BRANCH  16  17
ATOM     17  N   UNL     1      -2.757   0.726  24.489  0.00  0.00    -0.092 NA
BRANCH  17  18
ATOM     18  S   UNL     1      -2.593  -0.080  24.546  0.00  0.00    +0.093 S 
ATOM     19  O   UNL     1      -2.854  -0.188  23.771  0.00  0.00    -0.148 OA
ATOM     20  O   UNL     1      -2.332   0.028  25.321  0.00  0.00    -0.148 OA
BRANCH  18  21
ATOM     21  C   UNL     1      -2.428  -0.887  24.604  0.00  0.00    +0.127 A 
ATOM     22  C   UNL     1      -3.042  -1.437  24.565  0.00  0.00    +0.024 A 
ATOM     23  C   UNL     1      -2.877  -2.243  24.623  0.00  0.00    +0.073 A 
ATOM     24  C   UNL     1      -2.098  -2.499  24.719  0.00  0.00    +0.004 A 
ATOM     25  C   UNL     1      -1.485  -1.949  24.758  0.00  0.00    +0.001 A 
ATOM     26  C   UNL     1      -1.650  -1.143  24.700  0.00  0.00    +0.020 A 
BRANCH  23  27
ATOM     27  C   UNL     1      -3.490  -2.794  24.584  0.00  0.00    +0.419 C 
ATOM     28  F   UNL     1      -4.103  -3.344  24.544  0.00  0.00    -0.166 F 
ATOM     29  F   UNL     1      -3.410  -2.825  23.763  0.00  0.00    -0.166 F 
ATOM     30  F   UNL     1      -3.570  -2.762  25.404  0.00  0.00    -0.166 F 
ENDBRANCH  23  27
ENDBRANCH  18  21
ENDBRANCH  17  18
ENDBRANCH  16  17
TORSDOF 7
ENDMDL
MODEL 2
REMARK VINA RESULT:     -13.6      2.075      4.656
REMARK  Name = 
REMARK  7 active torsions:
REMARK  status: ('A' for Active; 'I' for Inactive)
REMARK    1  A    between atoms: O_2  and  C_3
REMARK    2  A    between atoms: C_3  and  C_4
REMARK    3  A    between atoms: C_4  and  C_5
REMARK    4  A    between atoms: C_16  and  N_17
REMARK    5  A    between atoms: N_17  and  S_18
REMARK    6  A    between atoms: S_18  and  C_21
REMARK    7  A    between atoms: C_23  and  C_27
REMARK                            x       y       z     vdW  Elec       q    Type
REMARK                         _______ _______ _______ _____ _____    ______ ____
ROOT
ATOM      5  C   UNL     1      -1.520  -0.862  24.511  0.00  0.00    +0.228 C 
ATOM      6  O   UNL     1      -2.019  -0.205  24.489  0.00  0.00    -0.275 OA
ATOM      7  N   UNL     1      -1.841  -1.623  24.522  0.00  0.00    -0.279 N 
ATOM      8  C   UNL     1      -1.866  -2.458  24.540  0.00  0.00    +0.095 C 
ATOM      9  C   UNL     1      -2.844  -2.594  24.529  0.00  0.00    +0.043 C 
ATOM     10  C   UNL     1      -3.610  -2.872  24.524  0.00  0.00    +0.011 C 
ATOM     11  C   UNL     1      -3.284  -2.251  24.515  0.00  0.00    +0.058 C 
ATOM     12  C   UNL     1      -2.336  -2.135  24.526  0.00  0.00    +0.099 C 
ATOM     13  C   UNL     1      -3.453  -1.348  24.493  0.00  0.00    +0.041 A 
ATOM     14  C   UNL     1      -4.081  -0.814  24.472  0.00  0.00    +0.014 A 
ATOM     15  C   UNL     1      -3.933  -0.003  24.457  0.00  0.00    +0.024 A 
ATOM     16  C   UNL     1      -3.156   0.275  24.462  0.00  0.00    +0.147 A 
ATOM     31  C   UNL     1      -2.527  -0.259  24.483  0.00  0.00    +0.277 A 
ATOM     32  O   UNL     1      -1.874   0.245  24.481  0.00  0.00    -0.266 OA
ATOM     33  N   UNL     1      -2.676  -1.070  24.498  0.00  0.00    -0.298 N 
ATOM     34  C   UNL     1      -3.011  -1.649  24.506  0.00  0.00    +0.110 C 
ENDROOT
BRANCH   5   4
ATOM      4  C   UNL     1      -0.702  -0.760  24.520  0.00  0.00    +0.117 C 
BRANCH   4   3
ATOM      3  C   UNL     1      -0.299  -0.591  23.821  0.00  0.00    +0.152 C 
BRANCH   3   2
ATOM      1  C   UNL     1       0.922  -0.254  23.159  0.00  0.00    +0.174 C 
ATOM      2  O   UNL     1       0.525  -0.544  23.821  0.00  0.00    -0.351 OA
ENDBRANCH   3   2
ENDBRANCH   4   3
ENDBRANCH   5   4
BRANCH  16  17
ATOM     17  N   UNL     1      -3.008   1.086  24.447  0.00  0.00    -0.092 NA
BRANCH  17  18
ATOM     18  S   UNL     1      -3.606   1.618  24.648  0.00  0.00    +0.093 S 
ATOM     19  O   UNL     1      -3.866   1.621  23.865  0.00  0.00    -0.148 OA
ATOM     20  O   UNL     1      -3.345   1.615  25.430  0.00  0.00    -0.148 OA
BRANCH  18  21
ATOM     21  C   UNL     1      -4.203   2.151  24.849  0.00  0.00    +0.127 A 
ATOM     22  C   UNL     1      -4.848   1.897  25.298  0.00  0.00    +0.024 A 
ATOM     23  C   UNL     1      -5.445   2.430  25.499  0.00  0.00    +0.073 A 
ATOM     24  C   UNL     1      -5.397   3.216  25.252  0.00  0.00    +0.004 A 
ATOM     25  C   UNL     1      -4.753   3.469  24.803  0.00  0.00    +0.001 A 
ATOM     26  C   UNL     1      -4.156   2.936  24.602  0.00  0.00    +0.020 A 
BRANCH  23  27
ATOM     27  C   UNL     1      -6.089   2.177  25.948  0.00  0.00    +0.419 C 
ATOM     28  F   UNL     1      -6.733   1.924  26.397  0.00  0.00    -0.166 F 
ATOM     29  F   UNL     1      -5.744   2.499  26.625  0.00  0.00    -0.166 F 
ATOM     30  F   UNL     1      -6.433   1.855  25.271  0.00  0.00    -0.166 F 
ENDBRANCH  23  27
ENDBRANCH  18  21
ENDBRANCH  17  18
ENDBRANCH  16  17
TORSDOF 7
ENDMDL
MODEL 3
REMARK VINA RESULT:     -13.1      1.288      2.487
REMARK  Name = 
REMARK  7 active torsions:
REMARK  status: ('A' for Active; 'I' for Inactive)
REMARK    1  A    between atoms: O_2  and  C_3
REMARK    2  A    between atoms: C_3  and  C_4
REMARK    3  A    between atoms: C_4  and  C_5
REMARK    4  A    between atoms: C_16  and  N_17
REMARK    5  A    between atoms: N_17  and  S_18
REMARK    6  A    between atoms: S_18  and  C_21
REMARK    7  A    between atoms: C_23  and  C_27
REMARK                            x       y       z     vdW  Elec       q    Type
REMARK                         _______ _______ _______ _____ _____    ______ ____
ROOT
ATOM      5  C   UNL     1      -3.444   3.093  24.920  0.00  0.00    +0.228 C 
ATOM      6  O   UNL     1      -3.550   2.291  24.755  0.00  0.00    -0.275 OA
ATOM      7  N   UNL     1      -2.709   3.368  25.174  0.00  0.00    -0.279 N 
ATOM      8  C   UNL     1      -2.125   3.908  25.431  0.00  0.00    +0.095 C 
ATOM      9  C   UNL     1      -1.363   3.288  25.542  0.00  0.00    +0.043 C 
ATOM     10  C   UNL     1      -0.652   2.917  25.680  0.00  0.00    +0.011 C 
ATOM     11  C   UNL     1      -1.297   2.739  25.468  0.00  0.00    +0.058 C 
ATOM     12  C   UNL     1      -2.023   3.351  25.366  0.00  0.00    +0.099 C 
ATOM     13  C   UNL     1      -1.794   2.013  25.205  0.00  0.00    +0.041 A 
ATOM     14  C   UNL     1      -1.727   1.199  25.086  0.00  0.00    +0.014 A 
ATOM     15  C   UNL     1      -2.379   0.765  24.828  0.00  0.00    +0.024 A 
ATOM     16  C   UNL     1      -3.098   1.144  24.689  0.00  0.00    +0.147 A 
ATOM     31  C   UNL     1      -3.166   1.957  24.807  0.00  0.00    +0.277 A 
ATOM     32  O   UNL     1      -3.954   2.095  24.607  0.00  0.00    -0.266 OA
ATOM     33  N   UNL     1      -2.514   2.392  25.065  0.00  0.00    -0.298 N 
ATOM     34  C   UNL     1      -1.891   2.535  25.265  0.00  0.00    +0.110 C 
ENDROOT
BRANCH   5   4
ATOM      4  C   UNL     1      -4.073   3.619  24.831  0.00  0.00    +0.117 C 
BRANCH   4   3
ATOM      3  C   UNL     1      -4.669   3.650  25.400  0.00  0.00    +0.152 C 
BRANCH   3   2
ATOM      1  C   UNL     1      -5.973   4.126  25.738  0.00  0.00    +0.174 C 
ATOM      2  O   UNL     1      -5.250   4.234  25.357  0.00  0.00    -0.351 OA
ENDBRANCH   3   2
ENDBRANCH   4   3
ENDBRANCH   5   4
BRANCH  16  17
ATOM     17  N   UNL     1      -3.750   0.709  24.431  0.00  0.00    -0.092 NA
BRANCH  17  18
ATOM     18  S   UNL     1      -3.699  -0.112  24.365  0.00  0.00    +0.093 S 
ATOM     19  O   UNL     1      -3.933  -0.189  25.152  0.00  0.00    -0.148 OA
ATOM     20  O   UNL     1      -3.464  -0.034  23.578  0.00  0.00    -0.148 OA
BRANCH  18  21
ATOM     21  C   UNL     1      -3.647  -0.933  24.299  0.00  0.00    +0.127 A 
ATOM     22  C   UNL     1      -2.957  -1.323  24.527  0.00  0.00    +0.024 A 
ATOM     23  C   UNL     1      -2.906  -2.144  24.461  0.00  0.00    +0.073 A 
ATOM     24  C   UNL     1      -3.545  -2.574  24.166  0.00  0.00    +0.004 A 
ATOM     25  C   UNL     1      -4.235  -2.184  23.937  0.00  0.00    +0.001 A 
ATOM     26  C   UNL     1      -4.286  -1.363  24.004  0.00  0.00    +0.020 A 
BRANCH  23  27
ATOM     27  C   UNL     1      -2.216  -2.534  24.689  0.00  0.00    +0.419 C 
ATOM     28  F   UNL     1      -1.527  -2.924  24.919  0.00  0.00    -0.166 F 
ATOM     29  F   UNL     1      -2.539  -2.664  25.439  0.00  0.00    -0.166 F 
ATOM     30  F   UNL     1      -1.895  -2.403  23.941  0.00  0.00    -0.166 F 
ENDBRANCH  23  27
ENDBRANCH  18  21
ENDBRANCH  17  18
ENDBRANCH  16  17
TORSDOF 7
ENDMDL
