MODEL 1
REMARK VINA RESULT:     -11.9      0.000      0.000
REMARK  Name = 
REMARK  7 active torsions:
REMARK  status: ('A' for Active; 'I' for Inactive)
REMARK    1  A    between atoms: C_2  and  C_3
REMARK    2  A    between atoms: C_3  and  C_4
REMARK    3  A    between atoms: C_9  and  C_10
REMARK    4  A    between atoms: C_10  and  C_11
REMARK    5  A    between atoms: C_14  and  C_15
REMARK    6  A    between atoms: C_15  and  S_16
REMARK    7  A    between atoms: S_16  and  C_17
REMARK                            x       y       z     vdW  Elec       q    Type
REMARK                         _______ _______ _______ _____ _____    ______ ____
ROOT
ATOM      4  C   UNL     1      -2.710   3.347  25.147  0.00  0.00    +0.012 C 
ATOM      5  C   UNL     1      -2.441   3.828  25.760  0.00  0.00    +0.019 C 
ATOM      6  C   UNL     1      -2.979   4.169  26.284  0.00  0.00    +0.089 C 
ATOM      7  N   UNL     1      -3.787   4.030  26.194  0.00  0.00    -0.218 NA
ATOM      8  C   UNL     1      -4.057   3.548  25.580  0.00  0.00    +0.089 C 
ATOM      9  C   UNL     1      -3.518   3.207  25.057  0.00  0.00    +0.024 C 
ENDROOT
BRANCH   4   3
ATOM      3  C   UNL     1      -2.172   3.005  24.623  0.00  0.00    +0.085 C 
BRANCH   3   2
ATOM      1  O   UNL     1      -1.113   3.853  25.072  0.00  0.00    -0.275 OA
ATOM      2  C   UNL     1      -1.366   3.162  24.700  0.00  0.00    +0.226 C 
ATOM     24  N   UNL     1      -0.811   2.627  24.404  0.00  0.00    -0.276 N 
ATOM     25  C   UNL     1      -0.005   2.784  24.481  0.00  0.00    +0.115 C 
ATOM     26  C   UNL     1       0.549   2.249  24.185  0.00  0.00    +0.114 C 
ATOM     27  N   UNL     1       0.298   1.557  23.812  0.00  0.00    -0.290 N 
ATOM     28  C   UNL     1      -0.508   1.400  23.736  0.00  0.00    +0.114 C 
ATOM     29  C   UNL     1      -1.063   1.935  24.031  0.00  0.00    +0.115 C 
ATOM     30  C   UNL     1       0.852   1.023  23.517  0.00  0.00    +0.132 A 
ATOM     31  N   UNL     1       1.658   1.180  23.594  0.00  0.00    -0.229 NA
ATOM     32  C   UNL     1       2.213   0.645  23.298  0.00  0.00    +0.100 A 
ATOM     33  C   UNL     1       1.960  -0.046  22.925  0.00  0.00    +0.021 A 
ATOM     34  C   UNL     1       1.154  -0.203  22.849  0.00  0.00    +0.004 A 
ATOM     35  C   UNL     1       0.600   0.331  23.144  0.00  0.00    +0.034 A 
ENDBRANCH   3   2
ENDBRANCH   4   3
BRANCH   9  10
ATOM     10  C   UNL     1      -3.788   2.725  24.443  0.00  0.00    +0.051 C 
BRANCH  10  11
ATOM     11  C   UNL     1      -4.218   2.042  24.613  0.00  0.00    +0.100 A 
ATOM     12  N   UNL     1      -4.983   2.015  24.922  0.00  0.00    -0.082 NA
ATOM     13  O   UNL     1      -5.196   1.223  25.004  0.00  0.00    -0.357 OA
ATOM     14  C   UNL     1      -4.564   0.760  24.746  0.00  0.00    +0.165 A 
ATOM     23  C   UNL     1      -3.960   1.267  24.504  0.00  0.00    +0.054 A 
BRANCH  14  15
ATOM     15  C   UNL     1      -4.540  -0.065  24.732  0.00  0.00    +0.129 C 
BRANCH  15  16
ATOM     16  S   UNL     1      -3.897  -0.453  24.393  0.00  0.00    -0.105 S 
BRANCH  16  17
ATOM     17  C   UNL     1      -3.849  -1.277  24.424  0.00  0.00    +0.026 A 
ATOM     18  C   UNL     1      -4.248  -1.734  23.865  0.00  0.00    +0.006 A 
ATOM     19  C   UNL     1      -4.200  -2.557  23.896  0.00  0.00    +0.001 A 
ATOM     20  C   UNL     1      -3.753  -2.923  24.485  0.00  0.00    +0.000 A 
ATOM     21  C   UNL     1      -3.353  -2.465  25.043  0.00  0.00    +0.001 A 
ATOM     22  C   UNL     1      -3.402  -1.642  25.012  0.00  0.00    +0.006 A 
ENDBRANCH  16  17
ENDBRANCH  15  16
ENDBRANCH  14  15
ENDBRANCH  10  11
ENDBRANCH   9  10
TORSDOF 7
ENDMDL
MODEL 2
REMARK VINA RESULT:     -11.7      1.930      3.964
REMARK  Name = 
REMARK  7 active torsions:
REMARK  status: ('A' for Active; 'I' for Inactive)
REMARK    1  A    between atoms: C_2  and  C_3
REMARK    2  A    between atoms: C_3  and  C_4
REMARK    3  A    between atoms: C_9  and  C_10
REMARK    4  A    between atoms: C_10  and  C_11
REMARK    5  A    between atoms: C_14  and  C_15
REMARK    6  A    between atoms: C_15  and  S_16
REMARK    7  A    between atoms: S_16  and  C_17
REMARK                            x       y       z     vdW  Elec       q    Type
REMARK                         _______ _______ _______ _____ _____    ______ ____
ROOT
ATOM      4  C   UNL     1      -0.605   2.631  24.904  0.00  0.00    +0.012 C 
ATOM      5  C   UNL     1      -0.145   2.626  24.220  0.00  0.00    +0.019 C 
ATOM      6  C   UNL     1       0.066   3.337  23.859  0.00  0.00    +0.089 C 
ATOM      7  N   UNL     1      -0.183   4.054  24.183  0.00  0.00    -0.218 NA
ATOM      8  C   UNL     1      -0.644   4.059  24.868  0.00  0.00    +0.089 C 
ATOM      9  C   UNL     1      -0.854   3.347  25.228  0.00  0.00    +0.024 C 
ENDROOT
BRANCH   4   3
ATOM      3  C   UNL     1      -0.816   1.920  25.265  0.00  0.00    +0.085 C 
BRANCH   3   2
ATOM      1  O   UNL     1       0.310   1.176  24.794  0.00  0.00    -0.275 OA
ATOM      2  C   UNL     1      -0.487   1.210  25.001  0.00  0.00    +0.226 C 
ATOM     24  N   UNL     1      -0.957   0.534  24.944  0.00  0.00    -0.276 N 
ATOM     25  C   UNL     1      -0.629  -0.176  24.680  0.00  0.00    +0.115 C 
ATOM     26  C   UNL     1      -1.098  -0.851  24.623  0.00  0.00    +0.114 C 
ATOM     27  N   UNL     1      -1.896  -0.818  24.830  0.00  0.00    -0.290 N 
ATOM     28  C   UNL     1      -2.225  -0.109  25.094  0.00  0.00    +0.114 C 
ATOM     29  C   UNL     1      -1.755   0.568  25.151  0.00  0.00    +0.115 C 
ATOM     30  C   UNL     1      -2.366  -1.494  24.774  0.00  0.00    +0.132 A 
ATOM     31  N   UNL     1      -2.037  -2.203  24.510  0.00  0.00    -0.229 NA
ATOM     32  C   UNL     1      -2.507  -2.880  24.453  0.00  0.00    +0.100 A 
ATOM     33  C   UNL     1      -3.305  -2.846  24.660  0.00  0.00    +0.021 A 
ATOM     34  C   UNL     1      -3.633  -2.136  24.924  0.00  0.00    +0.004 A 
ATOM     35  C   UNL     1      -3.164  -1.461  24.981  0.00  0.00    +0.034 A 
ENDBRANCH   3   2
ENDBRANCH   4   3
BRANCH   9  10
ATOM     10  C   UNL     1      -1.315   3.352  25.913  0.00  0.00    +0.051 C 
BRANCH  10  11
ATOM     11  C   UNL     1      -2.066   3.694  25.903  0.00  0.00    +0.100 A 
ATOM     12  N   UNL     1      -2.231   4.502  25.886  0.00  0.00    -0.082 NA
ATOM     13  O   UNL     1      -3.050   4.595  25.880  0.00  0.00    -0.357 OA
ATOM     14  C   UNL     1      -3.392   3.844  25.894  0.00  0.00    +0.165 A 
ATOM     23  C   UNL     1      -2.784   3.287  25.908  0.00  0.00    +0.054 A 
BRANCH  14  15
ATOM     15  C   UNL     1      -4.201   3.678  25.894  0.00  0.00    +0.129 C 
BRANCH  15  16
ATOM     16  S   UNL     1      -4.566   3.406  25.207  0.00  0.00    -0.105 S 
BRANCH  16  17
ATOM     17  C   UNL     1      -5.147   2.821  25.253  0.00  0.00    +0.026 A 
ATOM     18  C   UNL     1      -5.703   2.839  25.861  0.00  0.00    +0.006 A 
ATOM     19  C   UNL     1      -6.284   2.255  25.907  0.00  0.00    +0.001 A 
ATOM     20  C   UNL     1      -6.309   1.653  25.343  0.00  0.00    +0.000 A 
ATOM     21  C   UNL     1      -5.752   1.635  24.734  0.00  0.00    +0.001 A 
ATOM     22  C   UNL     1      -5.171   2.219  24.689  0.00  0.00    +0.006 A 
ENDBRANCH  16  17
ENDBRANCH  15  16
ENDBRANCH  14  15
ENDBRANCH  10  11
ENDBRANCH   9  10
TORSDOF 7
ENDMDL
MODEL 3
REMARK VINA RESULT:     -11.3      2.377      6.446
REMARK  Name = 
REMARK  7 active torsions:
REMARK  status: ('A' for Active; 'I' for Inactive)
REMARK    1  A    between atoms: C_2  and  C_3
REMARK    2  A    between atoms: C_3  and  C_4
REMARK    3  A    between atoms: C_9  and  C_10
REMARK    4  A    between atoms: C_10  and  C_11
REMARK    5  A    between atoms: C_14  and  C_15
REMARK    6  A    between atoms: C_15  and  S_16
REMARK    7  A    between atoms: S_16  and  C_17
REMARK                            x       y       z     vdW  Elec       q    Type
REMARK                         _______ _______ _______ _____ _____    ______ ____
ROOT
ATOM      4  C   UNL     1      -1.251  -0.482  24.575  0.00  0.00    +0.012 C 
ATOM      5  C   UNL     1      -1.491  -1.102  25.062  0.00  0.00    +0.019 C 
ATOM      6  C   UNL     1      -0.960  -1.702  25.261  0.00  0.00    +0.089 C 
ATOM      7  N   UNL     1      -0.188  -1.681  24.971  0.00  0.00    -0.218 NA
ATOM      8  C   UNL     1       0.053  -1.060  24.483  0.00  0.00    +0.089 C 
ATOM      9  C   UNL     1      -0.478  -0.461  24.286  0.00  0.00    +0.024 C 
ENDROOT
BRANCH   4   3
ATOM      3  C   UNL     1      -1.781   0.118  24.377  0.00  0.00    +0.085 C 
BRANCH   3   2
ATOM      1  O   UNL     1      -2.910  -0.759  24.371  0.00  0.00    -0.275 OA
ATOM      2  C   UNL     1      -2.593  -0.004  24.466  0.00  0.00    +0.226 C 
ATOM     24  N   UNL     1      -3.087   0.631  24.650  0.00  0.00    -0.276 N 
ATOM     25  C   UNL     1      -3.899   0.509  24.740  0.00  0.00    +0.115 C 
ATOM     26  C   UNL     1      -4.392   1.143  24.924  0.00  0.00    +0.114 C 
ATOM     27  N   UNL     1      -4.076   1.899  25.019  0.00  0.00    -0.290 N 
ATOM     28  C   UNL     1      -3.265   2.021  24.930  0.00  0.00    +0.114 C 
ATOM     29  C   UNL     1      -2.770   1.386  24.745  0.00  0.00    +0.115 C 
ATOM     30  C   UNL     1      -4.570   2.533  25.203  0.00  0.00    +0.132 A 
ATOM     31  N   UNL     1      -5.381   2.412  25.293  0.00  0.00    -0.229 NA
ATOM     32  C   UNL     1      -5.876   3.046  25.477  0.00  0.00    +0.100 A 
ATOM     33  C   UNL     1      -5.559   3.802  25.572  0.00  0.00    +0.021 A 
ATOM     34  C   UNL     1      -4.748   3.923  25.482  0.00  0.00    +0.004 A 
ATOM     35  C   UNL     1      -4.254   3.289  25.298  0.00  0.00    +0.034 A 
ENDBRANCH   3   2
ENDBRANCH   4   3
BRANCH   9  10
ATOM     10  C   UNL     1      -0.237   0.160  23.798  0.00  0.00    +0.051 C 
BRANCH  10  11
ATOM     11  C   UNL     1       0.467   0.100  23.372  0.00  0.00    +0.100 A 
ATOM     12  N   UNL     1       0.572  -0.308  22.662  0.00  0.00    -0.082 NA
ATOM     13  O   UNL     1       1.359  -0.222  22.433  0.00  0.00    -0.357 OA
ATOM     14  C   UNL     1       1.741   0.239  23.000  0.00  0.00    +0.165 A 
ATOM     23  C   UNL     1       1.190   0.438  23.580  0.00  0.00    +0.054 A 
BRANCH  14  15
ATOM     15  C   UNL     1       2.536   0.462  22.989  0.00  0.00    +0.129 C 
BRANCH  15  16
ATOM     16  S   UNL     1       3.115  -0.085  22.776  0.00  0.00    -0.105 S 
BRANCH  16  17
ATOM     17  C   UNL     1       3.886  -0.001  23.057  0.00  0.00    +0.026 A 
ATOM     18  C   UNL     1       4.289   0.710  22.949  0.00  0.00    +0.006 A 
ATOM     19  C   UNL     1       5.061   0.793  23.230  0.00  0.00    +0.001 A 
ATOM     20  C   UNL     1       5.428   0.165  23.621  0.00  0.00    +0.000 A 
ATOM     21  C   UNL     1       5.023  -0.546  23.729  0.00  0.00    +0.001 A 
ATOM     22  C   UNL     1       4.253  -0.629  23.447  0.00  0.00    +0.006 A 
ENDBRANCH  16  17
ENDBRANCH  15  16
ENDBRANCH  14  15
ENDBRANCH  10  11
ENDBRANCH   9  10
TORSDOF 7
ENDMDL
MODEL 4
REMARK VINA RESULT:     -11.2      1.546      4.455
REMARK  Name = 
REMARK  7 active torsions:
REMARK  status: ('A' for Active; 'I' for Inactive)
REMARK    1  A    between atoms: C_2  and  C_3
REMARK    2  A    between atoms: C_3  and  C_4
REMARK    3  A    between atoms: C_9  and  C_10
REMARK    4  A    between atoms: C_10  and  C_11
REMARK    5  A    between atoms: C_14  and  C_15
REMARK    6  A    between atoms: C_15  and  S_16
REMARK    7  A    between atoms: S_16  and  C_17
REMARK                            x       y       z     vdW  Elec       q    Type
REMARK                         _______ _______ _______ _____ _____    ______ ____
ROOT
ATOM      4  C   UNL     1      -0.682   2.682  25.057  0.00  0.00    +0.012 C 
ATOM      5  C   UNL     1      -0.507   3.075  25.761  0.00  0.00    +0.019 C 
ATOM      6  C   UNL     1       0.191   2.905  26.167  0.00  0.00    +0.089 C 
ATOM      7  N   UNL     1       0.715   2.342  25.868  0.00  0.00    -0.218 NA
ATOM      8  C   UNL     1       0.540   1.948  25.163  0.00  0.00    +0.089 C 
ATOM      9  C   UNL     1      -0.158   2.119  24.759  0.00  0.00    +0.024 C 
ENDROOT
BRANCH   4   3
ATOM      3  C   UNL     1      -1.380   2.852  24.652  0.00  0.00    +0.085 C 
BRANCH   3   2
ATOM      1  O   UNL     1      -1.672   4.133  25.216  0.00  0.00    -0.275 OA
ATOM      2  C   UNL     1      -1.922   3.386  24.970  0.00  0.00    +0.226 C 
ATOM     24  N   UNL     1      -2.717   3.173  25.044  0.00  0.00    -0.276 N 
ATOM     25  C   UNL     1      -3.259   3.707  25.363  0.00  0.00    +0.115 C 
ATOM     26  C   UNL     1      -4.052   3.494  25.436  0.00  0.00    +0.114 C 
ATOM     27  N   UNL     1      -4.304   2.747  25.191  0.00  0.00    -0.290 N 
ATOM     28  C   UNL     1      -3.762   2.214  24.872  0.00  0.00    +0.114 C 
ATOM     29  C   UNL     1      -2.967   2.427  24.799  0.00  0.00    +0.115 C 
ATOM     30  C   UNL     1      -5.097   2.534  25.265  0.00  0.00    +0.132 A 
ATOM     31  N   UNL     1      -5.639   3.068  25.583  0.00  0.00    -0.229 NA
ATOM     32  C   UNL     1      -6.434   2.855  25.657  0.00  0.00    +0.100 A 
ATOM     33  C   UNL     1      -6.684   2.109  25.412  0.00  0.00    +0.021 A 
ATOM     34  C   UNL     1      -6.142   1.575  25.093  0.00  0.00    +0.004 A 
ATOM     35  C   UNL     1      -5.349   1.788  25.019  0.00  0.00    +0.034 A 
ENDBRANCH   3   2
ENDBRANCH   4   3
BRANCH   9  10
ATOM     10  C   UNL     1      -0.333   1.726  24.054  0.00  0.00    +0.051 C 
BRANCH  10  11
ATOM     11  C   UNL     1      -0.284   0.903  24.018  0.00  0.00    +0.100 A 
ATOM     12  N   UNL     1       0.389   0.465  23.823  0.00  0.00    -0.082 NA
ATOM     13  O   UNL     1       0.190  -0.334  23.855  0.00  0.00    -0.357 OA
ATOM     14  C   UNL     1      -0.605  -0.391  24.069  0.00  0.00    +0.165 A 
ATOM     23  C   UNL     1      -0.897   0.373  24.169  0.00  0.00    +0.054 A 
BRANCH  14  15
ATOM     15  C   UNL     1      -1.032  -1.091  24.165  0.00  0.00    +0.129 C 
BRANCH  15  16
ATOM     16  S   UNL     1      -1.452  -1.225  24.862  0.00  0.00    -0.105 S 
BRANCH  16  17
ATOM     17  C   UNL     1      -2.133  -1.692  24.850  0.00  0.00    +0.026 A 
ATOM     18  C   UNL     1      -2.112  -2.442  24.507  0.00  0.00    +0.006 A 
ATOM     19  C   UNL     1      -2.793  -2.909  24.496  0.00  0.00    +0.001 A 
ATOM     20  C   UNL     1      -3.494  -2.625  24.828  0.00  0.00    +0.000 A 
ATOM     21  C   UNL     1      -3.513  -1.875  25.171  0.00  0.00    +0.001 A 
ATOM     22  C   UNL     1      -2.832  -1.409  25.182  0.00  0.00    +0.006 A 
ENDBRANCH  16  17
ENDBRANCH  15  16
ENDBRANCH  14  15
ENDBRANCH  10  11
ENDBRANCH   9  10
TORSDOF 7
ENDMDL
MODEL 5
REMARK VINA RESULT:     -10.8      1.901      5.974
REMARK  Name = 
REMARK  7 active torsions:
REMARK  status: ('A' for Active; 'I' for Inactive)
REMARK    1  A    between atoms: C_2  and  C_3
REMARK    2  A    between atoms: C_3  and  C_4
REMARK    3  A    between atoms: C_9  and  C_10
REMARK    4  A    between atoms: C_10  and  C_11
REMARK    5  A    between atoms: C_14  and  C_15
REMARK    6  A    between atoms: C_15  and  S_16
REMARK    7  A    between atoms: S_16  and  C_17
REMARK                            x       y       z     vdW  Elec       q    Type
REMARK                         _______ _______ _______ _____ _____    ______ ____
ROOT
ATOM      4  C   UNL     1      -1.522  -0.769  24.537  0.00  0.00    +0.012 C 
ATOM      5  C   UNL     1      -1.591  -1.380  25.086  0.00  0.00    +0.019 C 
ATOM      6  C   UNL     1      -0.915  -1.755  25.373  0.00  0.00    +0.089 C 
ATOM      7  N   UNL     1      -0.169  -1.519  25.111  0.00  0.00    -0.218 NA
ATOM      8  C   UNL     1      -0.100  -0.907  24.561  0.00  0.00    +0.089 C 
ATOM      9  C   UNL     1      -0.777  -0.532  24.274  0.00  0.00    +0.024 C 
ENDROOT
BRANCH   4   3
ATOM      3  C   UNL     1      -2.198  -0.393  24.249  0.00  0.00    +0.085 C 
BRANCH   3   2
ATOM      1  O   UNL     1      -3.137  -1.394  24.650  0.00  0.00    -0.275 OA
ATOM      2  C   UNL     1      -2.941  -0.600  24.544  0.00  0.00    +0.226 C 
ATOM     24  N   UNL     1      -3.489  -0.012  24.732  0.00  0.00    -0.276 N 
ATOM     25  C   UNL     1      -4.231  -0.218  25.027  0.00  0.00    +0.115 C 
ATOM     26  C   UNL     1      -4.778   0.370  25.215  0.00  0.00    +0.114 C 
ATOM     27  N   UNL     1      -4.583   1.165  25.109  0.00  0.00    -0.290 N 
ATOM     28  C   UNL     1      -3.841   1.371  24.814  0.00  0.00    +0.114 C 
ATOM     29  C   UNL     1      -3.293   0.783  24.626  0.00  0.00    +0.115 C 
ATOM     30  C   UNL     1      -5.130   1.752  25.297  0.00  0.00    +0.132 A 
ATOM     31  N   UNL     1      -5.872   1.546  25.591  0.00  0.00    -0.229 NA
ATOM     32  C   UNL     1      -6.420   2.134  25.780  0.00  0.00    +0.100 A 
ATOM     33  C   UNL     1      -6.224   2.928  25.673  0.00  0.00    +0.021 A 
ATOM     34  C   UNL     1      -5.482   3.135  25.379  0.00  0.00    +0.004 A 
ATOM     35  C   UNL     1      -4.935   2.547  25.191  0.00  0.00    +0.034 A 
ENDBRANCH   3   2
ENDBRANCH   4   3
BRANCH   9  10
ATOM     10  C   UNL     1      -0.707   0.080  23.724  0.00  0.00    +0.051 C 
BRANCH  10  11
ATOM     11  C   UNL     1      -0.285   0.762  23.917  0.00  0.00    +0.100 A 
ATOM     12  N   UNL     1       0.532   0.813  24.022  0.00  0.00    -0.082 NA
ATOM     13  O   UNL     1       0.715   1.595  24.208  0.00  0.00    -0.357 OA
ATOM     14  C   UNL     1       0.013   2.027  24.219  0.00  0.00    +0.165 A 
ATOM     23  C   UNL     1      -0.606   1.512  24.039  0.00  0.00    +0.054 A 
BRANCH  14  15
ATOM     15  C   UNL     1      -0.059   2.833  24.382  0.00  0.00    +0.129 C 
BRANCH  15  16
ATOM     16  S   UNL     1      -0.410   3.083  25.084  0.00  0.00    -0.105 S 
BRANCH  16  17
ATOM     17  C   UNL     1      -0.797   3.811  25.117  0.00  0.00    +0.026 A 
ATOM     18  C   UNL     1      -1.515   3.879  25.517  0.00  0.00    +0.006 A 
ATOM     19  C   UNL     1      -1.901   4.608  25.549  0.00  0.00    +0.001 A 
ATOM     20  C   UNL     1      -1.568   5.269  25.182  0.00  0.00    +0.000 A 
ATOM     21  C   UNL     1      -0.850   5.199  24.783  0.00  0.00    +0.001 A 
ATOM     22  C   UNL     1      -0.464   4.471  24.750  0.00  0.00    +0.006 A 
ENDBRANCH  16  17
ENDBRANCH  15  16
ENDBRANCH  14  15
ENDBRANCH  10  11
ENDBRANCH   9  10
TORSDOF 7
ENDMDL
MODEL 6
REMARK VINA RESULT:     -10.7      1.908      4.235
REMARK  Name = 
REMARK  7 active torsions:
REMARK  status: ('A' for Active; 'I' for Inactive)
REMARK    1  A    between atoms: C_2  and  C_3
REMARK    2  A    between atoms: C_3  and  C_4
REMARK    3  A    between atoms: C_9  and  C_10
REMARK    4  A    between atoms: C_10  and  C_11
REMARK    5  A    between atoms: C_14  and  C_15
REMARK    6  A    between atoms: C_15  and  S_16
REMARK    7  A    between atoms: S_16  and  C_17
REMARK                            x       y       z     vdW  Elec       q    Type
REMARK                         _______ _______ _______ _____ _____    ______ ____
ROOT
ATOM      4  C   UNL     1      -1.128  -0.831  24.853  0.00  0.00    +0.012 C 
ATOM      5  C   UNL     1      -0.606  -1.147  24.299  0.00  0.00    +0.019 C 
ATOM      6  C   UNL     1      -0.732  -1.904  23.997  0.00  0.00    +0.089 C 
ATOM      7  N   UNL     1      -1.381  -2.346  24.251  0.00  0.00    -0.218 NA
ATOM      8  C   UNL     1      -1.904  -2.030  24.806  0.00  0.00    +0.089 C 
ATOM      9  C   UNL     1      -1.777  -1.273  25.107  0.00  0.00    +0.024 C 
ENDROOT
BRANCH   4   3
ATOM      3  C   UNL     1      -1.002  -0.073  25.155  0.00  0.00    +0.085 C 
BRANCH   3   2
ATOM      1  O   UNL     1       0.175   0.128  24.370  0.00  0.00    -0.275 OA
ATOM      2  C   UNL     1      -0.470   0.435  24.782  0.00  0.00    +0.226 C 
ATOM     24  N   UNL     1      -0.583   1.252  24.822  0.00  0.00    -0.276 N 
ATOM     25  C   UNL     1      -0.050   1.761  24.450  0.00  0.00    +0.115 C 
ATOM     26  C   UNL     1      -0.163   2.576  24.490  0.00  0.00    +0.114 C 
ATOM     27  N   UNL     1      -0.808   2.885  24.902  0.00  0.00    -0.290 N 
ATOM     28  C   UNL     1      -1.340   2.376  25.275  0.00  0.00    +0.114 C 
ATOM     29  C   UNL     1      -1.227   1.559  25.235  0.00  0.00    +0.115 C 
ATOM     30  C   UNL     1      -0.920   3.701  24.943  0.00  0.00    +0.132 A 
ATOM     31  N   UNL     1      -0.388   4.209  24.570  0.00  0.00    -0.229 NA
ATOM     32  C   UNL     1      -0.501   5.026  24.610  0.00  0.00    +0.100 A 
ATOM     33  C   UNL     1      -1.145   5.333  25.023  0.00  0.00    +0.021 A 
ATOM     34  C   UNL     1      -1.678   4.825  25.395  0.00  0.00    +0.004 A 
ATOM     35  C   UNL     1      -1.565   4.009  25.355  0.00  0.00    +0.034 A 
ENDBRANCH   3   2
ENDBRANCH   4   3
BRANCH   9  10
ATOM     10  C   UNL     1      -2.300  -0.957  25.663  0.00  0.00    +0.051 C 
BRANCH  10  11
ATOM     11  C   UNL     1      -3.087  -0.821  25.458  0.00  0.00    +0.100 A 
ATOM     12  N   UNL     1      -3.596  -1.364  25.100  0.00  0.00    -0.082 NA
ATOM     13  O   UNL     1      -4.327  -0.997  24.996  0.00  0.00    -0.357 OA
ATOM     14  C   UNL     1      -4.270  -0.228  25.289  0.00  0.00    +0.165 A 
ATOM     23  C   UNL     1      -3.504  -0.119  25.574  0.00  0.00    +0.054 A 
BRANCH  14  15
ATOM     15  C   UNL     1      -4.875   0.334  25.295  0.00  0.00    +0.129 C 
BRANCH  15  16
ATOM     16  S   UNL     1      -4.837   0.987  24.793  0.00  0.00    -0.105 S 
BRANCH  16  17
ATOM     17  C   UNL     1      -5.141   1.714  25.037  0.00  0.00    +0.026 A 
ATOM     18  C   UNL     1      -4.801   2.415  24.767  0.00  0.00    +0.006 A 
ATOM     19  C   UNL     1      -5.106   3.142  25.010  0.00  0.00    +0.001 A 
ATOM     20  C   UNL     1      -5.751   3.168  25.524  0.00  0.00    +0.000 A 
ATOM     21  C   UNL     1      -6.091   2.466  25.794  0.00  0.00    +0.001 A 
ATOM     22  C   UNL     1      -5.786   1.740  25.550  0.00  0.00    +0.006 A 
ENDBRANCH  16  17
ENDBRANCH  15  16
ENDBRANCH  14  15
ENDBRANCH  10  11
ENDBRANCH   9  10
TORSDOF 7
ENDMDL
MODEL 7
REMARK VINA RESULT:     -10.3      1.907      4.941
REMARK  Name = 
REMARK  7 active torsions:
REMARK  status: ('A' for Active; 'I' for Inactive)
REMARK    1  A    between atoms: C_2  and  C_3
REMARK    2  A    between atoms: C_3  and  C_4
REMARK    3  A    between atoms: C_9  and  C_10
REMARK    4  A    between atoms: C_10  and  C_11
REMARK    5  A    between atoms: C_14  and  C_15
REMARK    6  A    between atoms: C_15  and  S_16
REMARK    7  A    between atoms: S_16  and  C_17
REMARK                            x       y       z     vdW  Elec       q    Type
REMARK                         _______ _______ _______ _____ _____    ______ ____
ROOT
ATOM      4  C   UNL     1      -3.629  -0.404  24.750  0.00  0.00    +0.012 C 
ATOM      5  C   UNL     1      -4.333  -0.376  24.321  0.00  0.00    +0.019 C 
ATOM      6  C   UNL     1      -4.630  -1.061  23.970  0.00  0.00    +0.089 C 
ATOM      7  N   UNL     1      -4.223  -1.774  24.048  0.00  0.00    -0.218 NA
ATOM      8  C   UNL     1      -3.518  -1.802  24.477  0.00  0.00    +0.089 C 
ATOM      9  C   UNL     1      -3.222  -1.117  24.828  0.00  0.00    +0.024 C 
ENDROOT
BRANCH   4   3
ATOM      3  C   UNL     1      -3.332   0.281  25.101  0.00  0.00    +0.085 C 
BRANCH   3   2
ATOM      1  O   UNL     1      -4.586   0.961  25.024  0.00  0.00    -0.275 OA
ATOM      2  C   UNL     1      -3.763   0.983  25.065  0.00  0.00    +0.226 C 
ATOM     24  N   UNL     1      -3.370   1.710  25.070  0.00  0.00    -0.276 N 
ATOM     25  C   UNL     1      -3.801   2.412  25.033  0.00  0.00    +0.115 C 
ATOM     26  C   UNL     1      -3.409   3.137  25.038  0.00  0.00    +0.114 C 
ATOM     27  N   UNL     1      -2.585   3.161  25.079  0.00  0.00    -0.290 N 
ATOM     28  C   UNL     1      -2.154   2.459  25.116  0.00  0.00    +0.114 C 
ATOM     29  C   UNL     1      -2.547   1.732  25.111  0.00  0.00    +0.115 C 
ATOM     30  C   UNL     1      -2.193   3.886  25.084  0.00  0.00    +0.132 A 
ATOM     31  N   UNL     1      -2.624   4.588  25.048  0.00  0.00    -0.229 NA
ATOM     32  C   UNL     1      -2.232   5.315  25.052  0.00  0.00    +0.100 A 
ATOM     33  C   UNL     1      -1.408   5.337  25.094  0.00  0.00    +0.021 A 
ATOM     34  C   UNL     1      -0.977   4.635  25.130  0.00  0.00    +0.004 A 
ATOM     35  C   UNL     1      -1.369   3.910  25.125  0.00  0.00    +0.034 A 
ENDBRANCH   3   2
ENDBRANCH   4   3
BRANCH   9  10
ATOM     10  C   UNL     1      -2.517  -1.146  25.257  0.00  0.00    +0.051 C 
BRANCH  10  11
ATOM     11  C   UNL     1      -1.813  -1.356  24.881  0.00  0.00    +0.100 A 
ATOM     12  N   UNL     1      -1.608  -2.114  24.625  0.00  0.00    -0.082 NA
ATOM     13  O   UNL     1      -0.860  -2.072  24.281  0.00  0.00    -0.357 OA
ATOM     14  C   UNL     1      -0.602  -1.289  24.325  0.00  0.00    +0.165 A 
ATOM     23  C   UNL     1      -1.191  -0.847  24.696  0.00  0.00    +0.054 A 
BRANCH  14  15
ATOM     15  C   UNL     1       0.119  -1.000  24.047  0.00  0.00    +0.129 C 
BRANCH  15  16
ATOM     16  S   UNL     1       0.135  -0.350  23.540  0.00  0.00    -0.105 S 
BRANCH  16  17
ATOM     17  C   UNL     1       0.856  -0.057  23.266  0.00  0.00    +0.026 A 
ATOM     18  C   UNL     1       1.174   0.628  23.595  0.00  0.00    +0.006 A 
ATOM     19  C   UNL     1       1.895   0.921  23.322  0.00  0.00    +0.001 A 
ATOM     20  C   UNL     1       2.299   0.528  22.718  0.00  0.00    +0.000 A 
ATOM     21  C   UNL     1       1.980  -0.158  22.389  0.00  0.00    +0.001 A 
ATOM     22  C   UNL     1       1.259  -0.451  22.663  0.00  0.00    +0.006 A 
ENDBRANCH  16  17
ENDBRANCH  15  16
ENDBRANCH  14  15
ENDBRANCH  10  11
ENDBRANCH   9  10
TORSDOF 7
ENDMDL
MODEL 8
REMARK VINA RESULT:     -10.3      2.095      4.349
REMARK  Name = 
REMARK  7 active torsions:
REMARK  status: ('A' for Active; 'I' for Inactive)
REMARK    1  A    between atoms: C_2  and  C_3
REMARK    2  A    between atoms: C_3  and  C_4
REMARK    3  A    between atoms: C_9  and  C_10
REMARK    4  A    between atoms: C_10  and  C_11
REMARK    5  A    between atoms: C_14  and  C_15
REMARK    6  A    between atoms: C_15  and  S_16
REMARK    7  A    between atoms: S_16  and  C_17
REMARK                            x       y       z     vdW  Elec       q    Type
REMARK                         _______ _______ _______ _____ _____    ______ ____
ROOT
ATOM      4  C   UNL     1      -5.043   2.189  25.092  0.00  0.00    +0.012 C 
ATOM      5  C   UNL     1      -5.587   1.920  25.650  0.00  0.00    +0.019 C 
ATOM      6  C   UNL     1      -6.018   2.460  26.101  0.00  0.00    +0.089 C 
ATOM      7  N   UNL     1      -5.905   3.270  25.993  0.00  0.00    -0.218 NA
ATOM      8  C   UNL     1      -5.360   3.540  25.434  0.00  0.00    +0.089 C 
ATOM      9  C   UNL     1      -4.930   2.999  24.984  0.00  0.00    +0.024 C 
ENDROOT
BRANCH   4   3
ATOM      3  C   UNL     1      -4.612   1.649  24.641  0.00  0.00    +0.085 C 
BRANCH   3   2
ATOM      1  O   UNL     1      -5.616   0.633  24.662  0.00  0.00    -0.275 OA
ATOM      2  C   UNL     1      -4.821   0.851  24.642  0.00  0.00    +0.226 C 
ATOM     24  N   UNL     1      -4.234   0.271  24.624  0.00  0.00    -0.276 N 
ATOM     25  C   UNL     1      -4.443  -0.528  24.626  0.00  0.00    +0.115 C 
ATOM     26  C   UNL     1      -3.857  -1.107  24.608  0.00  0.00    +0.114 C 
ATOM     27  N   UNL     1      -3.061  -0.890  24.588  0.00  0.00    -0.290 N 
ATOM     28  C   UNL     1      -2.852  -0.091  24.586  0.00  0.00    +0.114 C 
ATOM     29  C   UNL     1      -3.439   0.489  24.604  0.00  0.00    +0.115 C 
ATOM     30  C   UNL     1      -2.475  -1.469  24.570  0.00  0.00    +0.132 A 
ATOM     31  N   UNL     1      -2.684  -2.267  24.572  0.00  0.00    -0.229 NA
ATOM     32  C   UNL     1      -2.098  -2.848  24.553  0.00  0.00    +0.100 A 
ATOM     33  C   UNL     1      -1.302  -2.629  24.533  0.00  0.00    +0.021 A 
ATOM     34  C   UNL     1      -1.093  -1.831  24.531  0.00  0.00    +0.004 A 
ATOM     35  C   UNL     1      -1.679  -1.252  24.550  0.00  0.00    +0.034 A 
ENDBRANCH   3   2
ENDBRANCH   4   3
BRANCH   9  10
ATOM     10  C   UNL     1      -4.385   3.269  24.425  0.00  0.00    +0.051 C 
BRANCH  10  11
ATOM     11  C   UNL     1      -3.735   3.716  24.665  0.00  0.00    +0.100 A 
ATOM     12  N   UNL     1      -3.686   4.540  24.669  0.00  0.00    -0.082 NA
ATOM     13  O   UNL     1      -2.940   4.749  24.950  0.00  0.00    -0.357 OA
ATOM     14  C   UNL     1      -2.527   4.056  25.119  0.00  0.00    +0.165 A 
ATOM     23  C   UNL     1      -3.018   3.417  24.943  0.00  0.00    +0.054 A 
BRANCH  14  15
ATOM     15  C   UNL     1      -1.757   4.009  25.413  0.00  0.00    +0.129 C 
BRANCH  15  16
ATOM     16  S   UNL     1      -1.139   3.783  24.916  0.00  0.00    -0.105 S 
BRANCH  16  17
ATOM     17  C   UNL     1      -0.616   3.190  25.152  0.00  0.00    +0.026 A 
ATOM     18  C   UNL     1      -0.420   3.105  25.949  0.00  0.00    +0.006 A 
ATOM     19  C   UNL     1       0.103   2.512  26.184  0.00  0.00    +0.001 A 
ATOM     20  C   UNL     1       0.430   2.003  25.623  0.00  0.00    +0.000 A 
ATOM     21  C   UNL     1       0.233   2.088  24.826  0.00  0.00    +0.001 A 
ATOM     22  C   UNL     1      -0.289   2.681  24.591  0.00  0.00    +0.006 A 
ENDBRANCH  16  17
ENDBRANCH  15  16
ENDBRANCH  14  15
ENDBRANCH  10  11
ENDBRANCH   9  10
TORSDOF 7
ENDMDL
