MODEL 1
REMARK VINA RESULT:     -12.0      0.000      0.000
REMARK  Name = 
REMARK  5 active torsions:
REMARK  status: ('A' for Active; 'I' for Inactive)
REMARK    1  A    between atoms: C_2  and  C_4
REMARK    2  A    between atoms: C_7  and  C_8
REMARK    3  A    between atoms: C_8  and  N_9
REMARK    4  A    between atoms: C_14  and  C_15
REMARK    5  A    between atoms: C_17  and  C_20
REMARK                            x       y       z     vdW  Elec       q    Type
REMARK                         _______ _______ _______ _____ _____    ______ ____
ROOT
ATOM      9  N   UNL     1      -3.908   2.558  25.094  0.00  0.00    -0.257 NA
ATOM     10  C   UNL     1      -4.175   3.277  25.397  0.00  0.00    +0.121 C 
ATOM     11  C   UNL     1      -4.981   3.397  25.526  0.00  0.00    +0.090 A 
ATOM     12  C   UNL     1      -5.520   2.798  25.352  0.00  0.00    +0.077 A 
ATOM     13  C   UNL     1      -5.254   2.078  25.049  0.00  0.00    +0.073 C 
ATOM     14  C   UNL     1      -4.448   1.958  24.920  0.00  0.00    +0.144 C 
ATOM     29  N   UNL     1      -6.276   3.074  25.536  0.00  0.00    -0.227 NA
ATOM     30  C   UNL     1      -6.204   3.844  25.823  0.00  0.00    +0.198 A 
ATOM     31  N   UNL     1      -5.402   4.044  25.818  0.00  0.00    -0.226 NA
ENDROOT
BRANCH  14  15
ATOM     15  C   UNL     1      -4.181   1.239  24.617  0.00  0.00    +0.251 A 
ATOM     16  N   UNL     1      -4.136   0.526  25.029  0.00  0.00    -0.190 NA
ATOM     17  C   UNL     1      -3.840  -0.048  24.517  0.00  0.00    +0.203 A 
ATOM     18  N   UNL     1      -3.701   0.310  23.786  0.00  0.00    -0.056 NA
ATOM     19  O   UNL     1      -3.912   1.106  23.849  0.00  0.00    -0.336 OA
BRANCH  17  20
ATOM     20  C   UNL     1      -3.705  -0.840  24.701  0.00  0.00    +0.042 A 
ATOM     21  C   UNL     1      -3.892  -1.429  24.155  0.00  0.00    +0.043 A 
ATOM     22  C   UNL     1      -3.757  -2.222  24.339  0.00  0.00    +0.177 A 
ATOM     23  C   UNL     1      -3.436  -2.426  25.070  0.00  0.00    +0.176 A 
ATOM     24  O   UNL     1      -3.365  -3.247  25.098  0.00  0.00    -0.435 OA
ATOM     25  C   UNL     1      -3.643  -3.551  24.383  0.00  0.00    +0.429 C 
ATOM     26  O   UNL     1      -3.885  -2.917  23.914  0.00  0.00    -0.435 OA
ATOM     27  C   UNL     1      -3.249  -1.837  25.618  0.00  0.00    +0.040 A 
ATOM     28  C   UNL     1      -3.384  -1.045  25.433  0.00  0.00    +0.006 A 
ENDBRANCH  17  20
ENDBRANCH  14  15
BRANCH   9   8
ATOM      8  C   UNL     1      -3.102   2.438  24.965  0.00  0.00    +0.100 C 
BRANCH   8   7
ATOM      4  C   UNL     1      -1.542   4.358  25.009  0.00  0.00    +0.080 A 
ATOM      5  C   UNL     1      -1.992   4.207  24.333  0.00  0.00    +0.006 A 
ATOM      6  C   UNL     1      -2.512   3.567  24.320  0.00  0.00    -0.003 A 
ATOM      7  C   UNL     1      -2.582   3.078  24.980  0.00  0.00    -0.006 A 
ATOM     32  C   UNL     1      -2.132   3.228  25.655  0.00  0.00    -0.003 A 
ATOM     33  C   UNL     1      -1.612   3.869  25.669  0.00  0.00    +0.006 A 
BRANCH   4   2
ATOM      1  O   UNL     1      -0.216   4.878  24.896  0.00  0.00    -0.241 OA
ATOM      2  C   UNL     1      -1.021   4.998  25.023  0.00  0.00    +0.388 C 
ATOM      3  O   UNL     1      -1.308   5.759  25.166  0.00  0.00    -0.241 OA
ENDBRANCH   4   2
ENDBRANCH   8   7
ENDBRANCH   9   8
TORSDOF 5
ENDMDL
MODEL 2
REMARK VINA RESULT:     -11.4      2.315      5.827
REMARK  Name = 
REMARK  5 active torsions:
REMARK  status: ('A' for Active; 'I' for Inactive)
REMARK    1  A    between atoms: C_2  and  C_4
REMARK    2  A    between atoms: C_7  and  C_8
REMARK    3  A    between atoms: C_8  and  N_9
REMARK    4  A    between atoms: C_14  and  C_15
REMARK    5  A    between atoms: C_17  and  C_20
REMARK                            x       y       z     vdW  Elec       q    Type
REMARK                         _______ _______ _______ _____ _____    ______ ____
ROOT
ATOM      9  N   UNL     1      -1.277   0.281  24.678  0.00  0.00    -0.257 NA
ATOM     10  C   UNL     1      -0.847  -0.324  24.317  0.00  0.00    +0.121 C 
ATOM     11  C   UNL     1      -0.180  -0.144  23.867  0.00  0.00    +0.090 A 
ATOM     12  C   UNL     1       0.059   0.640  23.777  0.00  0.00    +0.077 A 
ATOM     13  C   UNL     1      -0.370   1.246  24.138  0.00  0.00    +0.073 C 
ATOM     14  C   UNL     1      -1.038   1.066  24.588  0.00  0.00    +0.144 C 
ATOM     29  N   UNL     1       0.735   0.648  23.304  0.00  0.00    -0.227 NA
ATOM     30  C   UNL     1       0.914  -0.131  23.101  0.00  0.00    +0.198 A 
ATOM     31  N   UNL     1       0.348  -0.622  23.449  0.00  0.00    -0.226 NA
ENDROOT
BRANCH  14  15
ATOM     15  C   UNL     1      -1.467   1.672  24.948  0.00  0.00    +0.251 A 
ATOM     16  N   UNL     1      -2.188   1.976  24.688  0.00  0.00    -0.190 NA
ATOM     17  C   UNL     1      -2.418   2.571  25.210  0.00  0.00    +0.203 A 
ATOM     18  N   UNL     1      -1.839   2.635  25.795  0.00  0.00    -0.056 NA
ATOM     19  O   UNL     1      -1.252   2.078  25.632  0.00  0.00    -0.336 OA
BRANCH  17  20
ATOM     20  C   UNL     1      -3.106   3.023  25.158  0.00  0.00    +0.042 A 
ATOM     21  C   UNL     1      -3.781   2.796  25.573  0.00  0.00    +0.043 A 
ATOM     22  C   UNL     1      -4.469   3.248  25.522  0.00  0.00    +0.177 A 
ATOM     23  C   UNL     1      -4.482   3.928  25.054  0.00  0.00    +0.176 A 
ATOM     24  O   UNL     1      -5.234   4.262  25.109  0.00  0.00    -0.435 OA
ATOM     25  C   UNL     1      -5.687   3.789  25.610  0.00  0.00    +0.429 C 
ATOM     26  O   UNL     1      -5.214   3.163  25.865  0.00  0.00    -0.435 OA
ATOM     27  C   UNL     1      -3.806   4.155  24.638  0.00  0.00    +0.040 A 
ATOM     28  C   UNL     1      -3.118   3.703  24.691  0.00  0.00    +0.006 A 
ENDBRANCH  17  20
ENDBRANCH  14  15
BRANCH   9   8
ATOM      8  C   UNL     1      -1.944   0.102  25.128  0.00  0.00    +0.100 C 
BRANCH   8   7
ATOM      4  C   UNL     1      -3.185  -1.999  24.719  0.00  0.00    +0.080 A 
ATOM      5  C   UNL     1      -3.375  -1.319  24.293  0.00  0.00    +0.006 A 
ATOM      6  C   UNL     1      -2.961  -0.619  24.429  0.00  0.00    -0.003 A 
ATOM      7  C   UNL     1      -2.358  -0.598  24.992  0.00  0.00    -0.006 A 
ATOM     32  C   UNL     1      -2.168  -1.279  25.418  0.00  0.00    -0.003 A 
ATOM     33  C   UNL     1      -2.583  -1.980  25.282  0.00  0.00    +0.006 A 
BRANCH   4   2
ATOM      1  O   UNL     1      -3.538  -3.325  25.117  0.00  0.00    -0.241 OA
ATOM      2  C   UNL     1      -3.599  -2.700  24.583  0.00  0.00    +0.388 C 
ATOM      3  O   UNL     1      -4.074  -2.775  23.913  0.00  0.00    -0.241 OA
ENDBRANCH   4   2
ENDBRANCH   8   7
ENDBRANCH   9   8
TORSDOF 5
ENDMDL
MODEL 3
REMARK VINA RESULT:     -11.1      1.437      4.954
REMARK  Name = 
REMARK  5 active torsions:
REMARK  status: ('A' for Active; 'I' for Inactive)
REMARK    1  A    between atoms: C_2  and  C_4
REMARK    2  A    between atoms: C_7  and  C_8
REMARK    3  A    between atoms: C_8  and  N_9
REMARK    4  A    between atoms: C_14  and  C_15
REMARK    5  A    between atoms: C_17  and  C_20
REMARK                            x       y       z     vdW  Elec       q    Type
REMARK                         _______ _______ _______ _____ _____    ______ ____
ROOT
ATOM      9  N   UNL     1      -4.155   1.203  24.501  0.00  0.00    -0.257 NA
ATOM     10  C   UNL     1      -4.923   0.924  24.611  0.00  0.00    +0.121 C 
ATOM     11  C   UNL     1      -5.505   1.426  24.911  0.00  0.00    +0.090 A 
ATOM     12  C   UNL     1      -5.319   2.206  25.102  0.00  0.00    +0.077 A 
ATOM     13  C   UNL     1      -4.550   2.486  24.993  0.00  0.00    +0.073 C 
ATOM     14  C   UNL     1      -3.968   1.984  24.693  0.00  0.00    +0.144 C 
ATOM     29  N   UNL     1      -6.004   2.569  25.387  0.00  0.00    -0.227 NA
ATOM     30  C   UNL     1      -6.613   2.013  25.371  0.00  0.00    +0.198 A 
ATOM     31  N   UNL     1      -6.305   1.306  25.077  0.00  0.00    -0.226 NA
ENDROOT
BRANCH  14  15
ATOM     15  C   UNL     1      -3.200   2.263  24.584  0.00  0.00    +0.251 A 
ATOM     16  N   UNL     1      -2.595   2.251  25.145  0.00  0.00    -0.190 NA
ATOM     17  C   UNL     1      -1.922   2.583  24.804  0.00  0.00    +0.203 A 
ATOM     18  N   UNL     1      -2.110   2.801  24.030  0.00  0.00    -0.056 NA
ATOM     19  O   UNL     1      -2.900   2.603  23.895  0.00  0.00    -0.336 OA
BRANCH  17  20
ATOM     20  C   UNL     1      -1.190   2.680  25.170  0.00  0.00    +0.042 A 
ATOM     21  C   UNL     1      -1.072   2.401  25.937  0.00  0.00    +0.043 A 
ATOM     22  C   UNL     1      -0.339   2.498  26.304  0.00  0.00    +0.177 A 
ATOM     23  C   UNL     1       0.275   2.875  25.903  0.00  0.00    +0.176 A 
ATOM     24  O   UNL     1       0.932   2.891  26.402  0.00  0.00    -0.435 OA
ATOM     25  C   UNL     1       0.724   2.525  27.110  0.00  0.00    +0.429 C 
ATOM     26  O   UNL     1      -0.062   2.282  27.049  0.00  0.00    -0.435 OA
ATOM     27  C   UNL     1       0.158   3.155  25.136  0.00  0.00    +0.040 A 
ATOM     28  C   UNL     1      -0.575   3.057  24.770  0.00  0.00    +0.006 A 
ENDBRANCH  17  20
ENDBRANCH  14  15
BRANCH   9   8
ATOM      8  C   UNL     1      -3.573   0.702  24.201  0.00  0.00    +0.100 C 
BRANCH   8   7
ATOM      4  C   UNL     1      -3.788  -1.748  24.472  0.00  0.00    +0.080 A 
ATOM      5  C   UNL     1      -3.465  -1.292  25.080  0.00  0.00    +0.006 A 
ATOM      6  C   UNL     1      -3.394  -0.476  24.989  0.00  0.00    -0.003 A 
ATOM      7  C   UNL     1      -3.644  -0.114  24.291  0.00  0.00    -0.006 A 
ATOM     32  C   UNL     1      -3.967  -0.570  23.684  0.00  0.00    -0.003 A 
ATOM     33  C   UNL     1      -4.039  -1.388  23.775  0.00  0.00    +0.006 A 
BRANCH   4   2
ATOM      1  O   UNL     1      -3.579  -2.931  25.246  0.00  0.00    -0.241 OA
ATOM      2  C   UNL     1      -3.860  -2.566  24.563  0.00  0.00    +0.388 C 
ATOM      3  O   UNL     1      -4.213  -3.016  23.968  0.00  0.00    -0.241 OA
ENDBRANCH   4   2
ENDBRANCH   8   7
ENDBRANCH   9   8
TORSDOF 5
ENDMDL
MODEL 4
REMARK VINA RESULT:     -10.7      2.104      3.446
REMARK  Name = 
REMARK  5 active torsions:
REMARK  status: ('A' for Active; 'I' for Inactive)
REMARK    1  A    between atoms: C_2  and  C_4
REMARK    2  A    between atoms: C_7  and  C_8
REMARK    3  A    between atoms: C_8  and  N_9
REMARK    4  A    between atoms: C_14  and  C_15
REMARK    5  A    between atoms: C_17  and  C_20
REMARK                            x       y       z     vdW  Elec       q    Type
REMARK                         _______ _______ _______ _____ _____    ______ ____
ROOT
ATOM      9  N   UNL     1      -2.238   2.836  24.471  0.00  0.00    -0.257 NA
ATOM     10  C   UNL     1      -2.415   3.607  24.705  0.00  0.00    +0.121 C 
ATOM     11  C   UNL     1      -1.806   4.136  24.877  0.00  0.00    +0.090 A 
ATOM     12  C   UNL     1      -1.020   3.894  24.815  0.00  0.00    +0.077 A 
ATOM     13  C   UNL     1      -0.843   3.123  24.581  0.00  0.00    +0.073 C 
ATOM     14  C   UNL     1      -1.452   2.594  24.409  0.00  0.00    +0.144 C 
ATOM     29  N   UNL     1      -0.540   4.534  25.018  0.00  0.00    -0.227 NA
ATOM     30  C   UNL     1      -1.029   5.171  25.206  0.00  0.00    +0.198 A 
ATOM     31  N   UNL     1      -1.813   4.925  25.119  0.00  0.00    -0.226 NA
ENDROOT
BRANCH  14  15
ATOM     15  C   UNL     1      -1.275   1.823  24.175  0.00  0.00    +0.251 A 
ATOM     16  N   UNL     1      -1.363   1.144  24.636  0.00  0.00    -0.190 NA
ATOM     17  C   UNL     1      -1.122   0.496  24.186  0.00  0.00    +0.203 A 
ATOM     18  N   UNL     1      -0.884   0.774  23.446  0.00  0.00    -0.056 NA
ATOM     19  O   UNL     1      -0.979   1.594  23.440  0.00  0.00    -0.336 OA
BRANCH  17  20
ATOM     20  C   UNL     1      -1.118  -0.291  24.432  0.00  0.00    +0.042 A 
ATOM     21  C   UNL     1      -1.747  -0.787  24.236  0.00  0.00    +0.043 A 
ATOM     22  C   UNL     1      -1.744  -1.574  24.482  0.00  0.00    +0.177 A 
ATOM     23  C   UNL     1      -1.112  -1.865  24.925  0.00  0.00    +0.176 A 
ATOM     24  O   UNL     1      -1.259  -2.660  25.089  0.00  0.00    -0.435 OA
ATOM     25  C   UNL     1      -1.983  -2.860  24.748  0.00  0.00    +0.429 C 
ATOM     26  O   UNL     1      -2.282  -2.189  24.373  0.00  0.00    -0.435 OA
ATOM     27  C   UNL     1      -0.482  -1.369  25.121  0.00  0.00    +0.040 A 
ATOM     28  C   UNL     1      -0.486  -0.581  24.875  0.00  0.00    +0.006 A 
ENDBRANCH  17  20
ENDBRANCH  14  15
BRANCH   9   8
ATOM      8  C   UNL     1      -2.847   2.307  24.299  0.00  0.00    +0.100 C 
BRANCH   8   7
ATOM      4  C   UNL     1      -5.132   2.730  25.149  0.00  0.00    +0.080 A 
ATOM      5  C   UNL     1      -4.930   2.953  24.380  0.00  0.00    +0.006 A 
ATOM      6  C   UNL     1      -4.168   2.811  24.098  0.00  0.00    -0.003 A 
ATOM      7  C   UNL     1      -3.609   2.448  24.582  0.00  0.00    -0.006 A 
ATOM     32  C   UNL     1      -3.811   2.225  25.351  0.00  0.00    -0.003 A 
ATOM     33  C   UNL     1      -4.574   2.367  25.634  0.00  0.00    +0.006 A 
BRANCH   4   2
ATOM      1  O   UNL     1      -6.070   3.586  25.806  0.00  0.00    -0.241 OA
ATOM      2  C   UNL     1      -5.895   2.872  25.433  0.00  0.00    +0.388 C 
ATOM      3  O   UNL     1      -6.480   2.298  25.343  0.00  0.00    -0.241 OA
ENDBRANCH   4   2
ENDBRANCH   8   7
ENDBRANCH   9   8
TORSDOF 5
ENDMDL
MODEL 5
REMARK VINA RESULT:     -10.6      2.603      3.814
REMARK  Name = 
REMARK  5 active torsions:
REMARK  status: ('A' for Active; 'I' for Inactive)
REMARK    1  A    between atoms: C_2  and  C_4
REMARK    2  A    between atoms: C_7  and  C_8
REMARK    3  A    between atoms: C_8  and  N_9
REMARK    4  A    between atoms: C_14  and  C_15
REMARK    5  A    between atoms: C_17  and  C_20
REMARK                            x       y       z     vdW  Elec       q    Type
REMARK                         _______ _______ _______ _____ _____    ______ ____
ROOT
ATOM      9  N   UNL     1      -0.324   1.176  24.654  0.00  0.00    -0.257 NA
ATOM     10  C   UNL     1       0.316   1.621  24.382  0.00  0.00    +0.121 C 
ATOM     11  C   UNL     1       0.897   1.266  23.918  0.00  0.00    +0.090 A 
ATOM     12  C   UNL     1       0.841   0.466  23.725  0.00  0.00    +0.077 A 
ATOM     13  C   UNL     1       0.201   0.020  23.997  0.00  0.00    +0.073 C 
ATOM     14  C   UNL     1      -0.380   0.375  24.461  0.00  0.00    +0.144 C 
ATOM     29  N   UNL     1       1.494   0.268  23.261  0.00  0.00    -0.227 NA
ATOM     30  C   UNL     1       1.954   0.946  23.167  0.00  0.00    +0.198 A 
ATOM     31  N   UNL     1       1.586   1.563  23.573  0.00  0.00    -0.226 NA
ENDROOT
BRANCH  14  15
ATOM     15  C   UNL     1      -1.020  -0.070  24.733  0.00  0.00    +0.251 A 
ATOM     16  N   UNL     1      -1.636  -0.366  24.271  0.00  0.00    -0.190 NA
ATOM     17  C   UNL     1      -2.153  -0.776  24.766  0.00  0.00    +0.203 A 
ATOM     18  N   UNL     1      -1.856  -0.733  25.535  0.00  0.00    -0.056 NA
ATOM     19  O   UNL     1      -1.156  -0.296  25.514  0.00  0.00    -0.336 OA
BRANCH  17  20
ATOM     20  C   UNL     1      -2.844  -1.161  24.534  0.00  0.00    +0.042 A 
ATOM     21  C   UNL     1      -2.849  -1.980  24.441  0.00  0.00    +0.043 A 
ATOM     22  C   UNL     1      -3.540  -2.365  24.209  0.00  0.00    +0.177 A 
ATOM     23  C   UNL     1      -4.227  -1.930  24.069  0.00  0.00    +0.176 A 
ATOM     24  O   UNL     1      -4.822  -2.457  23.848  0.00  0.00    -0.435 OA
ATOM     25  C   UNL     1      -4.503  -3.217  23.850  0.00  0.00    +0.429 C 
ATOM     26  O   UNL     1      -3.711  -3.160  24.074  0.00  0.00    -0.435 OA
ATOM     27  C   UNL     1      -4.223  -1.110  24.162  0.00  0.00    +0.040 A 
ATOM     28  C   UNL     1      -3.531  -0.726  24.394  0.00  0.00    +0.006 A 
ENDBRANCH  17  20
ENDBRANCH  14  15
BRANCH   9   8
ATOM      8  C   UNL     1      -0.906   1.531  25.119  0.00  0.00    +0.100 C 
BRANCH   8   7
ATOM      4  C   UNL     1      -1.147   3.993  25.133  0.00  0.00    +0.080 A 
ATOM      5  C   UNL     1      -0.719   3.617  25.730  0.00  0.00    +0.006 A 
ATOM      6  C   UNL     1      -0.639   2.796  25.725  0.00  0.00    -0.003 A 
ATOM      7  C   UNL     1      -0.986   2.351  25.124  0.00  0.00    -0.006 A 
ATOM     32  C   UNL     1      -1.414   2.728  24.527  0.00  0.00    -0.003 A 
ATOM     33  C   UNL     1      -1.494   3.549  24.532  0.00  0.00    +0.006 A 
BRANCH   4   2
ATOM      1  O   UNL     1      -0.656   5.287  24.779  0.00  0.00    -0.241 OA
ATOM      2  C   UNL     1      -1.228   4.815  25.138  0.00  0.00    +0.388 C 
ATOM      3  O   UNL     1      -1.881   5.162  25.503  0.00  0.00    -0.241 OA
ENDBRANCH   4   2
ENDBRANCH   8   7
ENDBRANCH   9   8
TORSDOF 5
ENDMDL
MODEL 6
REMARK VINA RESULT:     -10.3      2.623      4.918
REMARK  Name = 
REMARK  5 active torsions:
REMARK  status: ('A' for Active; 'I' for Inactive)
REMARK    1  A    between atoms: C_2  and  C_4
REMARK    2  A    between atoms: C_7  and  C_8
REMARK    3  A    between atoms: C_8  and  N_9
REMARK    4  A    between atoms: C_14  and  C_15
REMARK    5  A    between atoms: C_17  and  C_20
REMARK                            x       y       z     vdW  Elec       q    Type
REMARK                         _______ _______ _______ _____ _____    ______ ____
ROOT
ATOM      9  N   UNL     1      -3.272   0.809  25.031  0.00  0.00    -0.257 NA
ATOM     10  C   UNL     1      -4.096   0.809  24.991  0.00  0.00    +0.121 C 
ATOM     11  C   UNL     1      -4.503   1.516  24.874  0.00  0.00    +0.090 A 
ATOM     12  C   UNL     1      -4.088   2.224  24.798  0.00  0.00    +0.077 A 
ATOM     13  C   UNL     1      -3.264   2.225  24.838  0.00  0.00    +0.073 C 
ATOM     14  C   UNL     1      -2.856   1.518  24.955  0.00  0.00    +0.144 C 
ATOM     29  N   UNL     1      -4.636   2.831  24.687  0.00  0.00    -0.227 NA
ATOM     30  C   UNL     1      -5.391   2.498  24.696  0.00  0.00    +0.198 A 
ATOM     31  N   UNL     1      -5.309   1.685  24.811  0.00  0.00    -0.226 NA
ENDROOT
BRANCH  14  15
ATOM     15  C   UNL     1      -2.032   1.519  24.996  0.00  0.00    +0.251 A 
ATOM     16  N   UNL     1      -1.516   1.321  24.383  0.00  0.00    -0.190 NA
ATOM     17  C   UNL     1      -0.744   1.397  24.664  0.00  0.00    +0.203 A 
ATOM     18  N   UNL     1      -0.782   1.641  25.451  0.00  0.00    -0.056 NA
ATOM     19  O   UNL     1      -1.579   1.716  25.656  0.00  0.00    -0.336 OA
BRANCH  17  20
ATOM     20  C   UNL     1      -0.056   1.253  24.234  0.00  0.00    +0.042 A 
ATOM     21  C   UNL     1       0.029   0.549  23.814  0.00  0.00    +0.043 A 
ATOM     22  C   UNL     1       0.719   0.405  23.383  0.00  0.00    +0.177 A 
ATOM     23  C   UNL     1       1.323   0.967  23.373  0.00  0.00    +0.176 A 
ATOM     24  O   UNL     1       1.934   0.675  22.904  0.00  0.00    -0.435 OA
ATOM     25  C   UNL     1       1.709  -0.067  22.623  0.00  0.00    +0.429 C 
ATOM     26  O   UNL     1       0.957  -0.233  22.920  0.00  0.00    -0.435 OA
ATOM     27  C   UNL     1       1.238   1.672  23.794  0.00  0.00    +0.040 A 
ATOM     28  C   UNL     1       0.549   1.815  24.224  0.00  0.00    +0.006 A 
ENDBRANCH  17  20
ENDBRANCH  14  15
BRANCH   9   8
ATOM      8  C   UNL     1      -2.864   0.102  25.148  0.00  0.00    +0.100 C 
BRANCH   8   7
ATOM      4  C   UNL     1      -3.836  -2.033  24.361  0.00  0.00    +0.080 A 
ATOM      5  C   UNL     1      -3.730  -1.901  25.169  0.00  0.00    +0.006 A 
ATOM      6  C   UNL     1      -3.406  -1.189  25.430  0.00  0.00    -0.003 A 
ATOM      7  C   UNL     1      -3.188  -0.609  24.886  0.00  0.00    -0.006 A 
ATOM     32  C   UNL     1      -3.294  -0.741  24.078  0.00  0.00    -0.003 A 
ATOM     33  C   UNL     1      -3.619  -1.454  23.816  0.00  0.00    +0.006 A 
BRANCH   4   2
ATOM      1  O   UNL     1      -3.815  -3.461  24.317  0.00  0.00    -0.241 OA
ATOM      2  C   UNL     1      -4.161  -2.745  24.098  0.00  0.00    +0.388 C 
ATOM      3  O   UNL     1      -4.831  -2.740  23.617  0.00  0.00    -0.241 OA
ENDBRANCH   4   2
ENDBRANCH   8   7
ENDBRANCH   9   8
TORSDOF 5
ENDMDL
MODEL 7
REMARK VINA RESULT:     -10.2      3.030      4.933
REMARK  Name = 
REMARK  5 active torsions:
REMARK  status: ('A' for Active; 'I' for Inactive)
REMARK    1  A    between atoms: C_2  and  C_4
REMARK    2  A    between atoms: C_7  and  C_8
REMARK    3  A    between atoms: C_8  and  N_9
REMARK    4  A    between atoms: C_14  and  C_15
REMARK    5  A    between atoms: C_17  and  C_20
REMARK                            x       y       z     vdW  Elec       q    Type
REMARK                         _______ _______ _______ _____ _____    ______ ____
ROOT
ATOM      9  N   UNL     1      -3.172  -0.388  24.449  0.00  0.00    -0.257 NA
ATOM     10  C   UNL     1      -3.914  -0.721  24.306  0.00  0.00    +0.121 C 
ATOM     11  C   UNL     1      -3.985  -1.534  24.189  0.00  0.00    +0.090 A 
ATOM     12  C   UNL     1      -3.316  -2.015  24.213  0.00  0.00    +0.077 A 
ATOM     13  C   UNL     1      -2.574  -1.682  24.356  0.00  0.00    +0.073 C 
ATOM     14  C   UNL     1      -2.502  -0.869  24.473  0.00  0.00    +0.144 C 
ATOM     29  N   UNL     1      -3.555  -2.793  24.078  0.00  0.00    -0.227 NA
ATOM     30  C   UNL     1      -4.373  -2.793  23.970  0.00  0.00    +0.198 A 
ATOM     31  N   UNL     1      -4.639  -2.014  24.038  0.00  0.00    -0.226 NA
ENDROOT
BRANCH  14  15
ATOM     15  C   UNL     1      -1.761  -0.536  24.616  0.00  0.00    +0.251 A 
ATOM     16  N   UNL     1      -1.206  -0.326  24.043  0.00  0.00    -0.190 NA
ATOM     17  C   UNL     1      -0.546  -0.015  24.427  0.00  0.00    +0.203 A 
ATOM     18  N   UNL     1      -0.693  -0.033  25.239  0.00  0.00    -0.056 NA
ATOM     19  O   UNL     1      -1.444  -0.355  25.355  0.00  0.00    -0.336 OA
BRANCH  17  20
ATOM     20  C   UNL     1       0.140   0.264  24.065  0.00  0.00    +0.042 A 
ATOM     21  C   UNL     1       0.586  -0.236  23.585  0.00  0.00    +0.043 A 
ATOM     22  C   UNL     1       1.273   0.043  23.222  0.00  0.00    +0.177 A 
ATOM     23  C   UNL     1       1.512   0.824  23.340  0.00  0.00    +0.176 A 
ATOM     24  O   UNL     1       2.208   0.944  22.914  0.00  0.00    -0.435 OA
ATOM     25  C   UNL     1       2.399   0.238  22.533  0.00  0.00    +0.429 C 
ATOM     26  O   UNL     1       1.820  -0.318  22.724  0.00  0.00    -0.435 OA
ATOM     27  C   UNL     1       1.065   1.325  23.820  0.00  0.00    +0.040 A 
ATOM     28  C   UNL     1       0.379   1.045  24.182  0.00  0.00    +0.006 A 
ENDBRANCH  17  20
ENDBRANCH  14  15
BRANCH   9   8
ATOM      8  C   UNL     1      -3.101   0.425  24.566  0.00  0.00    +0.100 C 
BRANCH   8   7
ATOM      4  C   UNL     1      -5.123   1.810  24.909  0.00  0.00    +0.080 A 
ATOM      5  C   UNL     1      -4.895   1.263  25.484  0.00  0.00    +0.006 A 
ATOM      6  C   UNL     1      -4.221   0.802  25.369  0.00  0.00    -0.003 A 
ATOM      7  C   UNL     1      -3.775   0.887  24.681  0.00  0.00    -0.006 A 
ATOM     32  C   UNL     1      -4.003   1.433  24.106  0.00  0.00    -0.003 A 
ATOM     33  C   UNL     1      -4.678   1.895  24.221  0.00  0.00    +0.006 A 
BRANCH   4   2
ATOM      1  O   UNL     1      -5.733   3.018  25.366  0.00  0.00    -0.241 OA
ATOM      2  C   UNL     1      -5.798   2.271  25.023  0.00  0.00    +0.388 C 
ATOM      3  O   UNL     1      -6.537   1.985  24.794  0.00  0.00    -0.241 OA
ENDBRANCH   4   2
ENDBRANCH   8   7
ENDBRANCH   9   8
TORSDOF 5
ENDMDL
