MODEL 1
REMARK VINA RESULT:     -11.5      0.000      0.000
REMARK  Name = 
REMARK  3 active torsions:
REMARK  status: ('A' for Active; 'I' for Inactive)
REMARK    1  A    between atoms: N_4  and  C_5
REMARK    2  A    between atoms: C_8  and  C_9
REMARK    3  A    between atoms: C_9  and  N_10
REMARK                            x       y       z     vdW  Elec       q    Type
REMARK                         _______ _______ _______ _____ _____    ______ ____
ROOT
ATOM     10  N   UNL     1      -0.915  -0.015  25.386  0.00  0.00    -0.266 NA
ATOM     11  C   UNL     1      -0.367   0.055  24.774  0.00  0.00    +0.094 C 
ATOM     12  C   UNL     1      -0.189   0.798  24.463  0.00  0.00    +0.112 C 
ATOM     13  N   UNL     1      -0.559   1.472  24.765  0.00  0.00    -0.261 N 
ATOM     14  C   UNL     1      -1.107   1.401  25.377  0.00  0.00    +0.113 C 
ATOM     15  C   UNL     1      -1.381   2.156  25.562  0.00  0.00    +0.122 C 
ATOM     16  N   UNL     1      -1.003   2.694  25.063  0.00  0.00    -0.226 N 
ATOM     17  C   UNL     1      -0.495   2.270  24.571  0.00  0.00    +0.312 C 
ATOM     18  O   UNL     1      -0.008   2.590  23.987  0.00  0.00    -0.252 OA
ATOM     19  C   UNL     1      -1.114   3.511  25.058  0.00  0.00    +0.139 A 
ATOM     20  N   UNL     1      -0.694   3.982  24.525  0.00  0.00    -0.229 NA
ATOM     21  C   UNL     1      -0.805   4.799  24.519  0.00  0.00    +0.100 A 
ATOM     22  C   UNL     1      -1.335   5.146  25.048  0.00  0.00    +0.021 A 
ATOM     23  C   UNL     1      -1.754   4.677  25.580  0.00  0.00    +0.004 A 
ATOM     24  C   UNL     1      -1.644   3.860  25.586  0.00  0.00    +0.035 A 
ATOM     25  C   UNL     1      -1.285   0.658  25.688  0.00  0.00    +0.094 C 
ENDROOT
BRANCH  10   9
ATOM      9  C   UNL     1      -1.094  -0.759  25.697  0.00  0.00    +0.099 C 
BRANCH   9   8
ATOM      5  C   UNL     1      -2.981  -2.064  24.771  0.00  0.00    +0.073 A 
ATOM      6  C   UNL     1      -3.108  -1.546  25.400  0.00  0.00    +0.016 A 
ATOM      7  C   UNL     1      -2.479  -1.110  25.709  0.00  0.00    -0.002 A 
ATOM      8  C   UNL     1      -1.723  -1.194  25.389  0.00  0.00    -0.006 A 
ATOM     26  C   UNL     1      -1.596  -1.712  24.759  0.00  0.00    -0.002 A 
ATOM     27  C   UNL     1      -2.225  -2.147  24.451  0.00  0.00    +0.016 A 
BRANCH   5   4
ATOM      1  C   UNL     1      -4.748  -2.593  23.603  0.00  0.00    +0.097 C 
ATOM      2  C   UNL     1      -4.119  -2.157  23.912  0.00  0.00    +0.246 C 
ATOM      3  O   UNL     1      -4.001  -1.377  23.671  0.00  0.00    -0.273 OA
ATOM      4  N   UNL     1      -3.610  -2.500  24.462  0.00  0.00    -0.179 NA
ENDBRANCH   5   4
ENDBRANCH   9   8
ENDBRANCH  10   9
TORSDOF 3
ENDMDL
MODEL 2
REMARK VINA RESULT:     -11.4      2.091      2.706
REMARK  Name = 
REMARK  3 active torsions:
REMARK  status: ('A' for Active; 'I' for Inactive)
REMARK    1  A    between atoms: N_4  and  C_5
REMARK    2  A    between atoms: C_8  and  C_9
REMARK    3  A    between atoms: C_9  and  N_10
REMARK                            x       y       z     vdW  Elec       q    Type
REMARK                         _______ _______ _______ _____ _____    ______ ____
ROOT
ATOM     10  N   UNL     1      -4.506   1.218  24.835  0.00  0.00    -0.266 NA
ATOM     11  C   UNL     1      -4.968   1.746  25.270  0.00  0.00    +0.094 C 
ATOM     12  C   UNL     1      -4.666   2.486  25.474  0.00  0.00    +0.112 C 
ATOM     13  N   UNL     1      -3.903   2.699  25.242  0.00  0.00    -0.261 N 
ATOM     14  C   UNL     1      -3.442   2.172  24.807  0.00  0.00    +0.113 C 
ATOM     15  C   UNL     1      -2.716   2.532  24.657  0.00  0.00    +0.122 C 
ATOM     16  N   UNL     1      -2.728   3.282  24.999  0.00  0.00    -0.226 N 
ATOM     17  C   UNL     1      -3.462   3.385  25.361  0.00  0.00    +0.312 C 
ATOM     18  O   UNL     1      -3.711   4.057  25.770  0.00  0.00    -0.252 OA
ATOM     19  C   UNL     1      -2.113   3.832  24.983  0.00  0.00    +0.139 A 
ATOM     20  N   UNL     1      -2.206   4.565  25.353  0.00  0.00    -0.229 NA
ATOM     21  C   UNL     1      -1.591   5.116  25.336  0.00  0.00    +0.100 A 
ATOM     22  C   UNL     1      -0.885   4.933  24.951  0.00  0.00    +0.021 A 
ATOM     23  C   UNL     1      -0.792   4.202  24.582  0.00  0.00    +0.004 A 
ATOM     24  C   UNL     1      -1.407   3.651  24.598  0.00  0.00    +0.035 A 
ATOM     25  C   UNL     1      -3.744   1.431  24.603  0.00  0.00    +0.094 C 
ENDROOT
BRANCH  10   9
ATOM      9  C   UNL     1      -4.808   0.477  24.631  0.00  0.00    +0.099 C 
BRANCH   9   8
ATOM      5  C   UNL     1      -3.347  -1.519  24.723  0.00  0.00    +0.073 A 
ATOM      6  C   UNL     1      -3.575  -1.142  25.420  0.00  0.00    +0.016 A 
ATOM      7  C   UNL     1      -4.062  -0.477  25.390  0.00  0.00    -0.002 A 
ATOM      8  C   UNL     1      -4.321  -0.188  24.662  0.00  0.00    -0.006 A 
ATOM     26  C   UNL     1      -4.093  -0.565  23.963  0.00  0.00    -0.002 A 
ATOM     27  C   UNL     1      -3.606  -1.230  23.994  0.00  0.00    +0.016 A 
BRANCH   5   4
ATOM      1  C   UNL     1      -1.558  -2.770  24.688  0.00  0.00    +0.097 C 
ATOM      2  C   UNL     1      -2.045  -2.104  24.658  0.00  0.00    +0.246 C 
ATOM      3  O   UNL     1      -1.716  -1.358  24.534  0.00  0.00    -0.273 OA
ATOM      4  N   UNL     1      -2.860  -2.184  24.752  0.00  0.00    -0.179 NA
ENDBRANCH   5   4
ENDBRANCH   9   8
ENDBRANCH  10   9
TORSDOF 3
ENDMDL
MODEL 3
REMARK VINA RESULT:     -10.6      2.049      5.814
REMARK  Name = 
REMARK  3 active torsions:
REMARK  status: ('A' for Active; 'I' for Inactive)
REMARK    1  A    between atoms: N_4  and  C_5
REMARK    2  A    between atoms: C_8  and  C_9
REMARK    3  A    between atoms: C_9  and  N_10
REMARK                            x       y       z     vdW  Elec       q    Type
REMARK                         _______ _______ _______ _____ _____    ______ ____
ROOT
ATOM     10  N   UNL     1      -4.217   2.088  24.962  0.00  0.00    -0.266 NA
ATOM     11  C   UNL     1      -4.320   2.015  24.147  0.00  0.00    +0.094 C 
ATOM     12  C   UNL     1      -4.243   1.278  23.786  0.00  0.00    +0.112 C 
ATOM     13  N   UNL     1      -4.063   0.613  24.239  0.00  0.00    -0.261 N 
ATOM     14  C   UNL     1      -3.959   0.685  25.055  0.00  0.00    +0.113 C 
ATOM     15  C   UNL     1      -3.786  -0.062  25.357  0.00  0.00    +0.122 C 
ATOM     16  N   UNL     1      -3.783  -0.596  24.729  0.00  0.00    -0.226 N 
ATOM     17  C   UNL     1      -3.954  -0.179  24.039  0.00  0.00    +0.312 C 
ATOM     18  O   UNL     1      -4.006  -0.498  23.280  0.00  0.00    -0.252 OA
ATOM     19  C   UNL     1      -3.634  -1.406  24.783  0.00  0.00    +0.139 A 
ATOM     20  N   UNL     1      -3.649  -1.875  24.103  0.00  0.00    -0.229 NA
ATOM     21  C   UNL     1      -3.501  -2.684  24.156  0.00  0.00    +0.100 A 
ATOM     22  C   UNL     1      -3.337  -3.026  24.889  0.00  0.00    +0.021 A 
ATOM     23  C   UNL     1      -3.322  -2.559  25.568  0.00  0.00    +0.004 A 
ATOM     24  C   UNL     1      -3.470  -1.749  25.515  0.00  0.00    +0.035 A 
ATOM     25  C   UNL     1      -4.036   1.424  25.416  0.00  0.00    +0.094 C 
ENDROOT
BRANCH  10   9
ATOM      9  C   UNL     1      -4.293   2.826  25.324  0.00  0.00    +0.099 C 
BRANCH   9   8
ATOM      5  C   UNL     1      -2.407   4.427  25.277  0.00  0.00    +0.073 A 
ATOM      6  C   UNL     1      -2.535   3.961  25.945  0.00  0.00    +0.016 A 
ATOM      7  C   UNL     1      -3.164   3.427  25.961  0.00  0.00    -0.002 A 
ATOM      8  C   UNL     1      -3.665   3.360  25.309  0.00  0.00    -0.006 A 
ATOM     26  C   UNL     1      -3.537   3.827  24.640  0.00  0.00    -0.002 A 
ATOM     27  C   UNL     1      -2.908   4.361  24.625  0.00  0.00    +0.016 A 
BRANCH   5   4
ATOM      1  C   UNL     1      -0.425   5.271  24.922  0.00  0.00    +0.097 C 
ATOM      2  C   UNL     1      -1.053   4.736  24.939  0.00  0.00    +0.246 C 
ATOM      3  O   UNL     1      -0.956   3.977  24.632  0.00  0.00    -0.273 OA
ATOM      4  N   UNL     1      -1.778   4.962  25.261  0.00  0.00    -0.179 NA
ENDBRANCH   5   4
ENDBRANCH   9   8
ENDBRANCH  10   9
TORSDOF 3
ENDMDL
MODEL 4
REMARK VINA RESULT:     -10.2      2.174      5.199
REMARK  Name = 
REMARK  3 active torsions:
REMARK  status: ('A' for Active; 'I' for Inactive)
REMARK    1  A    between atoms: N_4  and  C_5
REMARK    2  A    between atoms: C_8  and  C_9
REMARK    3  A    between atoms: C_9  and  N_10
REMARK                            x       y       z     vdW  Elec       q    Type
REMARK                         _______ _______ _______ _____ _____    ______ ____
ROOT
ATOM     10  N   UNL     1      -1.916   1.742  24.720  0.00  0.00    -0.266 NA
ATOM     11  C   UNL     1      -1.300   1.408  25.155  0.00  0.00    +0.094 C 
ATOM     12  C   UNL     1      -1.283   0.594  25.287  0.00  0.00    +0.112 C 
ATOM     13  N   UNL     1      -1.881   0.113  24.983  0.00  0.00    -0.261 N 
ATOM     14  C   UNL     1      -2.496   0.447  24.548  0.00  0.00    +0.113 C 
ATOM     15  C   UNL     1      -3.005  -0.160  24.318  0.00  0.00    +0.122 C 
ATOM     16  N   UNL     1      -2.704  -0.869  24.612  0.00  0.00    -0.226 N 
ATOM     17  C   UNL     1      -2.009  -0.700  25.023  0.00  0.00    +0.312 C 
ATOM     18  O   UNL     1      -1.527  -1.248  25.407  0.00  0.00    -0.252 OA
ATOM     19  C   UNL     1      -3.039  -1.616  24.513  0.00  0.00    +0.139 A 
ATOM     20  N   UNL     1      -2.673  -2.280  24.841  0.00  0.00    -0.229 NA
ATOM     21  C   UNL     1      -3.008  -3.027  24.742  0.00  0.00    +0.100 A 
ATOM     22  C   UNL     1      -3.709  -3.111  24.314  0.00  0.00    +0.021 A 
ATOM     23  C   UNL     1      -4.075  -2.449  23.987  0.00  0.00    +0.004 A 
ATOM     24  C   UNL     1      -3.740  -1.701  24.086  0.00  0.00    +0.035 A 
ATOM     25  C   UNL     1      -2.514   1.262  24.415  0.00  0.00    +0.094 C 
ENDROOT
BRANCH  10   9
ATOM      9  C   UNL     1      -1.934   2.557  24.588  0.00  0.00    +0.099 C 
BRANCH   9   8
ATOM      5  C   UNL     1      -3.975   3.850  25.123  0.00  0.00    +0.073 A 
ATOM      6  C   UNL     1      -3.412   3.708  25.708  0.00  0.00    +0.016 A 
ATOM      7  C   UNL     1      -2.731   3.277  25.530  0.00  0.00    -0.002 A 
ATOM      8  C   UNL     1      -2.614   2.988  24.766  0.00  0.00    -0.006 A 
ATOM     26  C   UNL     1      -3.178   3.130  24.180  0.00  0.00    -0.002 A 
ATOM     27  C   UNL     1      -3.858   3.561  24.359  0.00  0.00    +0.016 A 
BRANCH   5   4
ATOM      1  C   UNL     1      -6.026   4.322  25.704  0.00  0.00    +0.097 C 
ATOM      2  C   UNL     1      -5.345   3.890  25.526  0.00  0.00    +0.246 C 
ATOM      3  O   UNL     1      -5.355   3.067  25.575  0.00  0.00    -0.273 OA
ATOM      4  N   UNL     1      -4.656   4.282  25.300  0.00  0.00    -0.179 NA
ENDBRANCH   5   4
ENDBRANCH   9   8
ENDBRANCH  10   9
TORSDOF 3
ENDMDL
MODEL 5
REMARK VINA RESULT:     -10.1      1.391      5.214
REMARK  Name = 
REMARK  3 active torsions:
REMARK  status: ('A' for Active; 'I' for Inactive)
REMARK    1  A    between atoms: N_4  and  C_5
REMARK    2  A    between atoms: C_8  and  C_9
REMARK    3  A    between atoms: C_9  and  N_10
REMARK                            x       y       z     vdW  Elec       q    Type
REMARK                         _______ _______ _______ _____ _____    ______ ____
ROOT
ATOM     10  N   UNL     1      -0.769   1.088  24.446  0.00  0.00    -0.266 NA
ATOM     11  C   UNL     1      -0.259   0.541  24.793  0.00  0.00    +0.094 C 
ATOM     12  C   UNL     1      -0.505  -0.237  24.908  0.00  0.00    +0.112 C 
ATOM     13  N   UNL     1      -1.262  -0.470  24.674  0.00  0.00    -0.261 N 
ATOM     14  C   UNL     1      -1.772   0.077  24.327  0.00  0.00    +0.113 C 
ATOM     15  C   UNL     1      -2.480  -0.308  24.154  0.00  0.00    +0.122 C 
ATOM     16  N   UNL     1      -2.408  -1.094  24.395  0.00  0.00    -0.226 N 
ATOM     17  C   UNL     1      -1.655  -1.193  24.716  0.00  0.00    +0.312 C 
ATOM     18  O   UNL     1      -1.349  -1.894  25.026  0.00  0.00    -0.252 OA
ATOM     19  C   UNL     1      -2.987  -1.678  24.326  0.00  0.00    +0.139 A 
ATOM     20  N   UNL     1      -2.835  -2.444  24.593  0.00  0.00    -0.229 NA
ATOM     21  C   UNL     1      -3.414  -3.028  24.524  0.00  0.00    +0.100 A 
ATOM     22  C   UNL     1      -4.145  -2.845  24.188  0.00  0.00    +0.021 A 
ATOM     23  C   UNL     1      -4.298  -2.080  23.922  0.00  0.00    +0.004 A 
ATOM     24  C   UNL     1      -3.719  -1.496  23.991  0.00  0.00    +0.035 A 
ATOM     25  C   UNL     1      -1.526   0.857  24.212  0.00  0.00    +0.094 C 
ENDROOT
BRANCH  10   9
ATOM      9  C   UNL     1      -0.523   1.868  24.331  0.00  0.00    +0.099 C 
BRANCH   9   8
ATOM      5  C   UNL     1      -1.737   3.722  25.434  0.00  0.00    +0.073 A 
ATOM      6  C   UNL     1      -1.215   3.254  25.869  0.00  0.00    +0.016 A 
ATOM      7  C   UNL     1      -0.810   2.636  25.502  0.00  0.00    -0.002 A 
ATOM      8  C   UNL     1      -0.927   2.486  24.699  0.00  0.00    -0.006 A 
ATOM     26  C   UNL     1      -1.450   2.954  24.263  0.00  0.00    -0.002 A 
ATOM     27  C   UNL     1      -1.854   3.571  24.631  0.00  0.00    +0.016 A 
BRANCH   5   4
ATOM      1  C   UNL     1      -3.329   4.856  26.405  0.00  0.00    +0.097 C 
ATOM      2  C   UNL     1      -2.924   4.237  26.038  0.00  0.00    +0.246 C 
ATOM      3  O   UNL     1      -3.303   3.516  25.910  0.00  0.00    -0.273 OA
ATOM      4  N   UNL     1      -2.142   4.340  25.801  0.00  0.00    -0.179 NA
ENDBRANCH   5   4
ENDBRANCH   9   8
ENDBRANCH  10   9
TORSDOF 3
ENDMDL
MODEL 6
REMARK VINA RESULT:      -9.3      1.996      4.668
REMARK  Name = 
REMARK  3 active torsions:
REMARK  status: ('A' for Active; 'I' for Inactive)
REMARK    1  A    between atoms: N_4  and  C_5
REMARK    2  A    between atoms: C_8  and  C_9
REMARK    3  A    between atoms: C_9  and  N_10
REMARK                            x       y       z     vdW  Elec       q    Type
REMARK                         _______ _______ _______ _____ _____    ______ ____
ROOT
ATOM     10  N   UNL     1      -1.307   3.103  24.969  0.00  0.00    -0.266 NA
ATOM     11  C   UNL     1      -0.756   3.125  24.356  0.00  0.00    +0.094 C 
ATOM     12  C   UNL     1      -0.397   2.429  24.099  0.00  0.00    +0.112 C 
ATOM     13  N   UNL     1      -0.589   1.709  24.455  0.00  0.00    -0.261 N 
ATOM     14  C   UNL     1      -1.141   1.687  25.068  0.00  0.00    +0.113 C 
ATOM     15  C   UNL     1      -1.220   0.904  25.312  0.00  0.00    +0.122 C 
ATOM     16  N   UNL     1      -0.718   0.441  24.850  0.00  0.00    -0.226 N 
ATOM     17  C   UNL     1      -0.328   0.939  24.321  0.00  0.00    +0.312 C 
ATOM     18  O   UNL     1       0.226   0.707  23.755  0.00  0.00    -0.252 OA
ATOM     19  C   UNL     1      -0.622  -0.376  24.907  0.00  0.00    +0.139 A 
ATOM     20  N   UNL     1      -0.095  -0.767  24.404  0.00  0.00    -0.229 NA
ATOM     21  C   UNL     1       0.001  -1.584  24.462  0.00  0.00    +0.100 A 
ATOM     22  C   UNL     1      -0.429  -2.011  25.021  0.00  0.00    +0.021 A 
ATOM     23  C   UNL     1      -0.955  -1.622  25.524  0.00  0.00    +0.004 A 
ATOM     24  C   UNL     1      -1.051  -0.805  25.466  0.00  0.00    +0.035 A 
ATOM     25  C   UNL     1      -1.500   2.385  25.326  0.00  0.00    +0.094 C 
ENDROOT
BRANCH  10   9
ATOM      9  C   UNL     1      -1.667   3.801  25.227  0.00  0.00    +0.099 C 
BRANCH   9   8
ATOM      5  C   UNL     1      -4.128   3.909  25.460  0.00  0.00    +0.073 A 
ATOM      6  C   UNL     1      -3.785   3.897  24.710  0.00  0.00    +0.016 A 
ATOM      7  C   UNL     1      -2.965   3.861  24.632  0.00  0.00    -0.002 A 
ATOM      8  C   UNL     1      -2.487   3.837  25.304  0.00  0.00    -0.006 A 
ATOM     26  C   UNL     1      -2.830   3.849  26.055  0.00  0.00    -0.002 A 
ATOM     27  C   UNL     1      -3.650   3.885  26.132  0.00  0.00    +0.016 A 
BRANCH   5   4
ATOM      1  C   UNL     1      -6.210   3.287  25.676  0.00  0.00    +0.097 C 
ATOM      2  C   UNL     1      -5.389   3.251  25.597  0.00  0.00    +0.246 C 
ATOM      3  O   UNL     1      -5.009   2.519  25.577  0.00  0.00    -0.273 OA
ATOM      4  N   UNL     1      -4.949   3.945  25.539  0.00  0.00    -0.179 NA
ENDBRANCH   5   4
ENDBRANCH   9   8
ENDBRANCH  10   9
TORSDOF 3
ENDMDL
