MODEL 1
REMARK VINA RESULT:      -9.2      0.000      0.000
REMARK  Name = 
REMARK  6 active torsions:
REMARK  status: ('A' for Active; 'I' for Inactive)
REMARK    1  A    between atoms: C_3  and  N_18
REMARK    2  A    between atoms: C_6  and  C_7
REMARK    3  A    between atoms: C_7  and  N_8
REMARK    4  A    between atoms: C_9  and  C_11
REMARK    5  A    between atoms: N_18  and  C_19
REMARK    6  A    between atoms: C_19  and  C_20
REMARK                            x       y       z     vdW  Elec       q    Type
REMARK                         _______ _______ _______ _____ _____    ______ ____
ROOT
ATOM      1  O   UNL     1      -3.913   2.634  24.565  0.00  0.00    -0.219 OA
ATOM      2  C   UNL     1      -3.226   2.218  24.754  0.00  0.00    +0.199 C 
ATOM      3  C   UNL     1      -2.489   2.548  24.922  0.00  0.00    +0.135 C 
ATOM      4  C   UNL     1      -1.964   1.932  25.080  0.00  0.00    +0.162 C 
ATOM      5  O   UNL     1      -2.376   1.221  25.009  0.00  0.00    -0.350 OA
ATOM      6  C   UNL     1      -3.156   1.397  24.807  0.00  0.00    +0.169 C 
ENDROOT
BRANCH   6   7
ATOM      7  C   UNL     1      -3.760   0.850  24.682  0.00  0.00    +0.148 C 
BRANCH   7   8
ATOM      8  N   UNL     1      -3.582   0.046  24.624  0.00  0.00    -0.199 NA
ATOM      9  C   UNL     1      -4.191  -0.509  24.576  0.00  0.00    +0.265 C 
ATOM     10  O   UNL     1      -4.977  -0.259  24.586  0.00  0.00    -0.268 OA
BRANCH   9  11
ATOM     11  C   UNL     1      -4.014  -1.312  24.519  0.00  0.00    +0.055 A 
ATOM     12  C   UNL     1      -3.631  -1.696  25.141  0.00  0.00    +0.007 A 
ATOM     13  C   UNL     1      -3.453  -2.499  25.083  0.00  0.00    +0.030 A 
ATOM     14  C   UNL     1      -3.659  -2.919  24.404  0.00  0.00    +0.140 A 
ATOM     15  F   UNL     1      -3.481  -3.723  24.346  0.00  0.00    -0.204 F 
ATOM     16  C   UNL     1      -4.042  -2.536  23.782  0.00  0.00    +0.030 A 
ATOM     17  C   UNL     1      -4.220  -1.733  23.839  0.00  0.00    +0.007 A 
ENDBRANCH   9  11
ENDBRANCH   7   8
ENDBRANCH   6   7
BRANCH   3  18
ATOM     18  N   UNL     1      -2.310   3.354  24.931  0.00  0.00    -0.208 NA
BRANCH  18  19
ATOM     19  C   UNL     1      -1.574   3.609  25.205  0.00  0.00    +0.136 C 
BRANCH  19  20
ATOM     20  C   UNL     1      -1.339   4.391  25.086  0.00  0.00    +0.097 A 
ATOM     21  C   UNL     1      -0.618   4.638  24.771  0.00  0.00    +0.117 A 
ATOM     22  N   UNL     1      -0.617   5.463  24.752  0.00  0.00    -0.221 NA
ATOM     23  C   UNL     1      -1.338   5.725  25.056  0.00  0.00    +0.199 A 
ATOM     24  N   UNL     1      -1.784   5.063  25.262  0.00  0.00    -0.225 NA
ENDBRANCH  19  20
ENDBRANCH  18  19
ENDBRANCH   3  18
TORSDOF 6
ENDMDL
MODEL 2
REMARK VINA RESULT:      -8.7      2.478      6.189
REMARK  Name = 
REMARK  6 active torsions:
REMARK  status: ('A' for Active; 'I' for Inactive)
REMARK    1  A    between atoms: C_3  and  N_18
REMARK    2  A    between atoms: C_6  and  C_7
REMARK    3  A    between atoms: C_7  and  N_8
REMARK    4  A    between atoms: C_9  and  C_11
REMARK    5  A    between atoms: N_18  and  C_19
REMARK    6  A    between atoms: C_19  and  C_20
REMARK                            x       y       z     vdW  Elec       q    Type
REMARK                         _______ _______ _______ _____ _____    ______ ____
ROOT
ATOM      1  O   UNL     1      -1.304  -0.153  25.673  0.00  0.00    -0.219 OA
ATOM      2  C   UNL     1      -1.866   0.235  25.210  0.00  0.00    +0.199 C 
ATOM      3  C   UNL     1      -2.496  -0.121  24.813  0.00  0.00    +0.135 C 
ATOM      4  C   UNL     1      -2.916   0.470  24.421  0.00  0.00    +0.162 C 
ATOM      5  O   UNL     1      -2.546   1.192  24.575  0.00  0.00    -0.350 OA
ATOM      6  C   UNL     1      -1.897   1.046  25.063  0.00  0.00    +0.169 C 
ENDROOT
BRANCH   6   7
ATOM      7  C   UNL     1      -1.372   1.612  25.353  0.00  0.00    +0.148 C 
BRANCH   7   8
ATOM      8  N   UNL     1      -1.497   2.411  25.191  0.00  0.00    -0.199 NA
ATOM      9  C   UNL     1      -1.008   2.982  25.532  0.00  0.00    +0.265 C 
ATOM     10  O   UNL     1      -0.396   2.753  26.035  0.00  0.00    -0.268 OA
BRANCH   9  11
ATOM     11  C   UNL     1      -1.132   3.782  25.370  0.00  0.00    +0.055 A 
ATOM     12  C   UNL     1      -0.583   4.202  24.920  0.00  0.00    +0.007 A 
ATOM     13  C   UNL     1      -0.707   5.001  24.758  0.00  0.00    +0.030 A 
ATOM     14  C   UNL     1      -1.381   5.380  25.046  0.00  0.00    +0.140 A 
ATOM     15  F   UNL     1      -1.505   6.179  24.884  0.00  0.00    -0.204 F 
ATOM     16  C   UNL     1      -1.931   4.960  25.496  0.00  0.00    +0.030 A 
ATOM     17  C   UNL     1      -1.806   4.161  25.658  0.00  0.00    +0.007 A 
ENDBRANCH   9  11
ENDBRANCH   7   8
ENDBRANCH   6   7
BRANCH   3  18
ATOM     18  N   UNL     1      -2.674  -0.927  24.809  0.00  0.00    -0.208 NA
BRANCH  18  19
ATOM     19  C   UNL     1      -3.448  -1.177  24.676  0.00  0.00    +0.136 C 
BRANCH  19  20
ATOM     20  C   UNL     1      -3.605  -1.974  24.530  0.00  0.00    +0.097 A 
ATOM     21  C   UNL     1      -4.038  -2.276  23.896  0.00  0.00    +0.117 A 
ATOM     22  N   UNL     1      -4.056  -3.097  23.967  0.00  0.00    -0.221 NA
ATOM     23  C   UNL     1      -3.634  -3.304  24.646  0.00  0.00    +0.199 A 
ATOM     24  N   UNL     1      -3.355  -2.609  24.994  0.00  0.00    -0.225 NA
ENDBRANCH  19  20
ENDBRANCH  18  19
ENDBRANCH   3  18
TORSDOF 6
ENDMDL
MODEL 3
REMARK VINA RESULT:      -8.7      1.816      2.064
REMARK  Name = 
REMARK  6 active torsions:
REMARK  status: ('A' for Active; 'I' for Inactive)
REMARK    1  A    between atoms: C_3  and  N_18
REMARK    2  A    between atoms: C_6  and  C_7
REMARK    3  A    between atoms: C_7  and  N_8
REMARK    4  A    between atoms: C_9  and  C_11
REMARK    5  A    between atoms: N_18  and  C_19
REMARK    6  A    between atoms: C_19  and  C_20
REMARK                            x       y       z     vdW  Elec       q    Type
REMARK                         _______ _______ _______ _____ _____    ______ ____
ROOT
ATOM      1  O   UNL     1      -0.766   1.374  26.048  0.00  0.00    -0.219 OA
ATOM      2  C   UNL     1      -0.753   1.359  25.224  0.00  0.00    +0.199 C 
ATOM      3  C   UNL     1      -0.727   2.016  24.727  0.00  0.00    +0.135 C 
ATOM      4  C   UNL     1      -0.722   1.747  23.948  0.00  0.00    +0.162 C 
ATOM      5  O   UNL     1      -0.747   0.922  23.963  0.00  0.00    -0.350 OA
ATOM      6  C   UNL     1      -0.766   0.682  24.751  0.00  0.00    +0.169 C 
ENDROOT
BRANCH   6   7
ATOM      7  C   UNL     1      -0.793  -0.097  25.020  0.00  0.00    +0.148 C 
BRANCH   7   8
ATOM      8  N   UNL     1      -1.446  -0.570  24.847  0.00  0.00    -0.199 NA
ATOM      9  C   UNL     1      -1.451  -1.365  25.073  0.00  0.00    +0.265 C 
ATOM     10  O   UNL     1      -0.802  -1.684  25.470  0.00  0.00    -0.268 OA
BRANCH   9  11
ATOM     11  C   UNL     1      -2.103  -1.838  24.899  0.00  0.00    +0.055 A 
ATOM     12  C   UNL     1      -2.029  -2.466  24.370  0.00  0.00    +0.007 A 
ATOM     13  C   UNL     1      -2.682  -2.940  24.197  0.00  0.00    +0.030 A 
ATOM     14  C   UNL     1      -3.409  -2.786  24.553  0.00  0.00    +0.140 A 
ATOM     15  F   UNL     1      -4.062  -3.259  24.380  0.00  0.00    -0.204 F 
ATOM     16  C   UNL     1      -3.484  -2.158  25.083  0.00  0.00    +0.030 A 
ATOM     17  C   UNL     1      -2.831  -1.684  25.256  0.00  0.00    +0.007 A 
ENDBRANCH   9  11
ENDBRANCH   7   8
ENDBRANCH   6   7
BRANCH   3  18
ATOM     18  N   UNL     1      -0.707   2.806  24.967  0.00  0.00    -0.208 NA
BRANCH  18  19
ATOM     19  C   UNL     1      -0.969   3.398  24.457  0.00  0.00    +0.136 C 
BRANCH  19  20
ATOM     20  C   UNL     1      -1.149   4.147  24.753  0.00  0.00    +0.097 A 
ATOM     21  C   UNL     1      -0.649   4.804  24.747  0.00  0.00    +0.117 A 
ATOM     22  N   UNL     1      -1.051   5.434  25.097  0.00  0.00    -0.221 NA
ATOM     23  C   UNL     1      -1.799   5.166  25.320  0.00  0.00    +0.199 A 
ATOM     24  N   UNL     1      -1.859   4.371  25.107  0.00  0.00    -0.225 NA
ENDBRANCH  19  20
ENDBRANCH  18  19
ENDBRANCH   3  18
TORSDOF 6
ENDMDL
MODEL 4
REMARK VINA RESULT:      -7.8      3.163      4.443
REMARK  Name = 
REMARK  6 active torsions:
REMARK  status: ('A' for Active; 'I' for Inactive)
REMARK    1  A    between atoms: C_3  and  N_18
REMARK    2  A    between atoms: C_6  and  C_7
REMARK    3  A    between atoms: C_7  and  N_8
REMARK    4  A    between atoms: C_9  and  C_11
REMARK    5  A    between atoms: N_18  and  C_19
REMARK    6  A    between atoms: C_19  and  C_20
REMARK                            x       y       z     vdW  Elec       q    Type
REMARK                         _______ _______ _______ _____ _____    ______ ____
ROOT
ATOM      1  O   UNL     1      -0.661   2.622  23.853  0.00  0.00    -0.219 OA
ATOM      2  C   UNL     1      -0.898   1.921  24.219  0.00  0.00    +0.199 C 
ATOM      3  C   UNL     1      -0.493   1.203  24.199  0.00  0.00    +0.135 C 
ATOM      4  C   UNL     1      -0.926   0.655  24.637  0.00  0.00    +0.162 C 
ATOM      5  O   UNL     1      -1.599   1.034  24.928  0.00  0.00    -0.350 OA
ATOM      6  C   UNL     1      -1.582   1.817  24.669  0.00  0.00    +0.169 C 
ENDROOT
BRANCH   6   7
ATOM      7  C   UNL     1      -2.148   2.394  24.832  0.00  0.00    +0.148 C 
BRANCH   7   8
ATOM      8  N   UNL     1      -2.940   2.181  24.916  0.00  0.00    -0.199 NA
ATOM      9  C   UNL     1      -3.516   2.765  25.013  0.00  0.00    +0.265 C 
ATOM     10  O   UNL     1      -3.298   3.560  25.026  0.00  0.00    -0.268 OA
BRANCH   9  11
ATOM     11  C   UNL     1      -4.309   2.552  25.096  0.00  0.00    +0.055 A 
ATOM     12  C   UNL     1      -4.754   2.857  25.720  0.00  0.00    +0.007 A 
ATOM     13  C   UNL     1      -5.547   2.644  25.804  0.00  0.00    +0.030 A 
ATOM     14  C   UNL     1      -5.894   2.127  25.263  0.00  0.00    +0.140 A 
ATOM     15  F   UNL     1      -6.687   1.915  25.347  0.00  0.00    -0.204 F 
ATOM     16  C   UNL     1      -5.449   1.822  24.639  0.00  0.00    +0.030 A 
ATOM     17  C   UNL     1      -4.657   2.035  24.556  0.00  0.00    +0.007 A 
ENDBRANCH   9  11
ENDBRANCH   7   8
ENDBRANCH   6   7
BRANCH   3  18
ATOM     18  N   UNL     1       0.220   1.059  23.810  0.00  0.00    -0.208 NA
BRANCH  18  19
ATOM     19  C   UNL     1       0.411   0.293  23.570  0.00  0.00    +0.136 C 
BRANCH  19  20
ATOM     20  C   UNL     1       1.074   0.163  23.096  0.00  0.00    +0.097 A 
ATOM     21  C   UNL     1       1.078  -0.217  22.363  0.00  0.00    +0.117 A 
ATOM     22  N   UNL     1       1.855  -0.225  22.085  0.00  0.00    -0.221 NA
ATOM     23  C   UNL     1       2.331   0.149  22.647  0.00  0.00    +0.199 A 
ATOM     24  N   UNL     1       1.847   0.388  23.271  0.00  0.00    -0.225 NA
ENDBRANCH  19  20
ENDBRANCH  18  19
ENDBRANCH   3  18
TORSDOF 6
ENDMDL
MODEL 5
REMARK VINA RESULT:      -7.7      3.545      4.050
REMARK  Name = 
REMARK  6 active torsions:
REMARK  status: ('A' for Active; 'I' for Inactive)
REMARK    1  A    between atoms: C_3  and  N_18
REMARK    2  A    between atoms: C_6  and  C_7
REMARK    3  A    between atoms: C_7  and  N_8
REMARK    4  A    between atoms: C_9  and  C_11
REMARK    5  A    between atoms: N_18  and  C_19
REMARK    6  A    between atoms: C_19  and  C_20
REMARK                            x       y       z     vdW  Elec       q    Type
REMARK                         _______ _______ _______ _____ _____    ______ ____
ROOT
ATOM      1  O   UNL     1       0.373  -1.099  24.424  0.00  0.00    -0.219 OA
ATOM      2  C   UNL     1       0.068  -0.388  24.139  0.00  0.00    +0.199 C 
ATOM      3  C   UNL     1       0.452   0.136  23.632  0.00  0.00    +0.135 C 
ATOM      4  C   UNL     1      -0.054   0.772  23.491  0.00  0.00    +0.162 C 
ATOM      5  O   UNL     1      -0.751   0.641  23.911  0.00  0.00    -0.350 OA
ATOM      6  C   UNL     1      -0.677  -0.076  24.312  0.00  0.00    +0.169 C 
ENDROOT
BRANCH   6   7
ATOM      7  C   UNL     1      -1.245  -0.421  24.799  0.00  0.00    +0.148 C 
BRANCH   7   8
ATOM      8  N   UNL     1      -1.870  -0.845  24.468  0.00  0.00    -0.199 NA
ATOM      9  C   UNL     1      -2.495  -1.099  24.943  0.00  0.00    +0.265 C 
ATOM     10  O   UNL     1      -2.494  -0.928  25.750  0.00  0.00    -0.268 OA
BRANCH   9  11
ATOM     11  C   UNL     1      -3.120  -1.524  24.612  0.00  0.00    +0.055 A 
ATOM     12  C   UNL     1      -3.749  -1.124  24.258  0.00  0.00    +0.007 A 
ATOM     13  C   UNL     1      -4.373  -1.549  23.926  0.00  0.00    +0.030 A 
ATOM     14  C   UNL     1      -4.369  -2.373  23.949  0.00  0.00    +0.140 A 
ATOM     15  F   UNL     1      -4.994  -2.798  23.617  0.00  0.00    -0.204 F 
ATOM     16  C   UNL     1      -3.740  -2.773  24.302  0.00  0.00    +0.030 A 
ATOM     17  C   UNL     1      -3.116  -2.349  24.634  0.00  0.00    +0.007 A 
ENDBRANCH   9  11
ENDBRANCH   7   8
ENDBRANCH   6   7
BRANCH   3  18
ATOM     18  N   UNL     1       1.210   0.041  23.320  0.00  0.00    -0.208 NA
BRANCH  18  19
ATOM     19  C   UNL     1       1.635   0.700  23.062  0.00  0.00    +0.136 C 
BRANCH  19  20
ATOM     20  C   UNL     1       2.427   0.620  22.843  0.00  0.00    +0.097 A 
ATOM     21  C   UNL     1       2.726   0.083  22.291  0.00  0.00    +0.117 A 
ATOM     22  N   UNL     1       3.542   0.194  22.245  0.00  0.00    -0.221 NA
ATOM     23  C   UNL     1       3.748   0.799  22.768  0.00  0.00    +0.199 A 
ATOM     24  N   UNL     1       3.058   1.061  23.137  0.00  0.00    -0.225 NA
ENDBRANCH  19  20
ENDBRANCH  18  19
ENDBRANCH   3  18
TORSDOF 6
ENDMDL
MODEL 6
REMARK VINA RESULT:      -6.6      3.387      4.558
REMARK  Name = 
REMARK  6 active torsions:
REMARK  status: ('A' for Active; 'I' for Inactive)
REMARK    1  A    between atoms: C_3  and  N_18
REMARK    2  A    between atoms: C_6  and  C_7
REMARK    3  A    between atoms: C_7  and  N_8
REMARK    4  A    between atoms: C_9  and  C_11
REMARK    5  A    between atoms: N_18  and  C_19
REMARK    6  A    between atoms: C_19  and  C_20
REMARK                            x       y       z     vdW  Elec       q    Type
REMARK                         _______ _______ _______ _____ _____    ______ ____
ROOT
ATOM      1  O   UNL     1      -1.966   1.130  25.496  0.00  0.00    -0.219 OA
ATOM      2  C   UNL     1      -2.059   1.302  24.694  0.00  0.00    +0.199 C 
ATOM      3  C   UNL     1      -2.615   1.818  24.370  0.00  0.00    +0.135 C 
ATOM      4  C   UNL     1      -2.511   1.823  23.552  0.00  0.00    +0.162 C 
ATOM      5  O   UNL     1      -1.890   1.311  23.370  0.00  0.00    -0.350 OA
ATOM      6  C   UNL     1      -1.610   0.989  24.076  0.00  0.00    +0.169 C 
ENDROOT
BRANCH   6   7
ATOM      7  C   UNL     1      -0.992   0.449  24.151  0.00  0.00    +0.148 C 
BRANCH   7   8
ATOM      8  N   UNL     1      -0.307   0.542  23.700  0.00  0.00    -0.199 NA
ATOM      9  C   UNL     1       0.274  -0.044  23.707  0.00  0.00    +0.265 C 
ATOM     10  O   UNL     1       0.170  -0.722  24.165  0.00  0.00    -0.268 OA
BRANCH   9  11
ATOM     11  C   UNL     1       0.959   0.048  23.256  0.00  0.00    +0.055 A 
ATOM     12  C   UNL     1       1.029  -0.334  22.528  0.00  0.00    +0.007 A 
ATOM     13  C   UNL     1       1.713  -0.242  22.078  0.00  0.00    +0.030 A 
ATOM     14  C   UNL     1       2.328   0.233  22.354  0.00  0.00    +0.140 A 
ATOM     15  F   UNL     1       3.012   0.325  21.903  0.00  0.00    -0.204 F 
ATOM     16  C   UNL     1       2.259   0.616  23.082  0.00  0.00    +0.030 A 
ATOM     17  C   UNL     1       1.574   0.524  23.533  0.00  0.00    +0.007 A 
ENDBRANCH   9  11
ENDBRANCH   7   8
ENDBRANCH   6   7
BRANCH   3  18
ATOM     18  N   UNL     1      -3.177   2.252  24.791  0.00  0.00    -0.208 NA
BRANCH  18  19
ATOM     19  C   UNL     1      -3.883   2.474  24.426  0.00  0.00    +0.136 C 
BRANCH  19  20
ATOM     20  C   UNL     1      -4.494   2.799  24.876  0.00  0.00    +0.097 A 
ATOM     21  C   UNL     1      -5.223   2.445  25.030  0.00  0.00    +0.117 A 
ATOM     22  N   UNL     1      -5.663   2.962  25.500  0.00  0.00    -0.221 NA
ATOM     23  C   UNL     1      -5.206   3.635  25.635  0.00  0.00    +0.199 A 
ATOM     24  N   UNL     1      -4.483   3.534  25.249  0.00  0.00    -0.225 NA
ENDBRANCH  19  20
ENDBRANCH  18  19
ENDBRANCH   3  18
TORSDOF 6
ENDMDL
MODEL 7
REMARK VINA RESULT:      -6.3     14.654     16.956
REMARK  Name = 
REMARK  6 active torsions:
REMARK  status: ('A' for Active; 'I' for Inactive)
REMARK    1  A    between atoms: C_3  and  N_18
REMARK    2  A    between atoms: C_6  and  C_7
REMARK    3  A    between atoms: C_7  and  N_8
REMARK    4  A    between atoms: C_9  and  C_11
REMARK    5  A    between atoms: N_18  and  C_19
REMARK    6  A    between atoms: C_19  and  C_20
REMARK                            x       y       z     vdW  Elec       q    Type
REMARK                         _______ _______ _______ _____ _____    ______ ____
ROOT
ATOM      1  O   UNL     1      -2.968 -10.781  14.393  0.00  0.00    -0.219 OA
ATOM      2  C   UNL     1      -3.736 -10.639  14.128  0.00  0.00    +0.199 C 
ATOM      3  C   UNL     1      -4.409 -10.576  14.601  0.00  0.00    +0.135 C 
ATOM      4  C   UNL     1      -5.054 -10.433  14.108  0.00  0.00    +0.162 C 
ATOM      5  O   UNL     1      -4.781 -10.408  13.330  0.00  0.00    -0.350 OA
ATOM      6  C   UNL     1      -3.967 -10.535  13.342  0.00  0.00    +0.169 C 
ENDROOT
BRANCH   6   7
ATOM      7  C   UNL     1      -3.469 -10.555  12.684  0.00  0.00    +0.148 C 
BRANCH   7   8
ATOM      8  N   UNL     1      -3.734 -10.266  11.959  0.00  0.00    -0.199 NA
ATOM      9  C   UNL     1      -3.239 -10.293  11.298  0.00  0.00    +0.265 C 
ATOM     10  O   UNL     1      -2.480 -10.608  11.365  0.00  0.00    -0.268 OA
BRANCH   9  11
ATOM     11  C   UNL     1      -3.504 -10.004  10.573  0.00  0.00    +0.055 A 
ATOM     12  C   UNL     1      -3.911 -10.500  10.054  0.00  0.00    +0.007 A 
ATOM     13  C   UNL     1      -4.176 -10.211   9.328  0.00  0.00    +0.030 A 
ATOM     14  C   UNL     1      -4.034  -9.426   9.121  0.00  0.00    +0.140 A 
ATOM     15  F   UNL     1      -4.298  -9.137   8.395  0.00  0.00    -0.204 F 
ATOM     16  C   UNL     1      -3.627  -8.929   9.639  0.00  0.00    +0.030 A 
ATOM     17  C   UNL     1      -3.362  -9.218  10.365  0.00  0.00    +0.007 A 
ENDBRANCH   9  11
ENDBRANCH   7   8
ENDBRANCH   6   7
BRANCH   3  18
ATOM     18  N   UNL     1      -4.431 -10.644  15.423  0.00  0.00    -0.208 NA
BRANCH  18  19
ATOM     19  C   UNL     1      -5.095 -10.385  15.840  0.00  0.00    +0.136 C 
BRANCH  19  20
ATOM     20  C   UNL     1      -5.143 -10.507  16.655  0.00  0.00    +0.097 A 
ATOM     21  C   UNL     1      -5.821 -10.720  17.074  0.00  0.00    +0.117 A 
ATOM     22  N   UNL     1      -5.618 -10.781  17.872  0.00  0.00    -0.221 NA
ATOM     23  C   UNL     1      -4.815 -10.605  17.945  0.00  0.00    +0.199 A 
ATOM     24  N   UNL     1      -4.521 -10.436  17.193  0.00  0.00    -0.225 NA
ENDBRANCH  19  20
ENDBRANCH  18  19
ENDBRANCH   3  18
TORSDOF 6
ENDMDL
MODEL 8
REMARK VINA RESULT:      -6.3      2.433      3.195
REMARK  Name = 
REMARK  6 active torsions:
REMARK  status: ('A' for Active; 'I' for Inactive)
REMARK    1  A    between atoms: C_3  and  N_18
REMARK    2  A    between atoms: C_6  and  C_7
REMARK    3  A    between atoms: C_7  and  N_8
REMARK    4  A    between atoms: C_9  and  C_11
REMARK    5  A    between atoms: N_18  and  C_19
REMARK    6  A    between atoms: C_19  and  C_20
REMARK                            x       y       z     vdW  Elec       q    Type
REMARK                         _______ _______ _______ _____ _____    ______ ____
ROOT
ATOM      1  O   UNL     1      -2.133   2.152  25.283  0.00  0.00    -0.219 OA
ATOM      2  C   UNL     1      -2.346   2.137  24.486  0.00  0.00    +0.199 C 
ATOM      3  C   UNL     1      -2.981   2.539  24.146  0.00  0.00    +0.135 C 
ATOM      4  C   UNL     1      -2.988   2.368  23.340  0.00  0.00    +0.162 C 
ATOM      5  O   UNL     1      -2.357   1.860  23.181  0.00  0.00    -0.350 OA
ATOM      6  C   UNL     1      -1.960   1.717  23.889  0.00  0.00    +0.169 C 
ENDROOT
BRANCH   6   7
ATOM      7  C   UNL     1      -1.295   1.239  23.985  0.00  0.00    +0.148 C 
BRANCH   7   8
ATOM      8  N   UNL     1      -1.380   0.465  24.256  0.00  0.00    -0.199 NA
ATOM      9  C   UNL     1      -0.747  -0.062  24.202  0.00  0.00    +0.265 C 
ATOM     10  O   UNL     1      -0.031   0.185  23.877  0.00  0.00    -0.268 OA
BRANCH   9  11
ATOM     11  C   UNL     1      -0.832  -0.837  24.474  0.00  0.00    +0.055 A 
ATOM     12  C   UNL     1      -0.426  -1.084  25.148  0.00  0.00    +0.007 A 
ATOM     13  C   UNL     1      -0.511  -1.859  25.420  0.00  0.00    +0.030 A 
ATOM     14  C   UNL     1      -1.001  -2.385  25.017  0.00  0.00    +0.140 A 
ATOM     15  F   UNL     1      -1.085  -3.160  25.288  0.00  0.00    -0.204 F 
ATOM     16  C   UNL     1      -1.407  -2.139  24.342  0.00  0.00    +0.030 A 
ATOM     17  C   UNL     1      -1.322  -1.364  24.071  0.00  0.00    +0.007 A 
ENDBRANCH   9  11
ENDBRANCH   7   8
ENDBRANCH   6   7
BRANCH   3  18
ATOM     18  N   UNL     1      -3.515   3.027  24.544  0.00  0.00    -0.208 NA
BRANCH  18  19
ATOM     19  C   UNL     1      -4.318   2.998  24.355  0.00  0.00    +0.136 C 
BRANCH  19  20
ATOM     20  C   UNL     1      -4.881   3.214  24.918  0.00  0.00    +0.097 A 
ATOM     21  C   UNL     1      -4.941   3.950  25.287  0.00  0.00    +0.117 A 
ATOM     22  N   UNL     1      -5.580   3.924  25.808  0.00  0.00    -0.221 NA
ATOM     23  C   UNL     1      -5.916   3.171  25.760  0.00  0.00    +0.199 A 
ATOM     24  N   UNL     1      -5.484   2.733  25.210  0.00  0.00    -0.225 NA
ENDBRANCH  19  20
ENDBRANCH  18  19
ENDBRANCH   3  18
TORSDOF 6
ENDMDL
MODEL 9
REMARK VINA RESULT:      -6.3      2.545      5.563
REMARK  Name = 
REMARK  6 active torsions:
REMARK  status: ('A' for Active; 'I' for Inactive)
REMARK    1  A    between atoms: C_3  and  N_18
REMARK    2  A    between atoms: C_6  and  C_7
REMARK    3  A    between atoms: C_7  and  N_8
REMARK    4  A    between atoms: C_9  and  C_11
REMARK    5  A    between atoms: N_18  and  C_19
REMARK    6  A    between atoms: C_19  and  C_20
REMARK                            x       y       z     vdW  Elec       q    Type
REMARK                         _______ _______ _______ _____ _____    ______ ____
ROOT
ATOM      1  O   UNL     1      -2.269   0.547  23.783  0.00  0.00    -0.219 OA
ATOM      2  C   UNL     1      -1.869   0.491  24.502  0.00  0.00    +0.199 C 
ATOM      3  C   UNL     1      -1.627  -0.206  24.870  0.00  0.00    +0.135 C 
ATOM      4  C   UNL     1      -1.250  -0.005  25.574  0.00  0.00    +0.162 C 
ATOM      5  O   UNL     1      -1.258   0.817  25.643  0.00  0.00    -0.350 OA
ATOM      6  C   UNL     1      -1.641   1.124  24.980  0.00  0.00    +0.169 C 
ENDROOT
BRANCH   6   7
ATOM      7  C   UNL     1      -1.773   1.923  24.823  0.00  0.00    +0.148 C 
BRANCH   7   8
ATOM      8  N   UNL     1      -2.509   2.259  24.985  0.00  0.00    -0.199 NA
ATOM      9  C   UNL     1      -2.617   3.073  24.908  0.00  0.00    +0.265 C 
ATOM     10  O   UNL     1      -1.988   3.551  24.670  0.00  0.00    -0.268 OA
BRANCH   9  11
ATOM     11  C   UNL     1      -3.352   3.409  25.070  0.00  0.00    +0.055 A 
ATOM     12  C   UNL     1      -3.537   3.649  25.838  0.00  0.00    +0.007 A 
ATOM     13  C   UNL     1      -4.273   3.985  26.000  0.00  0.00    +0.030 A 
ATOM     14  C   UNL     1      -4.824   4.081  25.394  0.00  0.00    +0.140 A 
ATOM     15  F   UNL     1      -5.560   4.417  25.556  0.00  0.00    -0.204 F 
ATOM     16  C   UNL     1      -4.640   3.842  24.626  0.00  0.00    +0.030 A 
ATOM     17  C   UNL     1      -3.905   3.506  24.464  0.00  0.00    +0.007 A 
ENDBRANCH   9  11
ENDBRANCH   7   8
ENDBRANCH   6   7
BRANCH   3  18
ATOM     18  N   UNL     1      -1.742  -0.971  24.582  0.00  0.00    -0.208 NA
BRANCH  18  19
ATOM     19  C   UNL     1      -2.014  -1.564  25.087  0.00  0.00    +0.136 C 
BRANCH  19  20
ATOM     20  C   UNL     1      -2.448  -2.197  24.783  0.00  0.00    +0.097 A 
ATOM     21  C   UNL     1      -3.228  -2.387  24.973  0.00  0.00    +0.117 A 
ATOM     22  N   UNL     1      -3.440  -3.058  24.543  0.00  0.00    -0.221 NA
ATOM     23  C   UNL     1      -2.790  -3.284  24.087  0.00  0.00    +0.199 A 
ATOM     24  N   UNL     1      -2.177  -2.751  24.235  0.00  0.00    -0.225 NA
ENDBRANCH  19  20
ENDBRANCH  18  19
ENDBRANCH   3  18
TORSDOF 6
ENDMDL
MODEL 10
REMARK VINA RESULT:      -6.1     14.276     15.068
REMARK  Name = 
REMARK  6 active torsions:
REMARK  status: ('A' for Active; 'I' for Inactive)
REMARK    1  A    between atoms: C_3  and  N_18
REMARK    2  A    between atoms: C_6  and  C_7
REMARK    3  A    between atoms: C_7  and  N_8
REMARK    4  A    between atoms: C_9  and  C_11
REMARK    5  A    between atoms: N_18  and  C_19
REMARK    6  A    between atoms: C_19  and  C_20
REMARK                            x       y       z     vdW  Elec       q    Type
REMARK                         _______ _______ _______ _____ _____    ______ ____
ROOT
ATOM      1  O   UNL     1      -6.482 -10.004  14.767  0.00  0.00    -0.219 OA
ATOM      2  C   UNL     1      -6.172 -10.009  15.531  0.00  0.00    +0.199 C 
ATOM      3  C   UNL     1      -6.581  -9.818  16.221  0.00  0.00    +0.135 C 
ATOM      4  C   UNL     1      -6.060  -9.896  16.856  0.00  0.00    +0.162 C 
ATOM      5  O   UNL     1      -5.329 -10.136  16.558  0.00  0.00    -0.350 OA
ATOM      6  C   UNL     1      -5.398 -10.206  15.739  0.00  0.00    +0.169 C 
ENDROOT
BRANCH   6   7
ATOM      7  C   UNL     1      -4.799 -10.432  15.220  0.00  0.00    +0.148 C 
BRANCH   7   8
ATOM      8  N   UNL     1      -4.010 -10.391  15.457  0.00  0.00    -0.199 NA
ATOM      9  C   UNL     1      -3.408 -10.564  14.920  0.00  0.00    +0.265 C 
ATOM     10  O   UNL     1      -3.595 -10.777  14.145  0.00  0.00    -0.268 OA
BRANCH   9  11
ATOM     11  C   UNL     1      -2.619 -10.523  15.157  0.00  0.00    +0.055 A 
ATOM     12  C   UNL     1      -2.047 -10.225  14.642  0.00  0.00    +0.007 A 
ATOM     13  C   UNL     1      -1.258 -10.185  14.880  0.00  0.00    +0.030 A 
ATOM     14  C   UNL     1      -1.041 -10.442  15.632  0.00  0.00    +0.140 A 
ATOM     15  F   UNL     1      -0.252 -10.401  15.870  0.00  0.00    -0.204 F 
ATOM     16  C   UNL     1      -1.612 -10.740  16.148  0.00  0.00    +0.030 A 
ATOM     17  C   UNL     1      -2.401 -10.781  15.911  0.00  0.00    +0.007 A 
ENDBRANCH   9  11
ENDBRANCH   7   8
ENDBRANCH   6   7
BRANCH   3  18
ATOM     18  N   UNL     1      -7.372  -9.588  16.269  0.00  0.00    -0.208 NA
BRANCH  18  19
ATOM     19  C   UNL     1      -7.643  -9.177  16.931  0.00  0.00    +0.136 C 
BRANCH  19  20
ATOM     20  C   UNL     1      -8.445  -8.996  17.004  0.00  0.00    +0.097 A 
ATOM     21  C   UNL     1      -8.945  -9.245  17.612  0.00  0.00    +0.117 A 
ATOM     22  N   UNL     1      -9.696  -8.937  17.465  0.00  0.00    -0.221 NA
ATOM     23  C   UNL     1      -9.661  -8.498  16.767  0.00  0.00    +0.199 A 
ATOM     24  N   UNL     1      -8.887  -8.535  16.482  0.00  0.00    -0.225 NA
ENDBRANCH  19  20
ENDBRANCH  18  19
ENDBRANCH   3  18
TORSDOF 6
ENDMDL
