MODEL 1
REMARK VINA RESULT:     -11.5      0.000      0.000
REMARK  Name = 
REMARK  10 active torsions:
REMARK  status: ('A' for Active; 'I' for Inactive)
REMARK    1  A    between atoms: O_2  and  C_3
REMARK    2  A    between atoms: C_6  and  C_7
REMARK    3  A    between atoms: C_7  and  N_8
REMARK    4  A    between atoms: C_9  and  C_11
REMARK    5  A    between atoms: C_11  and  C_12
REMARK    6  A    between atoms: C_17  and  C_18
REMARK    7  A    between atoms: C_18  and  C_19
REMARK    8  A    between atoms: C_22  and  C_23
REMARK    9  A    between atoms: C_23  and  O_24
REMARK   10  A    between atoms: O_24  and  C_25
REMARK                            x       y       z     vdW  Elec       q    Type
REMARK                         _______ _______ _______ _____ _____    ______ ____
ROOT
ATOM     12  C   UNL     1      -0.889   2.817  25.113  0.00  0.00    +0.012 C 
ATOM     13  C   UNL     1      -0.667   3.230  25.792  0.00  0.00    +0.019 C 
ATOM     14  C   UNL     1      -0.003   2.995  26.220  0.00  0.00    +0.089 C 
ATOM     15  N   UNL     1       0.441   2.346  25.968  0.00  0.00    -0.218 NA
ATOM     16  C   UNL     1       0.220   1.933  25.290  0.00  0.00    +0.089 C 
ATOM     17  C   UNL     1      -0.445   2.168  24.861  0.00  0.00    +0.024 C 
ENDROOT
BRANCH  12  11
ATOM     11  C   UNL     1      -1.553   3.053  24.685  0.00  0.00    +0.087 C 
BRANCH  11   9
ATOM      8  N   UNL     1      -2.810   3.702  24.886  0.00  0.00    -0.201 NA
ATOM      9  C   UNL     1      -1.986   3.712  24.925  0.00  0.00    +0.242 C 
ATOM     10  O   UNL     1      -1.596   4.383  25.206  0.00  0.00    -0.273 OA
BRANCH   8   7
ATOM      7  C   UNL     1      -3.201   3.031  24.605  0.00  0.00    +0.141 C 
BRANCH   7   6
ATOM      3  C   UNL     1      -5.545   2.597  25.268  0.00  0.00    +0.139 A 
ATOM      4  C   UNL     1      -5.137   2.045  24.812  0.00  0.00    +0.037 A 
ATOM      5  C   UNL     1      -4.356   2.189  24.591  0.00  0.00    +0.001 A 
ATOM      6  C   UNL     1      -3.983   2.887  24.826  0.00  0.00    -0.000 A 
ATOM     32  C   UNL     1      -4.391   3.439  25.282  0.00  0.00    +0.001 A 
ATOM     33  C   UNL     1      -5.173   3.295  25.503  0.00  0.00    +0.037 A 
BRANCH   3   2
ATOM      1  C   UNL     1      -6.497   1.870  26.048  0.00  0.00    +0.252 C 
ATOM      2  O   UNL     1      -6.327   2.453  25.489  0.00  0.00    -0.471 OA
ENDBRANCH   3   2
ENDBRANCH   7   6
ENDBRANCH   8   7
ENDBRANCH  11   9
ENDBRANCH  12  11
BRANCH  17  18
ATOM     18  C   UNL     1      -0.666   1.755  24.183  0.00  0.00    +0.051 C 
BRANCH  18  19
ATOM     19  C   UNL     1      -0.680   0.930  24.188  0.00  0.00    +0.100 A 
ATOM     20  N   UNL     1      -0.032   0.433  24.071  0.00  0.00    -0.082 NA
ATOM     21  O   UNL     1      -0.296  -0.346  24.122  0.00  0.00    -0.354 OA
ATOM     22  C   UNL     1      -1.107  -0.331  24.271  0.00  0.00    +0.198 A 
ATOM     31  C   UNL     1      -1.345   0.457  24.312  0.00  0.00    +0.057 A 
BRANCH  22  23
ATOM     23  C   UNL     1      -1.595  -0.991  24.364  0.00  0.00    +0.272 C 
BRANCH  23  24
ATOM     24  O   UNL     1      -2.376  -0.894  24.613  0.00  0.00    -0.467 OA
BRANCH  24  25
ATOM     25  C   UNL     1      -2.925  -1.499  24.492  0.00  0.00    +0.139 A 
ATOM     26  C   UNL     1      -3.617  -1.349  24.069  0.00  0.00    +0.037 A 
ATOM     27  C   UNL     1      -4.166  -1.953  23.949  0.00  0.00    +0.003 A 
ATOM     28  C   UNL     1      -4.022  -2.708  24.251  0.00  0.00    +0.000 A 
ATOM     29  C   UNL     1      -3.329  -2.857  24.674  0.00  0.00    +0.003 A 
ATOM     30  C   UNL     1      -2.781  -2.252  24.794  0.00  0.00    +0.037 A 
ENDBRANCH  24  25
ENDBRANCH  23  24
ENDBRANCH  22  23
ENDBRANCH  18  19
ENDBRANCH  17  18
TORSDOF 10
ENDMDL
MODEL 2
REMARK VINA RESULT:     -11.4      1.313      4.107
REMARK  Name = 
REMARK  10 active torsions:
REMARK  status: ('A' for Active; 'I' for Inactive)
REMARK    1  A    between atoms: O_2  and  C_3
REMARK    2  A    between atoms: C_6  and  C_7
REMARK    3  A    between atoms: C_7  and  N_8
REMARK    4  A    between atoms: C_9  and  C_11
REMARK    5  A    between atoms: C_11  and  C_12
REMARK    6  A    between atoms: C_17  and  C_18
REMARK    7  A    between atoms: C_18  and  C_19
REMARK    8  A    between atoms: C_22  and  C_23
REMARK    9  A    between atoms: C_23  and  O_24
REMARK   10  A    between atoms: O_24  and  C_25
REMARK                            x       y       z     vdW  Elec       q    Type
REMARK                         _______ _______ _______ _____ _____    ______ ____
ROOT
ATOM     12  C   UNL     1      -2.551   3.373  25.116  0.00  0.00    +0.012 C 
ATOM     13  C   UNL     1      -2.265   3.825  25.744  0.00  0.00    +0.019 C 
ATOM     14  C   UNL     1      -2.790   4.168  26.279  0.00  0.00    +0.089 C 
ATOM     15  N   UNL     1      -3.603   4.058  26.187  0.00  0.00    -0.218 NA
ATOM     16  C   UNL     1      -3.890   3.606  25.560  0.00  0.00    +0.089 C 
ATOM     17  C   UNL     1      -3.364   3.264  25.024  0.00  0.00    +0.024 C 
ENDROOT
BRANCH  12  11
ATOM     11  C   UNL     1      -2.026   3.031  24.580  0.00  0.00    +0.087 C 
BRANCH  11   9
ATOM      8  N   UNL     1      -0.641   2.715  24.428  0.00  0.00    -0.201 NA
ATOM      9  C   UNL     1      -1.236   3.268  24.568  0.00  0.00    +0.242 C 
ATOM     10  O   UNL     1      -1.040   4.059  24.697  0.00  0.00    -0.273 OA
BRANCH   8   7
ATOM      7  C   UNL     1      -0.836   1.923  24.299  0.00  0.00    +0.141 C 
BRANCH   7   6
ATOM      3  C   UNL     1       0.874   0.355  23.438  0.00  0.00    +0.139 A 
ATOM      4  C   UNL     1       1.091   1.117  23.667  0.00  0.00    +0.037 A 
ATOM      5  C   UNL     1       0.521   1.640  23.954  0.00  0.00    +0.001 A 
ATOM      6  C   UNL     1      -0.267   1.400  24.012  0.00  0.00    -0.000 A 
ATOM     32  C   UNL     1      -0.484   0.638  23.784  0.00  0.00    +0.001 A 
ATOM     33  C   UNL     1       0.087   0.115  23.496  0.00  0.00    +0.037 A 
BRANCH   3   2
ATOM      1  C   UNL     1       1.984   0.083  22.580  0.00  0.00    +0.252 C 
ATOM      2  O   UNL     1       1.444  -0.168  23.151  0.00  0.00    -0.471 OA
ENDBRANCH   3   2
ENDBRANCH   7   6
ENDBRANCH   8   7
ENDBRANCH  11   9
ENDBRANCH  12  11
BRANCH  17  18
ATOM     18  C   UNL     1      -3.651   2.812  24.397  0.00  0.00    +0.051 C 
BRANCH  18  19
ATOM     19  C   UNL     1      -4.114   2.145  24.546  0.00  0.00    +0.100 A 
ATOM     20  N   UNL     1      -4.897   2.147  24.804  0.00  0.00    -0.082 NA
ATOM     21  O   UNL     1      -5.141   1.363  24.881  0.00  0.00    -0.354 OA
ATOM     22  C   UNL     1      -4.509   0.877  24.671  0.00  0.00    +0.198 A 
ATOM     31  C   UNL     1      -3.874   1.360  24.464  0.00  0.00    +0.057 A 
BRANCH  22  23
ATOM     23  C   UNL     1      -4.511   0.051  24.668  0.00  0.00    +0.272 C 
BRANCH  23  24
ATOM     24  O   UNL     1      -3.898  -0.362  24.301  0.00  0.00    -0.467 OA
BRANCH  24  25
ATOM     25  C   UNL     1      -3.854  -1.183  24.373  0.00  0.00    +0.139 A 
ATOM     26  C   UNL     1      -3.426  -1.520  24.993  0.00  0.00    +0.037 A 
ATOM     27  C   UNL     1      -3.382  -2.340  25.065  0.00  0.00    +0.003 A 
ATOM     28  C   UNL     1      -3.766  -2.824  24.517  0.00  0.00    +0.000 A 
ATOM     29  C   UNL     1      -4.194  -2.486  23.898  0.00  0.00    +0.003 A 
ATOM     30  C   UNL     1      -4.238  -1.666  23.826  0.00  0.00    +0.037 A 
ENDBRANCH  24  25
ENDBRANCH  23  24
ENDBRANCH  22  23
ENDBRANCH  18  19
ENDBRANCH  17  18
TORSDOF 10
ENDMDL
MODEL 3
REMARK VINA RESULT:     -11.1      1.465      4.257
REMARK  Name = 
REMARK  10 active torsions:
REMARK  status: ('A' for Active; 'I' for Inactive)
REMARK    1  A    between atoms: O_2  and  C_3
REMARK    2  A    between atoms: C_6  and  C_7
REMARK    3  A    between atoms: C_7  and  N_8
REMARK    4  A    between atoms: C_9  and  C_11
REMARK    5  A    between atoms: C_11  and  C_12
REMARK    6  A    between atoms: C_17  and  C_18
REMARK    7  A    between atoms: C_18  and  C_19
REMARK    8  A    between atoms: C_22  and  C_23
REMARK    9  A    between atoms: C_23  and  O_24
REMARK   10  A    between atoms: O_24  and  C_25
REMARK                            x       y       z     vdW  Elec       q    Type
REMARK                         _______ _______ _______ _____ _____    ______ ____
ROOT
ATOM     12  C   UNL     1      -4.638   2.579  24.929  0.00  0.00    +0.012 C 
ATOM     13  C   UNL     1      -5.118   2.733  25.583  0.00  0.00    +0.019 C 
ATOM     14  C   UNL     1      -5.065   3.458  25.972  0.00  0.00    +0.089 C 
ATOM     15  N   UNL     1      -4.532   4.031  25.708  0.00  0.00    -0.218 NA
ATOM     16  C   UNL     1      -4.052   3.877  25.056  0.00  0.00    +0.089 C 
ATOM     17  C   UNL     1      -4.104   3.152  24.665  0.00  0.00    +0.024 C 
ENDROOT
BRANCH  12  11
ATOM     11  C   UNL     1      -4.690   1.855  24.540  0.00  0.00    +0.087 C 
BRANCH  11   9
ATOM      8  N   UNL     1      -5.066   0.503  24.811  0.00  0.00    -0.201 NA
ATOM      9  C   UNL     1      -5.260   1.303  24.769  0.00  0.00    +0.242 C 
ATOM     10  O   UNL     1      -6.023   1.552  24.958  0.00  0.00    -0.273 OA
BRANCH   8   7
ATOM      7  C   UNL     1      -4.302   0.253  24.622  0.00  0.00    +0.141 C 
BRANCH   7   6
ATOM      3  C   UNL     1      -3.751  -2.159  24.638  0.00  0.00    +0.139 A 
ATOM      4  C   UNL     1      -3.605  -1.699  25.306  0.00  0.00    +0.037 A 
ATOM      5  C   UNL     1      -3.789  -0.895  25.301  0.00  0.00    +0.001 A 
ATOM      6  C   UNL     1      -4.119  -0.551  24.627  0.00  0.00    -0.000 A 
ATOM     32  C   UNL     1      -4.264  -1.011  23.959  0.00  0.00    +0.001 A 
ATOM     33  C   UNL     1      -4.081  -1.816  23.964  0.00  0.00    +0.037 A 
BRANCH   3   2
ATOM      1  C   UNL     1      -2.786  -3.210  24.547  0.00  0.00    +0.252 C 
ATOM      2  O   UNL     1      -3.568  -2.964  24.643  0.00  0.00    -0.471 OA
ENDBRANCH   3   2
ENDBRANCH   7   6
ENDBRANCH   8   7
ENDBRANCH  11   9
ENDBRANCH  12  11
BRANCH  17  18
ATOM     18  C   UNL     1      -3.625   2.999  24.013  0.00  0.00    +0.051 C 
BRANCH  18  19
ATOM     19  C   UNL     1      -2.805   2.969  24.101  0.00  0.00    +0.100 A 
ATOM     20  N   UNL     1      -2.332   3.554  24.437  0.00  0.00    -0.082 NA
ATOM     21  O   UNL     1      -1.550   3.295  24.412  0.00  0.00    -0.354 OA
ATOM     22  C   UNL     1      -1.539   2.548  24.062  0.00  0.00    +0.198 A 
ATOM     31  C   UNL     1      -2.315   2.346  23.869  0.00  0.00    +0.057 A 
BRANCH  22  23
ATOM     23  C   UNL     1      -0.870   2.084  23.927  0.00  0.00    +0.272 C 
BRANCH  23  24
ATOM     24  O   UNL     1      -0.697   1.453  24.430  0.00  0.00    -0.467 OA
BRANCH  24  25
ATOM     25  C   UNL     1      -0.291   0.796  24.142  0.00  0.00    +0.139 A 
ATOM     26  C   UNL     1      -0.513   0.037  24.378  0.00  0.00    +0.037 A 
ATOM     27  C   UNL     1      -0.107  -0.620  24.090  0.00  0.00    +0.003 A 
ATOM     28  C   UNL     1       0.522  -0.519  23.565  0.00  0.00    +0.000 A 
ATOM     29  C   UNL     1       0.744   0.240  23.329  0.00  0.00    +0.003 A 
ATOM     30  C   UNL     1       0.338   0.897  23.617  0.00  0.00    +0.037 A 
ENDBRANCH  24  25
ENDBRANCH  23  24
ENDBRANCH  22  23
ENDBRANCH  18  19
ENDBRANCH  17  18
TORSDOF 10
ENDMDL
MODEL 4
REMARK VINA RESULT:     -11.0      1.375      4.113
REMARK  Name = 
REMARK  10 active torsions:
REMARK  status: ('A' for Active; 'I' for Inactive)
REMARK    1  A    between atoms: O_2  and  C_3
REMARK    2  A    between atoms: C_6  and  C_7
REMARK    3  A    between atoms: C_7  and  N_8
REMARK    4  A    between atoms: C_9  and  C_11
REMARK    5  A    between atoms: C_11  and  C_12
REMARK    6  A    between atoms: C_17  and  C_18
REMARK    7  A    between atoms: C_18  and  C_19
REMARK    8  A    between atoms: C_22  and  C_23
REMARK    9  A    between atoms: C_23  and  O_24
REMARK   10  A    between atoms: O_24  and  C_25
REMARK                            x       y       z     vdW  Elec       q    Type
REMARK                         _______ _______ _______ _____ _____    ______ ____
ROOT
ATOM     12  C   UNL     1      -1.838  -0.794  24.613  0.00  0.00    +0.012 C 
ATOM     13  C   UNL     1      -1.958  -1.378  25.183  0.00  0.00    +0.019 C 
ATOM     14  C   UNL     1      -1.312  -1.742  25.543  0.00  0.00    +0.089 C 
ATOM     15  N   UNL     1      -0.544  -1.522  25.333  0.00  0.00    -0.218 NA
ATOM     16  C   UNL     1      -0.424  -0.939  24.763  0.00  0.00    +0.089 C 
ATOM     17  C   UNL     1      -1.070  -0.574  24.402  0.00  0.00    +0.024 C 
ENDROOT
BRANCH  12  11
ATOM     11  C   UNL     1      -2.484  -0.430  24.253  0.00  0.00    +0.087 C 
BRANCH  11   9
ATOM      8  N   UNL     1      -3.861  -0.145  24.509  0.00  0.00    -0.201 NA
ATOM      9  C   UNL     1      -3.249  -0.691  24.417  0.00  0.00    +0.242 C 
ATOM     10  O   UNL     1      -3.403  -1.498  24.490  0.00  0.00    -0.273 OA
BRANCH   8   7
ATOM      7  C   UNL     1      -3.707   0.663  24.436  0.00  0.00    +0.141 C 
BRANCH   7   6
ATOM      3  C   UNL     1      -5.424   2.314  25.106  0.00  0.00    +0.139 A 
ATOM      4  C   UNL     1      -4.910   2.483  24.484  0.00  0.00    +0.037 A 
ATOM      5  C   UNL     1      -4.338   1.933  24.261  0.00  0.00    +0.001 A 
ATOM      6  C   UNL     1      -4.280   1.213  24.660  0.00  0.00    -0.000 A 
ATOM     32  C   UNL     1      -4.794   1.044  25.282  0.00  0.00    +0.001 A 
ATOM     33  C   UNL     1      -5.367   1.594  25.505  0.00  0.00    +0.037 A 
BRANCH   3   2
ATOM      1  C   UNL     1      -5.771   3.577  25.678  0.00  0.00    +0.252 C 
ATOM      2  O   UNL     1      -5.997   2.865  25.329  0.00  0.00    -0.471 OA
ENDBRANCH   3   2
ENDBRANCH   7   6
ENDBRANCH   8   7
ENDBRANCH  11   9
ENDBRANCH  12  11
BRANCH  17  18
ATOM     18  C   UNL     1      -0.950   0.009  23.832  0.00  0.00    +0.051 C 
BRANCH  18  19
ATOM     19  C   UNL     1      -0.502   0.678  24.014  0.00  0.00    +0.100 A 
ATOM     20  N   UNL     1       0.318   0.705  24.091  0.00  0.00    -0.082 NA
ATOM     21  O   UNL     1       0.531   1.480  24.275  0.00  0.00    -0.354 OA
ATOM     22  C   UNL     1      -0.158   1.932  24.312  0.00  0.00    +0.198 A 
ATOM     31  C   UNL     1      -0.797   1.437  24.151  0.00  0.00    +0.057 A 
BRANCH  22  23
ATOM     23  C   UNL     1      -0.200   2.739  24.481  0.00  0.00    +0.272 C 
BRANCH  23  24
ATOM     24  O   UNL     1      -0.581   2.998  25.166  0.00  0.00    -0.467 OA
BRANCH  24  25
ATOM     25  C   UNL     1      -0.941   3.740  25.182  0.00  0.00    +0.139 A 
ATOM     26  C   UNL     1      -1.678   3.834  25.542  0.00  0.00    +0.037 A 
ATOM     27  C   UNL     1      -2.037   4.576  25.558  0.00  0.00    +0.003 A 
ATOM     28  C   UNL     1      -1.660   5.225  25.214  0.00  0.00    +0.000 A 
ATOM     29  C   UNL     1      -0.924   5.130  24.854  0.00  0.00    +0.003 A 
ATOM     30  C   UNL     1      -0.564   4.388  24.838  0.00  0.00    +0.037 A 
ENDBRANCH  24  25
ENDBRANCH  23  24
ENDBRANCH  22  23
ENDBRANCH  18  19
ENDBRANCH  17  18
TORSDOF 10
ENDMDL
MODEL 5
REMARK VINA RESULT:     -10.9      1.525      4.799
REMARK  Name = 
REMARK  10 active torsions:
REMARK  status: ('A' for Active; 'I' for Inactive)
REMARK    1  A    between atoms: O_2  and  C_3
REMARK    2  A    between atoms: C_6  and  C_7
REMARK    3  A    between atoms: C_7  and  N_8
REMARK    4  A    between atoms: C_9  and  C_11
REMARK    5  A    between atoms: C_11  and  C_12
REMARK    6  A    between atoms: C_17  and  C_18
REMARK    7  A    between atoms: C_18  and  C_19
REMARK    8  A    between atoms: C_22  and  C_23
REMARK    9  A    between atoms: C_23  and  O_24
REMARK   10  A    between atoms: O_24  and  C_25
REMARK                            x       y       z     vdW  Elec       q    Type
REMARK                         _______ _______ _______ _____ _____    ______ ____
ROOT
ATOM     12  C   UNL     1      -1.872  -1.437  24.986  0.00  0.00    +0.012 C 
ATOM     13  C   UNL     1      -1.385  -1.903  24.509  0.00  0.00    +0.019 C 
ATOM     14  C   UNL     1      -1.687  -2.578  24.146  0.00  0.00    +0.089 C 
ATOM     15  N   UNL     1      -2.477  -2.790  24.259  0.00  0.00    -0.218 NA
ATOM     16  C   UNL     1      -2.964  -2.326  24.736  0.00  0.00    +0.089 C 
ATOM     17  C   UNL     1      -2.662  -1.649  25.100  0.00  0.00    +0.024 C 
ENDROOT
BRANCH  12  11
ATOM     11  C   UNL     1      -1.570  -0.762  25.349  0.00  0.00    +0.087 C 
BRANCH  11   9
ATOM      8  N   UNL     1      -0.569   0.249  25.212  0.00  0.00    -0.201 NA
ATOM      9  C   UNL     1      -0.782  -0.547  25.232  0.00  0.00    +0.242 C 
ATOM     10  O   UNL     1      -0.206  -1.129  25.134  0.00  0.00    -0.273 OA
BRANCH   8   7
ATOM      7  C   UNL     1      -1.146   0.832  25.310  0.00  0.00    +0.141 C 
BRANCH   7   6
ATOM      3  C   UNL     1      -0.549   3.217  25.030  0.00  0.00    +0.139 A 
ATOM      4  C   UNL     1      -0.628   2.732  24.369  0.00  0.00    +0.037 A 
ATOM      5  C   UNL     1      -0.827   1.937  24.461  0.00  0.00    +0.001 A 
ATOM      6  C   UNL     1      -0.947   1.628  25.217  0.00  0.00    -0.000 A 
ATOM     32  C   UNL     1      -0.868   2.113  25.878  0.00  0.00    +0.001 A 
ATOM     33  C   UNL     1      -0.669   2.909  25.785  0.00  0.00    +0.037 A 
BRANCH   3   2
ATOM      1  C   UNL     1      -0.922   4.597  25.046  0.00  0.00    +0.252 C 
ATOM      2  O   UNL     1      -0.350   4.013  24.937  0.00  0.00    -0.471 OA
ENDBRANCH   3   2
ENDBRANCH   7   6
ENDBRANCH   8   7
ENDBRANCH  11   9
ENDBRANCH  12  11
BRANCH  17  18
ATOM     18  C   UNL     1      -3.148  -1.185  25.577  0.00  0.00    +0.051 C 
BRANCH  18  19
ATOM     19  C   UNL     1      -3.768  -0.757  25.240  0.00  0.00    +0.100 A 
ATOM     20  N   UNL     1      -4.260  -1.014  24.630  0.00  0.00    -0.082 NA
ATOM     21  O   UNL     1      -4.801  -0.413  24.468  0.00  0.00    -0.354 OA
ATOM     22  C   UNL     1      -4.643   0.216  24.977  0.00  0.00    +0.198 A 
ATOM     31  C   UNL     1      -4.005   0.004  25.455  0.00  0.00    +0.057 A 
BRANCH  22  23
ATOM     23  C   UNL     1      -5.052   0.933  25.005  0.00  0.00    +0.272 C 
BRANCH  23  24
ATOM     24  O   UNL     1      -4.796   1.572  24.549  0.00  0.00    -0.467 OA
BRANCH  24  25
ATOM     25  C   UNL     1      -4.895   2.342  24.827  0.00  0.00    +0.139 A 
ATOM     26  C   UNL     1      -5.547   2.529  25.299  0.00  0.00    +0.037 A 
ATOM     27  C   UNL     1      -5.646   3.299  25.577  0.00  0.00    +0.003 A 
ATOM     28  C   UNL     1      -5.095   3.882  25.383  0.00  0.00    +0.000 A 
ATOM     29  C   UNL     1      -4.445   3.695  24.912  0.00  0.00    +0.003 A 
ATOM     30  C   UNL     1      -4.345   2.925  24.634  0.00  0.00    +0.037 A 
ENDBRANCH  24  25
ENDBRANCH  23  24
ENDBRANCH  22  23
ENDBRANCH  18  19
ENDBRANCH  17  18
TORSDOF 10
ENDMDL
MODEL 6
REMARK VINA RESULT:     -10.3      1.121      4.285
REMARK  Name = 
REMARK  10 active torsions:
REMARK  status: ('A' for Active; 'I' for Inactive)
REMARK    1  A    between atoms: O_2  and  C_3
REMARK    2  A    between atoms: C_6  and  C_7
REMARK    3  A    between atoms: C_7  and  N_8
REMARK    4  A    between atoms: C_9  and  C_11
REMARK    5  A    between atoms: C_11  and  C_12
REMARK    6  A    between atoms: C_17  and  C_18
REMARK    7  A    between atoms: C_18  and  C_19
REMARK    8  A    between atoms: C_22  and  C_23
REMARK    9  A    between atoms: C_23  and  O_24
REMARK   10  A    between atoms: O_24  and  C_25
REMARK                            x       y       z     vdW  Elec       q    Type
REMARK                         _______ _______ _______ _____ _____    ______ ____
ROOT
ATOM     12  C   UNL     1      -0.227   0.818  24.641  0.00  0.00    +0.012 C 
ATOM     13  C   UNL     1       0.202   0.629  23.962  0.00  0.00    +0.019 C 
ATOM     14  C   UNL     1       0.678   1.198  23.603  0.00  0.00    +0.089 C 
ATOM     15  N   UNL     1       0.726   1.958  23.922  0.00  0.00    -0.218 NA
ATOM     16  C   UNL     1       0.297   2.147  24.600  0.00  0.00    +0.089 C 
ATOM     17  C   UNL     1      -0.179   1.578  24.961  0.00  0.00    +0.024 C 
ENDROOT
BRANCH  12  11
ATOM     11  C   UNL     1      -0.703   0.249  25.001  0.00  0.00    +0.087 C 
BRANCH  11   9
ATOM      8  N   UNL     1      -1.271  -1.039  24.754  0.00  0.00    -0.201 NA
ATOM      9  C   UNL     1      -0.611  -0.548  24.808  0.00  0.00    +0.242 C 
ATOM     10  O   UNL     1       0.142  -0.854  24.668  0.00  0.00    -0.273 OA
BRANCH   8   7
ATOM      7  C   UNL     1      -2.025  -0.733  24.894  0.00  0.00    +0.141 C 
BRANCH   7   6
ATOM      3  C   UNL     1      -4.027  -2.012  24.202  0.00  0.00    +0.139 A 
ATOM      4  C   UNL     1      -3.958  -1.215  24.003  0.00  0.00    +0.037 A 
ATOM      5  C   UNL     1      -3.291  -0.788  24.233  0.00  0.00    +0.001 A 
ATOM      6  C   UNL     1      -2.692  -1.160  24.664  0.00  0.00    -0.000 A 
ATOM     32  C   UNL     1      -2.761  -1.956  24.863  0.00  0.00    +0.001 A 
ATOM     33  C   UNL     1      -3.429  -2.383  24.632  0.00  0.00    +0.037 A 
BRANCH   3   2
ATOM      1  C   UNL     1      -4.622  -3.060  23.433  0.00  0.00    +0.252 C 
ATOM      2  O   UNL     1      -4.695  -2.438  23.971  0.00  0.00    -0.471 OA
ENDBRANCH   3   2
ENDBRANCH   7   6
ENDBRANCH   8   7
ENDBRANCH  11   9
ENDBRANCH  12  11
BRANCH  17  18
ATOM     18  C   UNL     1      -0.608   1.768  25.639  0.00  0.00    +0.051 C 
BRANCH  18  19
ATOM     19  C   UNL     1      -1.104   2.427  25.642  0.00  0.00    +0.100 A 
ATOM     20  N   UNL     1      -0.866   3.212  25.725  0.00  0.00    -0.082 NA
ATOM     21  O   UNL     1      -1.540   3.687  25.698  0.00  0.00    -0.354 OA
ATOM     22  C   UNL     1      -2.194   3.195  25.597  0.00  0.00    +0.198 A 
ATOM     31  C   UNL     1      -1.926   2.416  25.563  0.00  0.00    +0.057 A 
BRANCH  22  23
ATOM     23  C   UNL     1      -2.981   3.440  25.541  0.00  0.00    +0.272 C 
BRANCH  23  24
ATOM     24  O   UNL     1      -3.463   3.146  24.939  0.00  0.00    -0.467 OA
BRANCH  24  25
ATOM     25  C   UNL     1      -4.269   3.035  25.073  0.00  0.00    +0.139 A 
ATOM     26  C   UNL     1      -4.650   2.371  24.766  0.00  0.00    +0.037 A 
ATOM     27  C   UNL     1      -5.456   2.260  24.901  0.00  0.00    +0.003 A 
ATOM     28  C   UNL     1      -5.882   2.813  25.342  0.00  0.00    +0.000 A 
ATOM     29  C   UNL     1      -5.500   3.477  25.648  0.00  0.00    +0.003 A 
ATOM     30  C   UNL     1      -4.693   3.588  25.514  0.00  0.00    +0.037 A 
ENDBRANCH  24  25
ENDBRANCH  23  24
ENDBRANCH  22  23
ENDBRANCH  18  19
ENDBRANCH  17  18
TORSDOF 10
ENDMDL
MODEL 7
REMARK VINA RESULT:      -7.9     14.361     16.091
REMARK  Name = 
REMARK  10 active torsions:
REMARK  status: ('A' for Active; 'I' for Inactive)
REMARK    1  A    between atoms: O_2  and  C_3
REMARK    2  A    between atoms: C_6  and  C_7
REMARK    3  A    between atoms: C_7  and  N_8
REMARK    4  A    between atoms: C_9  and  C_11
REMARK    5  A    between atoms: C_11  and  C_12
REMARK    6  A    between atoms: C_17  and  C_18
REMARK    7  A    between atoms: C_18  and  C_19
REMARK    8  A    between atoms: C_22  and  C_23
REMARK    9  A    between atoms: C_23  and  O_24
REMARK   10  A    between atoms: O_24  and  C_25
REMARK                            x       y       z     vdW  Elec       q    Type
REMARK                         _______ _______ _______ _____ _____    ______ ____
ROOT
ATOM     12  C   UNL     1      -2.275 -10.614  14.946  0.00  0.00    +0.012 C 
ATOM     13  C   UNL     1      -1.480 -10.584  15.165  0.00  0.00    +0.019 C 
ATOM     14  C   UNL     1      -1.268 -10.653  15.959  0.00  0.00    +0.089 C 
ATOM     15  N   UNL     1      -1.851 -10.751  16.535  0.00  0.00    -0.218 NA
ATOM     16  C   UNL     1      -2.645 -10.781  16.316  0.00  0.00    +0.089 C 
ATOM     17  C   UNL     1      -2.858 -10.712  15.522  0.00  0.00    +0.024 C 
ENDROOT
BRANCH  12  11
ATOM     11  C   UNL     1      -2.487 -10.545  14.152  0.00  0.00    +0.087 C 
BRANCH  11   9
ATOM      8  N   UNL     1      -2.162 -10.157  12.816  0.00  0.00    -0.201 NA
ATOM      9  C   UNL     1      -1.974 -10.180  13.618  0.00  0.00    +0.242 C 
ATOM     10  O   UNL     1      -1.274  -9.837  13.887  0.00  0.00    -0.273 OA
BRANCH   8   7
ATOM      7  C   UNL     1      -2.863 -10.500  12.546  0.00  0.00    +0.141 C 
BRANCH   7   6
ATOM      3  C   UNL     1      -3.748  -9.907  10.313  0.00  0.00    +0.139 A 
ATOM      4  C   UNL     1      -2.935  -9.909  10.447  0.00  0.00    +0.037 A 
ATOM      5  C   UNL     1      -2.639 -10.107  11.191  0.00  0.00    +0.001 A 
ATOM      6  C   UNL     1      -3.159 -10.302  11.802  0.00  0.00    -0.000 A 
ATOM     32  C   UNL     1      -3.972 -10.300  11.668  0.00  0.00    +0.001 A 
ATOM     33  C   UNL     1      -4.267 -10.102  10.923  0.00  0.00    +0.037 A 
BRANCH   3   2
ATOM      1  C   UNL     1      -4.052  -8.921   9.323  0.00  0.00    +0.252 C 
ATOM      2  O   UNL     1      -4.043  -9.709   9.568  0.00  0.00    -0.471 OA
ENDBRANCH   3   2
ENDBRANCH   7   6
ENDBRANCH   8   7
ENDBRANCH  11   9
ENDBRANCH  12  11
BRANCH  17  18
ATOM     18  C   UNL     1      -3.652 -10.742  15.303  0.00  0.00    +0.051 C 
BRANCH  18  19
ATOM     19  C   UNL     1      -4.236 -10.501  15.834  0.00  0.00    +0.100 A 
ATOM     20  N   UNL     1      -4.118 -10.298  16.625  0.00  0.00    -0.082 NA
ATOM     21  O   UNL     1      -4.848 -10.093  16.947  0.00  0.00    -0.354 OA
ATOM     22  C   UNL     1      -5.418 -10.168  16.356  0.00  0.00    +0.198 A 
ATOM     31  C   UNL     1      -5.040 -10.421  15.668  0.00  0.00    +0.057 A 
BRANCH  22  23
ATOM     23  C   UNL     1      -6.226 -10.018  16.438  0.00  0.00    +0.272 C 
BRANCH  23  24
ATOM     24  O   UNL     1      -6.521  -9.727  17.152  0.00  0.00    -0.467 OA
BRANCH  24  25
ATOM     25  C   UNL     1      -7.333  -9.628  17.252  0.00  0.00    +0.139 A 
ATOM     26  C   UNL     1      -7.732 -10.056  17.835  0.00  0.00    +0.037 A 
ATOM     27  C   UNL     1      -8.545  -9.956  17.935  0.00  0.00    +0.003 A 
ATOM     28  C   UNL     1      -8.959  -9.430  17.453  0.00  0.00    +0.000 A 
ATOM     29  C   UNL     1      -8.560  -9.003  16.871  0.00  0.00    +0.003 A 
ATOM     30  C   UNL     1      -7.747  -9.102  16.771  0.00  0.00    +0.037 A 
ENDBRANCH  24  25
ENDBRANCH  23  24
ENDBRANCH  22  23
ENDBRANCH  18  19
ENDBRANCH  17  18
TORSDOF 10
ENDMDL
MODEL 8
REMARK VINA RESULT:      -7.8     14.252     16.125
REMARK  Name = 
REMARK  10 active torsions:
REMARK  status: ('A' for Active; 'I' for Inactive)
REMARK    1  A    between atoms: O_2  and  C_3
REMARK    2  A    between atoms: C_6  and  C_7
REMARK    3  A    between atoms: C_7  and  N_8
REMARK    4  A    between atoms: C_9  and  C_11
REMARK    5  A    between atoms: C_11  and  C_12
REMARK    6  A    between atoms: C_17  and  C_18
REMARK    7  A    between atoms: C_18  and  C_19
REMARK    8  A    between atoms: C_22  and  C_23
REMARK    9  A    between atoms: C_23  and  O_24
REMARK   10  A    between atoms: O_24  and  C_25
REMARK                            x       y       z     vdW  Elec       q    Type
REMARK                         _______ _______ _______ _____ _____    ______ ____
ROOT
ATOM     12  C   UNL     1      -2.667 -10.622  15.473  0.00  0.00    +0.012 C 
ATOM     13  C   UNL     1      -2.076 -10.523  16.041  0.00  0.00    +0.019 C 
ATOM     14  C   UNL     1      -1.285 -10.484  15.811  0.00  0.00    +0.089 C 
ATOM     15  N   UNL     1      -1.084 -10.544  15.013  0.00  0.00    -0.218 NA
ATOM     16  C   UNL     1      -1.673 -10.643  14.445  0.00  0.00    +0.089 C 
ATOM     17  C   UNL     1      -2.465 -10.682  14.674  0.00  0.00    +0.024 C 
ENDROOT
BRANCH  12  11
ATOM     11  C   UNL     1      -3.458 -10.661  15.702  0.00  0.00    +0.087 C 
BRANCH  11   9
ATOM      8  N   UNL     1      -4.437 -10.532  16.735  0.00  0.00    -0.201 NA
ATOM      9  C   UNL     1      -3.655 -10.657  16.503  0.00  0.00    +0.242 C 
ATOM     10  O   UNL     1      -3.072 -10.779  17.073  0.00  0.00    -0.273 OA
BRANCH   8   7
ATOM      7  C   UNL     1      -5.022 -10.410  16.165  0.00  0.00    +0.141 C 
BRANCH   7   6
ATOM      3  C   UNL     1      -7.340  -9.903  16.864  0.00  0.00    +0.139 A 
ATOM      4  C   UNL     1      -6.987 -10.612  17.091  0.00  0.00    +0.037 A 
ATOM      5  C   UNL     1      -6.214 -10.781  16.858  0.00  0.00    +0.001 A 
ATOM      6  C   UNL     1      -5.794 -10.240  16.398  0.00  0.00    -0.000 A 
ATOM     32  C   UNL     1      -6.147  -9.531  16.170  0.00  0.00    +0.001 A 
ATOM     33  C   UNL     1      -6.921  -9.361  16.403  0.00  0.00    +0.037 A 
BRANCH   3   2
ATOM      1  C   UNL     1      -8.279  -9.035  17.504  0.00  0.00    +0.252 C 
ATOM      2  O   UNL     1      -8.114  -9.733  17.097  0.00  0.00    -0.471 OA
ENDBRANCH   3   2
ENDBRANCH   7   6
ENDBRANCH   8   7
ENDBRANCH  11   9
ENDBRANCH  12  11
BRANCH  17  18
ATOM     18  C   UNL     1      -3.055 -10.781  14.107  0.00  0.00    +0.051 C 
BRANCH  18  19
ATOM     19  C   UNL     1      -2.879 -10.677  13.307  0.00  0.00    +0.100 A 
ATOM     20  N   UNL     1      -2.138 -10.771  12.957  0.00  0.00    -0.082 NA
ATOM     21  O   UNL     1      -2.215 -10.613  12.152  0.00  0.00    -0.354 OA
ATOM     22  C   UNL     1      -3.004 -10.423  12.003  0.00  0.00    +0.198 A 
ATOM     31  C   UNL     1      -3.415 -10.462  12.717  0.00  0.00    +0.057 A 
BRANCH  22  23
ATOM     23  C   UNL     1      -3.326 -10.227  11.269  0.00  0.00    +0.272 C 
BRANCH  23  24
ATOM     24  O   UNL     1      -3.583  -9.456  11.123  0.00  0.00    -0.467 OA
BRANCH  24  25
ATOM     25  C   UNL     1      -3.944  -9.271  10.405  0.00  0.00    +0.139 A 
ATOM     26  C   UNL     1      -3.781  -9.723   9.733  0.00  0.00    +0.037 A 
ATOM     27  C   UNL     1      -4.141  -9.538   9.015  0.00  0.00    +0.003 A 
ATOM     28  C   UNL     1      -4.665  -8.902   8.967  0.00  0.00    +0.000 A 
ATOM     29  C   UNL     1      -4.827  -8.451   9.639  0.00  0.00    +0.003 A 
ATOM     30  C   UNL     1      -4.467  -8.636  10.357  0.00  0.00    +0.037 A 
ENDBRANCH  24  25
ENDBRANCH  23  24
ENDBRANCH  22  23
ENDBRANCH  18  19
ENDBRANCH  17  18
TORSDOF 10
ENDMDL
