MODEL 1
REMARK VINA RESULT:     -10.8      0.000      0.000
REMARK  Name = 
REMARK  6 active torsions:
REMARK  status: ('A' for Active; 'I' for Inactive)
REMARK    1  A    between atoms: C_2  and  C_5
REMARK    2  A    between atoms: C_5  and  C_6
REMARK    3  A    between atoms: N_8  and  C_9
REMARK    4  A    between atoms: C_9  and  C_10
REMARK    5  A    between atoms: C_13  and  N_14
REMARK    6  A    between atoms: N_14  and  C_15
REMARK                            x       y       z     vdW  Elec       q    Type
REMARK                         _______ _______ _______ _____ _____    ______ ____
ROOT
ATOM     10  C   UNL     1      -3.275   1.436  24.555  0.00  0.00    +0.169 C 
ATOM     11  O   UNL     1      -2.691   0.904  24.314  0.00  0.00    -0.350 OA
ATOM     12  C   UNL     1      -3.013   0.144  24.336  0.00  0.00    +0.162 C 
ATOM     13  C   UNL     1      -3.796   0.207  24.590  0.00  0.00    +0.135 C 
ATOM     21  C   UNL     1      -3.957   1.005  24.725  0.00  0.00    +0.199 C 
ATOM     22  O   UNL     1      -4.676   1.317  24.984  0.00  0.00    -0.219 OA
ENDROOT
BRANCH  10   9
ATOM      9  C   UNL     1      -3.190   2.254  24.614  0.00  0.00    +0.147 C 
BRANCH   9   8
ATOM      6  C   UNL     1      -2.403   3.385  24.991  0.00  0.00    +0.241 C 
ATOM      7  O   UNL     1      -2.899   3.877  24.552  0.00  0.00    -0.273 OA
ATOM      8  N   UNL     1      -2.548   2.573  25.022  0.00  0.00    -0.203 NA
BRANCH   6   5
ATOM      5  C   UNL     1      -1.761   3.705  25.399  0.00  0.00    +0.087 C 
BRANCH   5   2
ATOM      1  C   UNL     1      -1.206   5.211  25.013  0.00  0.00    +0.000 C 
ATOM      2  C   UNL     1      -1.484   4.458  25.206  0.00  0.00    +0.009 C 
ATOM      3  C   UNL     1      -2.107   4.796  25.627  0.00  0.00    +0.000 C 
ATOM      4  C   UNL     1      -0.860   4.120  24.785  0.00  0.00    +0.000 C 
ENDBRANCH   5   2
ENDBRANCH   6   5
ENDBRANCH   9   8
ENDBRANCH  10   9
BRANCH  13  14
ATOM     14  N   UNL     1      -4.324  -0.418  24.691  0.00  0.00    -0.216 NA
BRANCH  14  15
ATOM     15  C   UNL     1      -4.060  -1.197  24.623  0.00  0.00    +0.073 C 
ATOM     16  C   UNL     1      -4.200  -1.621  23.929  0.00  0.00    +0.017 C 
ATOM     17  C   UNL     1      -3.936  -2.400  23.862  0.00  0.00    +0.001 C 
ATOM     18  C   UNL     1      -3.533  -2.755  24.487  0.00  0.00    +0.000 C 
ATOM     19  C   UNL     1      -3.392  -2.331  25.181  0.00  0.00    +0.001 C 
ATOM     20  C   UNL     1      -3.656  -1.551  25.249  0.00  0.00    +0.017 C 
ENDBRANCH  14  15
ENDBRANCH  13  14
TORSDOF 6
ENDMDL
MODEL 2
REMARK VINA RESULT:     -10.4      1.133      5.497
REMARK  Name = 
REMARK  6 active torsions:
REMARK  status: ('A' for Active; 'I' for Inactive)
REMARK    1  A    between atoms: C_2  and  C_5
REMARK    2  A    between atoms: C_5  and  C_6
REMARK    3  A    between atoms: N_8  and  C_9
REMARK    4  A    between atoms: C_9  and  C_10
REMARK    5  A    between atoms: C_13  and  N_14
REMARK    6  A    between atoms: N_14  and  C_15
REMARK                            x       y       z     vdW  Elec       q    Type
REMARK                         _______ _______ _______ _____ _____    ______ ____
ROOT
ATOM     10  C   UNL     1      -2.103   1.085  24.943  0.00  0.00    +0.169 C 
ATOM     11  O   UNL     1      -2.641   1.658  24.689  0.00  0.00    -0.350 OA
ATOM     12  C   UNL     1      -2.377   2.392  24.960  0.00  0.00    +0.162 C 
ATOM     13  C   UNL     1      -1.677   2.272  25.380  0.00  0.00    +0.135 C 
ATOM     21  C   UNL     1      -1.509   1.465  25.370  0.00  0.00    +0.199 C 
ATOM     22  O   UNL     1      -0.858   1.100  25.725  0.00  0.00    -0.219 OA
ENDROOT
BRANCH  10   9
ATOM      9  C   UNL     1      -2.153   0.275  24.796  0.00  0.00    +0.147 C 
BRANCH   9   8
ATOM      6  C   UNL     1      -2.936  -0.917  24.702  0.00  0.00    +0.241 C 
ATOM      7  O   UNL     1      -2.289  -1.316  24.379  0.00  0.00    -0.273 OA
ATOM      8  N   UNL     1      -2.868  -0.121  24.910  0.00  0.00    -0.203 NA
BRANCH   6   5
ATOM      5  C   UNL     1      -3.650  -1.314  24.815  0.00  0.00    +0.087 C 
BRANCH   5   2
ATOM      1  C   UNL     1      -3.868  -2.820  24.178  0.00  0.00    +0.000 C 
ATOM      2  C   UNL     1      -3.759  -2.067  24.497  0.00  0.00    +0.009 C 
ATOM      3  C   UNL     1      -3.377  -2.399  25.149  0.00  0.00    +0.000 C 
ATOM      4  C   UNL     1      -4.140  -1.736  23.844  0.00  0.00    +0.000 C 
ENDBRANCH   5   2
ENDBRANCH   6   5
ENDBRANCH   9   8
ENDBRANCH  10   9
BRANCH  13  14
ATOM     14  N   UNL     1      -1.226   2.857  25.747  0.00  0.00    -0.216 NA
BRANCH  14  15
ATOM     15  C   UNL     1      -1.272   3.639  25.487  0.00  0.00    +0.073 C 
ATOM     16  C   UNL     1      -0.696   3.938  24.976  0.00  0.00    +0.017 C 
ATOM     17  C   UNL     1      -0.742   4.719  24.716  0.00  0.00    +0.001 C 
ATOM     18  C   UNL     1      -1.363   5.201  24.964  0.00  0.00    +0.000 C 
ATOM     19  C   UNL     1      -1.939   4.902  25.474  0.00  0.00    +0.001 C 
ATOM     20  C   UNL     1      -1.893   4.120  25.736  0.00  0.00    +0.017 C 
ENDBRANCH  14  15
ENDBRANCH  13  14
TORSDOF 6
ENDMDL
MODEL 3
REMARK VINA RESULT:      -9.6      0.982      5.241
REMARK  Name = 
REMARK  6 active torsions:
REMARK  status: ('A' for Active; 'I' for Inactive)
REMARK    1  A    between atoms: C_2  and  C_5
REMARK    2  A    between atoms: C_5  and  C_6
REMARK    3  A    between atoms: N_8  and  C_9
REMARK    4  A    between atoms: C_9  and  C_10
REMARK    5  A    between atoms: C_13  and  N_14
REMARK    6  A    between atoms: N_14  and  C_15
REMARK                            x       y       z     vdW  Elec       q    Type
REMARK                         _______ _______ _______ _____ _____    ______ ____
ROOT
ATOM     10  C   UNL     1      -3.856   1.178  24.255  0.00  0.00    +0.169 C 
ATOM     11  O   UNL     1      -3.184   1.429  23.846  0.00  0.00    -0.350 OA
ATOM     12  C   UNL     1      -3.112   2.244  23.951  0.00  0.00    +0.162 C 
ATOM     13  C   UNL     1      -3.739   2.497  24.425  0.00  0.00    +0.135 C 
ATOM     21  C   UNL     1      -4.199   1.837  24.612  0.00  0.00    +0.199 C 
ATOM     22  O   UNL     1      -4.881   1.838  25.076  0.00  0.00    -0.219 OA
ENDROOT
BRANCH  10   9
ATOM      9  C   UNL     1      -4.136   0.403  24.298  0.00  0.00    +0.147 C 
BRANCH   9   8
ATOM      6  C   UNL     1      -3.909  -1.003  24.176  0.00  0.00    +0.241 C 
ATOM      7  O   UNL     1      -4.702  -1.146  24.359  0.00  0.00    -0.273 OA
ATOM      8  N   UNL     1      -3.626  -0.228  24.146  0.00  0.00    -0.203 NA
BRANCH   6   5
ATOM      5  C   UNL     1      -3.401  -1.634  24.025  0.00  0.00    +0.087 C 
BRANCH   5   2
ATOM      1  C   UNL     1      -3.646  -3.089  24.765  0.00  0.00    +0.000 C 
ATOM      2  C   UNL     1      -3.523  -2.361  24.395  0.00  0.00    +0.009 C 
ATOM      3  C   UNL     1      -2.976  -2.157  24.977  0.00  0.00    +0.000 C 
ATOM      4  C   UNL     1      -4.071  -2.566  23.812  0.00  0.00    +0.000 C 
ENDBRANCH   5   2
ENDBRANCH   6   5
ENDBRANCH   9   8
ENDBRANCH  10   9
BRANCH  13  14
ATOM     14  N   UNL     1      -3.881   3.272  24.668  0.00  0.00    -0.216 NA
BRANCH  14  15
ATOM     15  C   UNL     1      -3.281   3.708  25.028  0.00  0.00    +0.073 C 
ATOM     16  C   UNL     1      -3.230   3.739  25.851  0.00  0.00    +0.017 C 
ATOM     17  C   UNL     1      -2.630   4.175  26.211  0.00  0.00    +0.001 C 
ATOM     18  C   UNL     1      -2.081   4.581  25.750  0.00  0.00    +0.000 C 
ATOM     19  C   UNL     1      -2.131   4.550  24.927  0.00  0.00    +0.001 C 
ATOM     20  C   UNL     1      -2.731   4.114  24.566  0.00  0.00    +0.017 C 
ENDBRANCH  14  15
ENDBRANCH  13  14
TORSDOF 6
ENDMDL
