MODEL 1
REMARK VINA RESULT:      -9.0      0.000      0.000
REMARK  Name = 
REMARK  10 active torsions:
REMARK  status: ('A' for Active; 'I' for Inactive)
REMARK    1  A    between atoms: C_2  and  C_3
REMARK    2  A    between atoms: C_3  and  C_4
REMARK    3  A    between atoms: C_4  and  C_5
REMARK    4  A    between atoms: C_7  and  C_8
REMARK    5  A    between atoms: C_8  and  C_9
REMARK    6  A    between atoms: C_14  and  C_15
REMARK    7  A    between atoms: C_15  and  C_16
REMARK    8  A    between atoms: N_18  and  C_19
REMARK    9  A    between atoms: C_19  and  C_20
REMARK   10  A    between atoms: C_20  and  N_21
REMARK                            x       y       z     vdW  Elec       q    Type
REMARK                         _______ _______ _______ _____ _____    ______ ____
ROOT
ATOM      9  C   UNL     1      -4.827   1.745  24.819  0.00  0.00    +0.024 C 
ATOM     10  C   UNL     1      -5.424   1.457  25.309  0.00  0.00    +0.089 C 
ATOM     11  N   UNL     1      -5.864   1.977  25.775  0.00  0.00    -0.218 NA
ATOM     12  C   UNL     1      -5.705   2.787  25.750  0.00  0.00    +0.089 C 
ATOM     13  C   UNL     1      -5.108   3.075  25.259  0.00  0.00    +0.019 C 
ATOM     14  C   UNL     1      -4.669   2.554  24.794  0.00  0.00    +0.012 C 
ENDROOT
BRANCH   9   8
ATOM      8  C   UNL     1      -4.388   1.225  24.354  0.00  0.00    +0.051 C 
BRANCH   8   7
ATOM      5  C   UNL     1      -4.108  -0.869  24.658  0.00  0.00    +0.154 A 
ATOM      6  C   UNL     1      -4.314  -0.232  24.176  0.00  0.00    +0.054 A 
ATOM      7  C   UNL     1      -4.238   0.459  24.620  0.00  0.00    +0.100 A 
ATOM     24  N   UNL     1      -3.986   0.249  25.378  0.00  0.00    -0.082 NA
ATOM     25  O   UNL     1      -3.905  -0.572  25.401  0.00  0.00    -0.358 OA
BRANCH   5   4
ATOM      4  C   UNL     1      -4.106  -1.665  24.437  0.00  0.00    +0.067 C 
BRANCH   4   3
ATOM      3  C   UNL     1      -3.507  -2.165  24.703  0.00  0.00    +0.008 C 
BRANCH   3   2
ATOM      1  C   UNL     1      -2.756  -3.344  24.407  0.00  0.00    +0.000 C 
ATOM      2  C   UNL     1      -3.478  -2.948  24.444  0.00  0.00    +0.000 C 
ENDBRANCH   3   2
ENDBRANCH   4   3
ENDBRANCH   5   4
ENDBRANCH   8   7
ENDBRANCH   9   8
BRANCH  14  15
ATOM     15  C   UNL     1      -4.071   2.843  24.303  0.00  0.00    +0.087 C 
BRANCH  15  16
ATOM     16  C   UNL     1      -3.687   3.548  24.492  0.00  0.00    +0.241 C 
ATOM     17  O   UNL     1      -4.093   4.265  24.440  0.00  0.00    -0.273 OA
ATOM     18  N   UNL     1      -2.899   3.537  24.734  0.00  0.00    -0.204 NA
BRANCH  18  19
ATOM     19  C   UNL     1      -2.515   4.243  24.924  0.00  0.00    +0.132 C 
BRANCH  19  20
ATOM     20  C   UNL     1      -1.814   4.228  25.357  0.00  0.00    +0.096 C 
BRANCH  20  21
ATOM     21  N   UNL     1      -1.151   4.638  25.085  0.00  0.00    -0.269 NA
ATOM     22  C   UNL     1      -1.168   5.460  25.030  0.00  0.00    +0.090 C 
ATOM     23  C   UNL     1      -0.472   4.224  24.867  0.00  0.00    +0.090 C 
ENDBRANCH  20  21
ENDBRANCH  19  20
ENDBRANCH  18  19
ENDBRANCH  15  16
ENDBRANCH  14  15
TORSDOF 10
ENDMDL
MODEL 2
REMARK VINA RESULT:      -8.8      1.149      4.729
REMARK  Name = 
REMARK  10 active torsions:
REMARK  status: ('A' for Active; 'I' for Inactive)
REMARK    1  A    between atoms: C_2  and  C_3
REMARK    2  A    between atoms: C_3  and  C_4
REMARK    3  A    between atoms: C_4  and  C_5
REMARK    4  A    between atoms: C_7  and  C_8
REMARK    5  A    between atoms: C_8  and  C_9
REMARK    6  A    between atoms: C_14  and  C_15
REMARK    7  A    between atoms: C_15  and  C_16
REMARK    8  A    between atoms: N_18  and  C_19
REMARK    9  A    between atoms: C_19  and  C_20
REMARK   10  A    between atoms: C_20  and  N_21
REMARK                            x       y       z     vdW  Elec       q    Type
REMARK                         _______ _______ _______ _____ _____    ______ ____
ROOT
ATOM      9  C   UNL     1      -4.416   2.776  24.864  0.00  0.00    +0.024 C 
ATOM     10  C   UNL     1      -4.753   3.338  25.367  0.00  0.00    +0.089 C 
ATOM     11  N   UNL     1      -5.374   3.125  25.866  0.00  0.00    -0.218 NA
ATOM     12  C   UNL     1      -5.659   2.350  25.862  0.00  0.00    +0.089 C 
ATOM     13  C   UNL     1      -5.323   1.789  25.359  0.00  0.00    +0.019 C 
ATOM     14  C   UNL     1      -4.701   2.003  24.861  0.00  0.00    +0.012 C 
ENDROOT
BRANCH   9   8
ATOM      8  C   UNL     1      -3.795   2.990  24.366  0.00  0.00    +0.051 C 
BRANCH   8   7
ATOM      5  C   UNL     1      -1.942   3.755  25.099  0.00  0.00    +0.154 A 
ATOM      6  C   UNL     1      -2.401   3.134  24.808  0.00  0.00    +0.054 A 
ATOM      7  C   UNL     1      -3.159   3.424  24.661  0.00  0.00    +0.100 A 
ATOM     24  N   UNL     1      -3.169   4.225  24.860  0.00  0.00    -0.082 NA
ATOM     25  O   UNL     1      -2.417   4.430  25.131  0.00  0.00    -0.358 OA
BRANCH   5   4
ATOM      4  C   UNL     1      -1.148   3.709  25.319  0.00  0.00    +0.067 C 
BRANCH   4   3
ATOM      3  C   UNL     1      -0.888   3.094  25.802  0.00  0.00    +0.008 C 
BRANCH   3   2
ATOM      1  C   UNL     1       0.180   2.414  26.465  0.00  0.00    +0.000 C 
ATOM      2  C   UNL     1      -0.080   2.970  25.914  0.00  0.00    +0.000 C 
ENDBRANCH   3   2
ENDBRANCH   4   3
ENDBRANCH   5   4
ENDBRANCH   8   7
ENDBRANCH   9   8
BRANCH  14  15
ATOM     15  C   UNL     1      -4.364   1.441  24.357  0.00  0.00    +0.087 C 
BRANCH  15  16
ATOM     16  C   UNL     1      -4.535   0.640  24.461  0.00  0.00    +0.241 C 
ATOM     17  O   UNL     1      -5.302   0.404  24.651  0.00  0.00    -0.273 OA
ATOM     18  N   UNL     1      -3.939   0.077  24.374  0.00  0.00    -0.204 NA
BRANCH  18  19
ATOM     19  C   UNL     1      -4.110  -0.724  24.478  0.00  0.00    +0.132 C 
BRANCH  19  20
ATOM     20  C   UNL     1      -3.531  -1.292  24.330  0.00  0.00    +0.096 C 
BRANCH  20  21
ATOM     21  N   UNL     1      -3.687  -2.089  24.475  0.00  0.00    -0.269 NA
ATOM     22  C   UNL     1      -3.431  -2.439  25.176  0.00  0.00    +0.090 C 
ATOM     23  C   UNL     1      -4.101  -2.535  23.918  0.00  0.00    +0.090 C 
ENDBRANCH  20  21
ENDBRANCH  19  20
ENDBRANCH  18  19
ENDBRANCH  15  16
ENDBRANCH  14  15
TORSDOF 10
ENDMDL
MODEL 3
REMARK VINA RESULT:      -8.6      2.447      4.642
REMARK  Name = 
REMARK  10 active torsions:
REMARK  status: ('A' for Active; 'I' for Inactive)
REMARK    1  A    between atoms: C_2  and  C_3
REMARK    2  A    between atoms: C_3  and  C_4
REMARK    3  A    between atoms: C_4  and  C_5
REMARK    4  A    between atoms: C_7  and  C_8
REMARK    5  A    between atoms: C_8  and  C_9
REMARK    6  A    between atoms: C_14  and  C_15
REMARK    7  A    between atoms: C_15  and  C_16
REMARK    8  A    between atoms: N_18  and  C_19
REMARK    9  A    between atoms: C_19  and  C_20
REMARK   10  A    between atoms: C_20  and  N_21
REMARK                            x       y       z     vdW  Elec       q    Type
REMARK                         _______ _______ _______ _____ _____    ______ ____
ROOT
ATOM      9  C   UNL     1      -1.676   3.894  25.610  0.00  0.00    +0.024 C 
ATOM     10  C   UNL     1      -1.816   4.666  25.353  0.00  0.00    +0.089 C 
ATOM     11  N   UNL     1      -1.248   5.061  24.905  0.00  0.00    -0.218 NA
ATOM     12  C   UNL     1      -0.539   4.684  24.713  0.00  0.00    +0.089 C 
ATOM     13  C   UNL     1      -0.399   3.913  24.970  0.00  0.00    +0.019 C 
ATOM     14  C   UNL     1      -0.968   3.518  25.419  0.00  0.00    +0.012 C 
ENDROOT
BRANCH   9   8
ATOM      8  C   UNL     1      -2.245   3.500  26.058  0.00  0.00    +0.051 C 
BRANCH   8   7
ATOM      5  C   UNL     1      -4.285   3.444  25.432  0.00  0.00    +0.154 A 
ATOM      6  C   UNL     1      -3.524   3.124  25.441  0.00  0.00    +0.054 A 
ATOM      7  C   UNL     1      -3.047   3.614  25.902  0.00  0.00    +0.100 A 
ATOM     24  N   UNL     1      -3.512   4.237  26.178  0.00  0.00    -0.082 NA
ATOM     25  O   UNL     1      -4.277   4.133  25.888  0.00  0.00    -0.358 OA
BRANCH   5   4
ATOM      4  C   UNL     1      -4.939   3.132  25.038  0.00  0.00    +0.067 C 
BRANCH   4   3
ATOM      3  C   UNL     1      -5.324   2.468  25.339  0.00  0.00    +0.008 C 
BRANCH   3   2
ATOM      1  C   UNL     1      -6.468   1.628  25.170  0.00  0.00    +0.000 C 
ATOM      2  C   UNL     1      -5.815   2.018  24.851  0.00  0.00    +0.000 C 
ENDBRANCH   3   2
ENDBRANCH   4   3
ENDBRANCH   5   4
ENDBRANCH   8   7
ENDBRANCH   9   8
BRANCH  14  15
ATOM     15  C   UNL     1      -0.828   2.746  25.676  0.00  0.00    +0.087 C 
BRANCH  15  16
ATOM     16  C   UNL     1      -0.283   2.271  25.277  0.00  0.00    +0.241 C 
ATOM     17  O   UNL     1       0.524   2.429  25.339  0.00  0.00    -0.273 OA
ATOM     18  N   UNL     1      -0.545   1.640  24.817  0.00  0.00    -0.204 NA
BRANCH  18  19
ATOM     19  C   UNL     1      -0.001   1.165  24.418  0.00  0.00    +0.132 C 
BRANCH  19  20
ATOM     20  C   UNL     1      -0.257   0.652  23.826  0.00  0.00    +0.096 C 
BRANCH  20  21
ATOM     21  N   UNL     1       0.172  -0.033  23.658  0.00  0.00    -0.269 NA
ATOM     22  C   UNL     1       0.794  -0.009  23.118  0.00  0.00    +0.090 C 
ATOM     23  C   UNL     1      -0.021  -0.742  24.033  0.00  0.00    +0.090 C 
ENDBRANCH  20  21
ENDBRANCH  19  20
ENDBRANCH  18  19
ENDBRANCH  15  16
ENDBRANCH  14  15
TORSDOF 10
ENDMDL
MODEL 4
REMARK VINA RESULT:      -8.5      2.768      6.217
REMARK  Name = 
REMARK  10 active torsions:
REMARK  status: ('A' for Active; 'I' for Inactive)
REMARK    1  A    between atoms: C_2  and  C_3
REMARK    2  A    between atoms: C_3  and  C_4
REMARK    3  A    between atoms: C_4  and  C_5
REMARK    4  A    between atoms: C_7  and  C_8
REMARK    5  A    between atoms: C_8  and  C_9
REMARK    6  A    between atoms: C_14  and  C_15
REMARK    7  A    between atoms: C_15  and  C_16
REMARK    8  A    between atoms: N_18  and  C_19
REMARK    9  A    between atoms: C_19  and  C_20
REMARK   10  A    between atoms: C_20  and  N_21
REMARK                            x       y       z     vdW  Elec       q    Type
REMARK                         _______ _______ _______ _____ _____    ______ ____
ROOT
ATOM      9  C   UNL     1      -0.496   0.612  24.871  0.00  0.00    +0.024 C 
ATOM     10  C   UNL     1      -0.092   1.078  24.322  0.00  0.00    +0.089 C 
ATOM     11  N   UNL     1       0.274   0.727  23.672  0.00  0.00    -0.218 NA
ATOM     12  C   UNL     1       0.238  -0.092  23.571  0.00  0.00    +0.089 C 
ATOM     13  C   UNL     1      -0.166  -0.558  24.119  0.00  0.00    +0.019 C 
ATOM     14  C   UNL     1      -0.532  -0.205  24.769  0.00  0.00    +0.012 C 
ENDROOT
BRANCH   9   8
ATOM      8  C   UNL     1      -0.862   0.964  25.520  0.00  0.00    +0.051 C 
BRANCH   8   7
ATOM      5  C   UNL     1      -1.060   3.082  25.697  0.00  0.00    +0.154 A 
ATOM      6  C   UNL     1      -1.365   2.344  25.489  0.00  0.00    +0.054 A 
ATOM      7  C   UNL     1      -0.789   1.776  25.646  0.00  0.00    +0.100 A 
ATOM     24  N   UNL     1      -0.126   2.163  25.951  0.00  0.00    -0.082 NA
ATOM     25  O   UNL     1      -0.293   2.970  25.982  0.00  0.00    -0.358 OA
BRANCH   5   4
ATOM      4  C   UNL     1      -1.452   3.806  25.631  0.00  0.00    +0.067 C 
BRANCH   4   3
ATOM      3  C   UNL     1      -1.103   4.427  25.217  0.00  0.00    +0.008 C 
BRANCH   3   2
ATOM      1  C   UNL     1      -1.153   5.767  24.722  0.00  0.00    +0.000 C 
ATOM      2  C   UNL     1      -1.491   5.153  25.157  0.00  0.00    +0.000 C 
ENDBRANCH   3   2
ENDBRANCH   4   3
ENDBRANCH   5   4
ENDBRANCH   8   7
ENDBRANCH   9   8
BRANCH  14  15
ATOM     15  C   UNL     1      -0.936  -0.672  25.318  0.00  0.00    +0.087 C 
BRANCH  15  16
ATOM     16  C   UNL     1      -1.339  -1.347  25.068  0.00  0.00    +0.241 C 
ATOM     17  O   UNL     1      -0.918  -2.025  24.861  0.00  0.00    -0.273 OA
ATOM     18  N   UNL     1      -2.162  -1.343  25.025  0.00  0.00    -0.204 NA
BRANCH  18  19
ATOM     19  C   UNL     1      -2.566  -2.018  24.775  0.00  0.00    +0.132 C 
BRANCH  19  20
ATOM     20  C   UNL     1      -3.378  -2.085  24.902  0.00  0.00    +0.096 C 
BRANCH  20  21
ATOM     21  N   UNL     1      -3.869  -2.359  24.298  0.00  0.00    -0.269 NA
ATOM     22  C   UNL     1      -3.935  -3.168  24.155  0.00  0.00    +0.090 C 
ATOM     23  C   UNL     1      -4.295  -1.822  23.838  0.00  0.00    +0.090 C 
ENDBRANCH  20  21
ENDBRANCH  19  20
ENDBRANCH  18  19
ENDBRANCH  15  16
ENDBRANCH  14  15
TORSDOF 10
ENDMDL
MODEL 5
REMARK VINA RESULT:      -8.4      2.141      3.470
REMARK  Name = 
REMARK  10 active torsions:
REMARK  status: ('A' for Active; 'I' for Inactive)
REMARK    1  A    between atoms: C_2  and  C_3
REMARK    2  A    between atoms: C_3  and  C_4
REMARK    3  A    between atoms: C_4  and  C_5
REMARK    4  A    between atoms: C_7  and  C_8
REMARK    5  A    between atoms: C_8  and  C_9
REMARK    6  A    between atoms: C_14  and  C_15
REMARK    7  A    between atoms: C_15  and  C_16
REMARK    8  A    between atoms: N_18  and  C_19
REMARK    9  A    between atoms: C_19  and  C_20
REMARK   10  A    between atoms: C_20  and  N_21
REMARK                            x       y       z     vdW  Elec       q    Type
REMARK                         _______ _______ _______ _____ _____    ______ ____
ROOT
ATOM      9  C   UNL     1      -0.910   1.675  24.804  0.00  0.00    +0.024 C 
ATOM     10  C   UNL     1      -0.280   1.520  25.314  0.00  0.00    +0.089 C 
ATOM     11  N   UNL     1      -0.098   2.051  25.919  0.00  0.00    -0.218 NA
ATOM     12  C   UNL     1      -0.548   2.736  26.015  0.00  0.00    +0.089 C 
ATOM     13  C   UNL     1      -1.178   2.891  25.505  0.00  0.00    +0.019 C 
ATOM     14  C   UNL     1      -1.359   2.360  24.900  0.00  0.00    +0.012 C 
ENDROOT
BRANCH   9   8
ATOM      8  C   UNL     1      -1.091   1.144  24.200  0.00  0.00    +0.051 C 
BRANCH   8   7
ATOM      5  C   UNL     1      -1.203  -0.949  24.604  0.00  0.00    +0.154 A 
ATOM      6  C   UNL     1      -1.552  -0.202  24.568  0.00  0.00    +0.054 A 
ATOM      7  C   UNL     1      -0.979   0.335  24.313  0.00  0.00    +0.100 A 
ATOM     24  N   UNL     1      -0.276  -0.080  24.192  0.00  0.00    -0.082 NA
ATOM     25  O   UNL     1      -0.414  -0.874  24.372  0.00  0.00    -0.358 OA
BRANCH   5   4
ATOM      4  C   UNL     1      -1.577  -1.648  24.833  0.00  0.00    +0.067 C 
BRANCH   4   3
ATOM      3  C   UNL     1      -2.337  -1.817  24.563  0.00  0.00    +0.008 C 
BRANCH   3   2
ATOM      1  C   UNL     1      -3.481  -2.674  24.563  0.00  0.00    +0.000 C 
ATOM      2  C   UNL     1      -2.685  -2.545  24.736  0.00  0.00    +0.000 C 
ENDBRANCH   3   2
ENDBRANCH   4   3
ENDBRANCH   5   4
ENDBRANCH   8   7
ENDBRANCH   9   8
BRANCH  14  15
ATOM     15  C   UNL     1      -1.990   2.514  24.390  0.00  0.00    +0.087 C 
BRANCH  15  16
ATOM     16  C   UNL     1      -2.608   3.003  24.635  0.00  0.00    +0.241 C 
ATOM     17  O   UNL     1      -2.469   3.805  24.770  0.00  0.00    -0.273 OA
ATOM     18  N   UNL     1      -3.362   2.691  24.746  0.00  0.00    -0.204 NA
BRANCH  18  19
ATOM     19  C   UNL     1      -3.980   3.180  24.991  0.00  0.00    +0.132 C 
BRANCH  19  20
ATOM     20  C   UNL     1      -4.762   2.937  24.895  0.00  0.00    +0.096 C 
BRANCH  20  21
ATOM     21  N   UNL     1      -5.332   3.146  25.454  0.00  0.00    -0.269 NA
ATOM     22  C   UNL     1      -5.549   3.936  25.548  0.00  0.00    +0.090 C 
ATOM     23  C   UNL     1      -5.684   2.563  25.920  0.00  0.00    +0.090 C 
ENDBRANCH  20  21
ENDBRANCH  19  20
ENDBRANCH  18  19
ENDBRANCH  15  16
ENDBRANCH  14  15
TORSDOF 10
ENDMDL
MODEL 6
REMARK VINA RESULT:      -8.4      2.672      3.665
REMARK  Name = 
REMARK  10 active torsions:
REMARK  status: ('A' for Active; 'I' for Inactive)
REMARK    1  A    between atoms: C_2  and  C_3
REMARK    2  A    between atoms: C_3  and  C_4
REMARK    3  A    between atoms: C_4  and  C_5
REMARK    4  A    between atoms: C_7  and  C_8
REMARK    5  A    between atoms: C_8  and  C_9
REMARK    6  A    between atoms: C_14  and  C_15
REMARK    7  A    between atoms: C_15  and  C_16
REMARK    8  A    between atoms: N_18  and  C_19
REMARK    9  A    between atoms: C_19  and  C_20
REMARK   10  A    between atoms: C_20  and  N_21
REMARK                            x       y       z     vdW  Elec       q    Type
REMARK                         _______ _______ _______ _____ _____    ______ ____
ROOT
ATOM      9  C   UNL     1      -0.435  -0.002  24.767  0.00  0.00    +0.024 C 
ATOM     10  C   UNL     1      -0.166  -0.406  24.100  0.00  0.00    +0.089 C 
ATOM     11  N   UNL     1       0.184   0.009  23.479  0.00  0.00    -0.218 NA
ATOM     12  C   UNL     1       0.266   0.829  23.526  0.00  0.00    +0.089 C 
ATOM     13  C   UNL     1      -0.002   1.233  24.193  0.00  0.00    +0.019 C 
ATOM     14  C   UNL     1      -0.352   0.817  24.814  0.00  0.00    +0.012 C 
ENDROOT
BRANCH   9   8
ATOM      8  C   UNL     1      -0.785  -0.417  25.387  0.00  0.00    +0.051 C 
BRANCH   8   7
ATOM      5  C   UNL     1      -2.227  -1.954  25.047  0.00  0.00    +0.154 A 
ATOM      6  C   UNL     1      -2.036  -1.171  25.223  0.00  0.00    +0.054 A 
ATOM      7  C   UNL     1      -1.214  -1.105  25.234  0.00  0.00    +0.100 A 
ATOM     24  N   UNL     1      -0.896  -1.848  25.065  0.00  0.00    -0.082 NA
ATOM     25  O   UNL     1      -1.522  -2.372  24.949  0.00  0.00    -0.358 OA
BRANCH   5   4
ATOM      4  C   UNL     1      -2.989  -2.264  24.981  0.00  0.00    +0.067 C 
BRANCH   4   3
ATOM      3  C   UNL     1      -3.349  -2.317  24.241  0.00  0.00    +0.008 C 
BRANCH   3   2
ATOM      1  C   UNL     1      -4.578  -2.368  23.513  0.00  0.00    +0.000 C 
ATOM      2  C   UNL     1      -4.136  -2.561  24.182  0.00  0.00    +0.000 C 
ENDBRANCH   3   2
ENDBRANCH   4   3
ENDBRANCH   5   4
ENDBRANCH   8   7
ENDBRANCH   9   8
BRANCH  14  15
ATOM     15  C   UNL     1      -0.621   1.222  25.482  0.00  0.00    +0.087 C 
BRANCH  15  16
ATOM     16  C   UNL     1      -0.598   2.046  25.501  0.00  0.00    +0.241 C 
ATOM     17  O   UNL     1       0.129   2.438  25.518  0.00  0.00    -0.273 OA
ATOM     18  N   UNL     1      -1.299   2.480  25.504  0.00  0.00    -0.204 NA
BRANCH  18  19
ATOM     19  C   UNL     1      -1.276   3.304  25.524  0.00  0.00    +0.132 C 
BRANCH  19  20
ATOM     20  C   UNL     1      -1.932   3.730  25.782  0.00  0.00    +0.096 C 
BRANCH  20  21
ATOM     21  N   UNL     1      -2.203   4.377  25.347  0.00  0.00    -0.269 NA
ATOM     22  C   UNL     1      -2.927   4.338  24.955  0.00  0.00    +0.090 C 
ATOM     23  C   UNL     1      -1.747   5.064  25.304  0.00  0.00    +0.090 C 
ENDBRANCH  20  21
ENDBRANCH  19  20
ENDBRANCH  18  19
ENDBRANCH  15  16
ENDBRANCH  14  15
TORSDOF 10
ENDMDL
MODEL 7
REMARK VINA RESULT:      -8.2      2.272      4.754
REMARK  Name = 
REMARK  10 active torsions:
REMARK  status: ('A' for Active; 'I' for Inactive)
REMARK    1  A    between atoms: C_2  and  C_3
REMARK    2  A    between atoms: C_3  and  C_4
REMARK    3  A    between atoms: C_4  and  C_5
REMARK    4  A    between atoms: C_7  and  C_8
REMARK    5  A    between atoms: C_8  and  C_9
REMARK    6  A    between atoms: C_14  and  C_15
REMARK    7  A    between atoms: C_15  and  C_16
REMARK    8  A    between atoms: N_18  and  C_19
REMARK    9  A    between atoms: C_19  and  C_20
REMARK   10  A    between atoms: C_20  and  N_21
REMARK                            x       y       z     vdW  Elec       q    Type
REMARK                         _______ _______ _______ _____ _____    ______ ____
ROOT
ATOM      9  C   UNL     1      -3.754  -1.223  24.740  0.00  0.00    +0.024 C 
ATOM     10  C   UNL     1      -4.434  -1.387  24.302  0.00  0.00    +0.089 C 
ATOM     11  N   UNL     1      -4.476  -2.073  23.847  0.00  0.00    -0.218 NA
ATOM     12  C   UNL     1      -3.837  -2.596  23.829  0.00  0.00    +0.089 C 
ATOM     13  C   UNL     1      -3.157  -2.432  24.267  0.00  0.00    +0.019 C 
ATOM     14  C   UNL     1      -3.116  -1.745  24.722  0.00  0.00    +0.012 C 
ENDROOT
BRANCH   9   8
ATOM      8  C   UNL     1      -3.712  -0.537  25.195  0.00  0.00    +0.051 C 
BRANCH   8   7
ATOM      5  C   UNL     1      -4.873   1.231  24.906  0.00  0.00    +0.154 A 
ATOM      6  C   UNL     1      -4.642   0.588  25.368  0.00  0.00    +0.054 A 
ATOM      7  C   UNL     1      -4.089   0.152  24.940  0.00  0.00    +0.100 A 
ATOM     24  N   UNL     1      -3.977   0.525  24.212  0.00  0.00    -0.082 NA
ATOM     25  O   UNL     1      -4.462   1.192  24.191  0.00  0.00    -0.358 OA
BRANCH   5   4
ATOM      4  C   UNL     1      -5.420   1.812  25.119  0.00  0.00    +0.067 C 
BRANCH   4   3
ATOM      3  C   UNL     1      -5.171   2.590  25.233  0.00  0.00    +0.008 C 
BRANCH   3   2
ATOM      1  C   UNL     1      -5.466   3.939  25.601  0.00  0.00    +0.000 C 
ATOM      2  C   UNL     1      -5.695   3.149  25.541  0.00  0.00    +0.000 C 
ENDBRANCH   3   2
ENDBRANCH   4   3
ENDBRANCH   5   4
ENDBRANCH   8   7
ENDBRANCH   9   8
BRANCH  14  15
ATOM     15  C   UNL     1      -2.436  -1.581  25.160  0.00  0.00    +0.087 C 
BRANCH  15  16
ATOM     16  C   UNL     1      -1.693  -1.643  24.806  0.00  0.00    +0.241 C 
ATOM     17  O   UNL     1      -1.392  -2.385  24.606  0.00  0.00    -0.273 OA
ATOM     18  N   UNL     1      -1.251  -0.964  24.653  0.00  0.00    -0.204 NA
BRANCH  18  19
ATOM     19  C   UNL     1      -0.508  -1.026  24.299  0.00  0.00    +0.132 C 
BRANCH  19  20
ATOM     20  C   UNL     1       0.033  -0.407  24.363  0.00  0.00    +0.096 C 
BRANCH  20  21
ATOM     21  N   UNL     1       0.286  -0.007  23.687  0.00  0.00    -0.269 NA
ATOM     22  C   UNL     1       0.825  -0.363  23.174  0.00  0.00    +0.090 C 
ATOM     23  C   UNL     1      -0.001   0.749  23.524  0.00  0.00    +0.090 C 
ENDBRANCH  20  21
ENDBRANCH  19  20
ENDBRANCH  18  19
ENDBRANCH  15  16
ENDBRANCH  14  15
TORSDOF 10
ENDMDL
MODEL 8
REMARK VINA RESULT:      -7.9      2.040      4.990
REMARK  Name = 
REMARK  10 active torsions:
REMARK  status: ('A' for Active; 'I' for Inactive)
REMARK    1  A    between atoms: C_2  and  C_3
REMARK    2  A    between atoms: C_3  and  C_4
REMARK    3  A    between atoms: C_4  and  C_5
REMARK    4  A    between atoms: C_7  and  C_8
REMARK    5  A    between atoms: C_8  and  C_9
REMARK    6  A    between atoms: C_14  and  C_15
REMARK    7  A    between atoms: C_15  and  C_16
REMARK    8  A    between atoms: N_18  and  C_19
REMARK    9  A    between atoms: C_19  and  C_20
REMARK   10  A    between atoms: C_20  and  N_21
REMARK                            x       y       z     vdW  Elec       q    Type
REMARK                         _______ _______ _______ _____ _____    ______ ____
ROOT
ATOM      9  C   UNL     1      -1.662   0.249  24.701  0.00  0.00    +0.024 C 
ATOM     10  C   UNL     1      -1.077  -0.048  25.202  0.00  0.00    +0.089 C 
ATOM     11  N   UNL     1      -1.270  -0.610  25.774  0.00  0.00    -0.218 NA
ATOM     12  C   UNL     1      -2.048  -0.876  25.844  0.00  0.00    +0.089 C 
ATOM     13  C   UNL     1      -2.633  -0.579  25.344  0.00  0.00    +0.019 C 
ATOM     14  C   UNL     1      -2.439  -0.016  24.772  0.00  0.00    +0.012 C 
ENDROOT
BRANCH   9   8
ATOM      8  C   UNL     1      -1.469   0.812  24.130  0.00  0.00    +0.051 C 
BRANCH   8   7
ATOM      5  C   UNL     1      -0.389   2.566  24.690  0.00  0.00    +0.154 A 
ATOM      6  C   UNL     1      -1.098   2.154  24.600  0.00  0.00    +0.054 A 
ATOM      7  C   UNL     1      -0.922   1.405  24.303  0.00  0.00    +0.100 A 
ATOM     24  N   UNL     1      -0.104   1.354  24.209  0.00  0.00    -0.082 NA
ATOM     25  O   UNL     1       0.226   2.071  24.448  0.00  0.00    -0.358 OA
BRANCH   5   4
ATOM      4  C   UNL     1      -0.308   3.338  24.972  0.00  0.00    +0.067 C 
BRANCH   4   3
ATOM      3  C   UNL     1      -0.898   3.895  24.823  0.00  0.00    +0.008 C 
BRANCH   3   2
ATOM      1  C   UNL     1      -1.411   5.203  25.082  0.00  0.00    +0.000 C 
ATOM      2  C   UNL     1      -0.771   4.690  25.007  0.00  0.00    +0.000 C 
ENDBRANCH   3   2
ENDBRANCH   4   3
ENDBRANCH   5   4
ENDBRANCH   8   7
ENDBRANCH   9   8
BRANCH  14  15
ATOM     15  C   UNL     1      -3.024   0.281  24.271  0.00  0.00    +0.087 C 
BRANCH  15  16
ATOM     16  C   UNL     1      -3.800   0.358  24.543  0.00  0.00    +0.241 C 
ATOM     17  O   UNL     1      -4.253  -0.316  24.691  0.00  0.00    -0.273 OA
ATOM     18  N   UNL     1      -4.122   1.106  24.666  0.00  0.00    -0.204 NA
BRANCH  18  19
ATOM     19  C   UNL     1      -4.897   1.183  24.938  0.00  0.00    +0.132 C 
BRANCH  19  20
ATOM     20  C   UNL     1      -5.305   1.891  24.828  0.00  0.00    +0.096 C 
BRANCH  20  21
ATOM     21  N   UNL     1      -5.704   2.241  25.460  0.00  0.00    -0.269 NA
ATOM     22  C   UNL     1      -6.322   1.842  25.830  0.00  0.00    +0.090 C 
ATOM     23  C   UNL     1      -5.482   2.991  25.721  0.00  0.00    +0.090 C 
ENDBRANCH  20  21
ENDBRANCH  19  20
ENDBRANCH  18  19
ENDBRANCH  15  16
ENDBRANCH  14  15
TORSDOF 10
ENDMDL
MODEL 9
REMARK VINA RESULT:      -6.6     16.723     18.737
REMARK  Name = 
REMARK  10 active torsions:
REMARK  status: ('A' for Active; 'I' for Inactive)
REMARK    1  A    between atoms: C_2  and  C_3
REMARK    2  A    between atoms: C_3  and  C_4
REMARK    3  A    between atoms: C_4  and  C_5
REMARK    4  A    between atoms: C_7  and  C_8
REMARK    5  A    between atoms: C_8  and  C_9
REMARK    6  A    between atoms: C_14  and  C_15
REMARK    7  A    between atoms: C_15  and  C_16
REMARK    8  A    between atoms: N_18  and  C_19
REMARK    9  A    between atoms: C_19  and  C_20
REMARK   10  A    between atoms: C_20  and  N_21
REMARK                            x       y       z     vdW  Elec       q    Type
REMARK                         _______ _______ _______ _____ _____    ______ ____
ROOT
ATOM      9  C   UNL     1      11.880   7.741  20.760  0.00  0.00    +0.024 C 
ATOM     10  C   UNL     1      11.247   7.214  20.716  0.00  0.00    +0.089 C 
ATOM     11  N   UNL     1      11.289   6.484  21.098  0.00  0.00    -0.218 NA
ATOM     12  C   UNL     1      11.966   6.281  21.524  0.00  0.00    +0.089 C 
ATOM     13  C   UNL     1      12.600   6.807  21.568  0.00  0.00    +0.019 C 
ATOM     14  C   UNL     1      12.556   7.537  21.186  0.00  0.00    +0.012 C 
ENDROOT
BRANCH   9   8
ATOM      8  C   UNL     1      11.838   8.470  20.378  0.00  0.00    +0.051 C 
BRANCH   8   7
ATOM      5  C   UNL     1      11.355   8.687  18.310  0.00  0.00    +0.154 A 
ATOM      6  C   UNL     1      11.904   8.685  18.926  0.00  0.00    +0.054 A 
ATOM      7  C   UNL     1      11.501   8.524  19.627  0.00  0.00    +0.100 A 
ATOM     24  N   UNL     1      10.702   8.426  19.445  0.00  0.00    -0.082 NA
ATOM     25  O   UNL     1      10.611   8.527  18.631  0.00  0.00    -0.358 OA
BRANCH   5   4
ATOM      4  C   UNL     1      11.520   8.825  17.513  0.00  0.00    +0.067 C 
BRANCH   4   3
ATOM      3  C   UNL     1      10.939   8.693  16.943  0.00  0.00    +0.008 C 
BRANCH   3   2
ATOM      1  C   UNL     1      10.511   9.093  15.640  0.00  0.00    +0.000 C 
ATOM      2  C   UNL     1      11.105   8.827  16.146  0.00  0.00    +0.000 C 
ENDBRANCH   3   2
ENDBRANCH   4   3
ENDBRANCH   5   4
ENDBRANCH   8   7
ENDBRANCH   9   8
BRANCH  14  15
ATOM     15  C   UNL     1      13.191   8.064  21.230  0.00  0.00    +0.087 C 
BRANCH  15  16
ATOM     16  C   UNL     1      13.930   7.799  21.483  0.00  0.00    +0.241 C 
ATOM     17  O   UNL     1      14.020   7.499  22.247  0.00  0.00    -0.273 OA
ATOM     18  N   UNL     1      14.578   7.832  20.975  0.00  0.00    -0.204 NA
BRANCH  18  19
ATOM     19  C   UNL     1      15.317   7.567  21.228  0.00  0.00    +0.132 C 
BRANCH  19  20
ATOM     20  C   UNL     1      15.962   7.591  20.716  0.00  0.00    +0.096 C 
BRANCH  20  21
ATOM     21  N   UNL     1      16.714   7.386  20.988  0.00  0.00    -0.269 NA
ATOM     22  C   UNL     1      16.937   6.594  21.027  0.00  0.00    +0.090 C 
ATOM     23  C   UNL     1      17.242   7.975  21.221  0.00  0.00    +0.090 C 
ENDBRANCH  20  21
ENDBRANCH  19  20
ENDBRANCH  18  19
ENDBRANCH  15  16
ENDBRANCH  14  15
TORSDOF 10
ENDMDL
MODEL 10
REMARK VINA RESULT:      -6.2     15.584     19.024
REMARK  Name = 
REMARK  10 active torsions:
REMARK  status: ('A' for Active; 'I' for Inactive)
REMARK    1  A    between atoms: C_2  and  C_3
REMARK    2  A    between atoms: C_3  and  C_4
REMARK    3  A    between atoms: C_4  and  C_5
REMARK    4  A    between atoms: C_7  and  C_8
REMARK    5  A    between atoms: C_8  and  C_9
REMARK    6  A    between atoms: C_14  and  C_15
REMARK    7  A    between atoms: C_15  and  C_16
REMARK    8  A    between atoms: N_18  and  C_19
REMARK    9  A    between atoms: C_19  and  C_20
REMARK   10  A    between atoms: C_20  and  N_21
REMARK                            x       y       z     vdW  Elec       q    Type
REMARK                         _______ _______ _______ _____ _____    ______ ____
ROOT
ATOM      9  C   UNL     1      12.920   8.274  18.259  0.00  0.00    +0.024 C 
ATOM     10  C   UNL     1      13.017   7.889  17.536  0.00  0.00    +0.089 C 
ATOM     11  N   UNL     1      12.361   7.718  17.067  0.00  0.00    -0.218 NA
ATOM     12  C   UNL     1      11.605   7.932  17.323  0.00  0.00    +0.089 C 
ATOM     13  C   UNL     1      11.508   8.316  18.046  0.00  0.00    +0.019 C 
ATOM     14  C   UNL     1      12.166   8.487  18.514  0.00  0.00    +0.012 C 
ENDROOT
BRANCH   9   8
ATOM      8  C   UNL     1      13.577   8.445  18.727  0.00  0.00    +0.051 C 
BRANCH   8   7
ATOM      5  C   UNL     1      15.191   7.086  19.051  0.00  0.00    +0.154 A 
ATOM      6  C   UNL     1      14.516   7.479  19.315  0.00  0.00    +0.054 A 
ATOM      7  C   UNL     1      14.241   7.956  18.701  0.00  0.00    +0.100 A 
ATOM     24  N   UNL     1      14.747   7.858  18.056  0.00  0.00    -0.082 NA
ATOM     25  O   UNL     1      15.334   7.320  18.272  0.00  0.00    -0.358 OA
BRANCH   5   4
ATOM      4  C   UNL     1      15.645   6.552  19.488  0.00  0.00    +0.067 C 
BRANCH   4   3
ATOM      3  C   UNL     1      16.370   6.788  19.801  0.00  0.00    +0.008 C 
BRANCH   3   2
ATOM      1  C   UNL     1      17.402   6.598  20.771  0.00  0.00    +0.000 C 
ATOM      2  C   UNL     1      16.764   6.302  20.341  0.00  0.00    +0.000 C 
ENDBRANCH   3   2
ENDBRANCH   4   3
ENDBRANCH   5   4
ENDBRANCH   8   7
ENDBRANCH   9   8
BRANCH  14  15
ATOM     15  C   UNL     1      12.068   8.872  19.238  0.00  0.00    +0.087 C 
BRANCH  15  16
ATOM     16  C   UNL     1      11.439   8.667  19.732  0.00  0.00    +0.241 C 
ATOM     17  O   UNL     1      10.675   8.615  19.426  0.00  0.00    -0.273 OA
ATOM     18  N   UNL     1      11.575   8.515  20.531  0.00  0.00    -0.204 NA
BRANCH  18  19
ATOM     19  C   UNL     1      10.946   8.310  21.025  0.00  0.00    +0.132 C 
BRANCH  19  20
ATOM     20  C   UNL     1      11.093   7.980  21.766  0.00  0.00    +0.096 C 
BRANCH  20  21
ATOM     21  N   UNL     1      10.500   7.970  22.339  0.00  0.00    -0.269 NA
ATOM     22  C   UNL     1       9.944   7.361  22.347  0.00  0.00    +0.090 C 
ATOM     23  C   UNL     1      10.464   8.569  22.905  0.00  0.00    +0.090 C 
ENDBRANCH  20  21
ENDBRANCH  19  20
ENDBRANCH  18  19
ENDBRANCH  15  16
ENDBRANCH  14  15
TORSDOF 10
ENDMDL
