MODEL 1
REMARK VINA RESULT:     -14.4      0.000      0.000
REMARK  Name = 
REMARK  6 active torsions:
REMARK  status: ('A' for Active; 'I' for Inactive)
REMARK    1  A    between atoms: O_2  and  C_3
REMARK    2  A    between atoms: C_6  and  C_9
REMARK    3  A    between atoms: N_11  and  C_12
REMARK    4  A    between atoms: N_20  and  S_22
REMARK    5  A    between atoms: S_22  and  C_25
REMARK    6  A    between atoms: C_30  and  C_31
REMARK                            x       y       z     vdW  Elec       q    Type
REMARK                         _______ _______ _______ _____ _____    ______ ____
ROOT
ATOM     12  C   UNL     1      -2.769   2.355  24.889  0.00  0.00    +0.130 A 
ATOM     13  C   UNL     1      -3.419   2.838  25.049  0.00  0.00    +0.023 A 
ATOM     14  C   UNL     1      -3.312   3.646  25.172  0.00  0.00    +0.014 A 
ATOM     15  C   UNL     1      -2.555   3.972  25.136  0.00  0.00    +0.041 A 
ATOM     16  C   UNL     1      -2.119   4.777  25.220  0.00  0.00    +0.056 C 
ATOM     17  C   UNL     1      -2.238   5.456  25.349  0.00  0.00    +0.011 C 
ATOM     18  C   UNL     1      -1.599   4.976  25.191  0.00  0.00    +0.041 C 
ATOM     19  C   UNL     1      -0.716   4.569  25.017  0.00  0.00    +0.098 C 
ATOM     20  N   UNL     1      -0.947   3.774  24.910  0.00  0.00    -0.155 NA
ATOM     21  C   UNL     1      -1.259   4.398  25.053  0.00  0.00    +0.102 C 
ATOM     33  C   UNL     1      -2.045   4.131  25.102  0.00  0.00    +0.110 C 
ATOM     34  N   UNL     1      -1.905   3.489  24.977  0.00  0.00    -0.298 N 
ATOM     35  C   UNL     1      -2.012   2.680  24.853  0.00  0.00    +0.276 A 
ATOM     36  O   UNL     1      -1.363   2.197  24.694  0.00  0.00    -0.266 OA
ENDROOT
BRANCH  12  11
ATOM      9  C   UNL     1      -3.619   1.206  24.885  0.00  0.00    +0.269 C 
ATOM     10  O   UNL     1      -4.254   1.675  25.128  0.00  0.00    -0.268 OA
ATOM     11  N   UNL     1      -2.877   1.547  24.766  0.00  0.00    -0.171 NA
BRANCH   9   6
ATOM      3  C   UNL     1      -3.942  -1.220  24.514  0.00  0.00    +0.139 A 
ATOM      4  C   UNL     1      -3.748  -0.940  25.264  0.00  0.00    +0.037 A 
ATOM      5  C   UNL     1      -3.641  -0.131  25.388  0.00  0.00    +0.008 A 
ATOM      6  C   UNL     1      -3.727   0.397  24.761  0.00  0.00    +0.056 A 
ATOM      7  C   UNL     1      -3.921   0.118  24.009  0.00  0.00    +0.008 A 
ATOM      8  C   UNL     1      -4.029  -0.692  23.886  0.00  0.00    +0.037 A 
BRANCH   3   2
ATOM      1  C   UNL     1      -3.464  -2.562  24.618  0.00  0.00    +0.252 C 
ATOM      2  O   UNL     1      -4.050  -2.028  24.390  0.00  0.00    -0.471 OA
ENDBRANCH   3   2
ENDBRANCH   9   6
ENDBRANCH  12  11
BRANCH  20  22
ATOM     22  S   UNL     1      -0.876   2.964  24.765  0.00  0.00    +0.064 S 
ATOM     23  O   UNL     1      -0.829   3.114  23.954  0.00  0.00    -0.153 OA
ATOM     24  O   UNL     1      -0.924   2.815  25.575  0.00  0.00    -0.153 OA
BRANCH  22  25
ATOM     25  C   UNL     1      -0.805   2.155  24.620  0.00  0.00    +0.132 A 
ATOM     26  C   UNL     1      -1.180   1.819  23.966  0.00  0.00    +0.021 A 
ATOM     27  C   UNL     1      -1.109   1.010  23.821  0.00  0.00    +0.001 A 
ATOM     28  C   UNL     1      -0.663   0.537  24.329  0.00  0.00    +0.001 A 
ATOM     29  C   UNL     1      -0.288   0.873  24.983  0.00  0.00    +0.012 A 
ATOM     30  C   UNL     1      -0.359   1.682  25.128  0.00  0.00    +0.087 A 
BRANCH  30  31
ATOM     31  C   UNL     1       0.015   2.018  25.781  0.00  0.00    +0.102 C 
ATOM     32  N   UNL     1       0.391   2.354  26.436  0.00  0.00    -0.191 NA
ENDBRANCH  30  31
ENDBRANCH  22  25
ENDBRANCH  20  22
TORSDOF 6
ENDMDL
MODEL 2
REMARK VINA RESULT:     -14.4      1.545      4.942
REMARK  Name = 
REMARK  6 active torsions:
REMARK  status: ('A' for Active; 'I' for Inactive)
REMARK    1  A    between atoms: O_2  and  C_3
REMARK    2  A    between atoms: C_6  and  C_9
REMARK    3  A    between atoms: N_11  and  C_12
REMARK    4  A    between atoms: N_20  and  S_22
REMARK    5  A    between atoms: S_22  and  C_25
REMARK    6  A    between atoms: C_30  and  C_31
REMARK                            x       y       z     vdW  Elec       q    Type
REMARK                         _______ _______ _______ _____ _____    ______ ____
ROOT
ATOM     12  C   UNL     1      -2.156   0.683  24.994  0.00  0.00    +0.130 A 
ATOM     13  C   UNL     1      -1.614   0.166  25.341  0.00  0.00    +0.023 A 
ATOM     14  C   UNL     1      -1.799  -0.634  25.421  0.00  0.00    +0.014 A 
ATOM     15  C   UNL     1      -2.526  -0.917  25.154  0.00  0.00    +0.041 A 
ATOM     16  C   UNL     1      -3.010  -1.696  25.096  0.00  0.00    +0.056 C 
ATOM     17  C   UNL     1      -2.974  -2.380  25.251  0.00  0.00    +0.011 C 
ATOM     18  C   UNL     1      -3.507  -1.867  24.910  0.00  0.00    +0.041 C 
ATOM     19  C   UNL     1      -4.271  -1.414  24.477  0.00  0.00    +0.098 C 
ATOM     20  N   UNL     1      -3.975  -0.634  24.451  0.00  0.00    -0.155 NA
ATOM     21  C   UNL     1      -3.757  -1.273  24.678  0.00  0.00    +0.102 C 
ATOM     33  C   UNL     1      -3.009  -1.049  24.966  0.00  0.00    +0.110 C 
ATOM     34  N   UNL     1      -3.068  -0.401  24.808  0.00  0.00    -0.298 N 
ATOM     35  C   UNL     1      -2.884   0.399  24.728  0.00  0.00    +0.276 A 
ATOM     36  O   UNL     1      -3.426   0.915  24.381  0.00  0.00    -0.266 OA
ENDROOT
BRANCH  12  11
ATOM      9  C   UNL     1      -1.296   1.787  25.276  0.00  0.00    +0.269 C 
ATOM     10  O   UNL     1      -0.805   1.292  25.718  0.00  0.00    -0.268 OA
ATOM     11  N   UNL     1      -1.971   1.482  24.914  0.00  0.00    -0.171 NA
BRANCH   9   6
ATOM      3  C   UNL     1      -0.740   4.188  25.037  0.00  0.00    +0.139 A 
ATOM      4  C   UNL     1      -1.200   3.932  25.671  0.00  0.00    +0.037 A 
ATOM      5  C   UNL     1      -1.385   3.133  25.751  0.00  0.00    +0.008 A 
ATOM      6  C   UNL     1      -1.110   2.588  25.196  0.00  0.00    +0.056 A 
ATOM      7  C   UNL     1      -0.650   2.842  24.561  0.00  0.00    +0.008 A 
ATOM      8  C   UNL     1      -0.464   3.643  24.481  0.00  0.00    +0.037 A 
BRANCH   3   2
ATOM      1  C   UNL     1      -1.158   5.548  24.905  0.00  0.00    +0.252 C 
ATOM      2  O   UNL     1      -0.555   4.987  24.956  0.00  0.00    -0.471 OA
ENDBRANCH   3   2
ENDBRANCH   9   6
ENDBRANCH  12  11
BRANCH  20  22
ATOM     22  S   UNL     1      -3.953   0.177  24.296  0.00  0.00    +0.064 S 
ATOM     23  O   UNL     1      -3.743   0.022  23.513  0.00  0.00    -0.153 OA
ATOM     24  O   UNL     1      -4.163   0.332  25.079  0.00  0.00    -0.153 OA
BRANCH  22  25
ATOM     25  C   UNL     1      -3.931   0.987  24.141  0.00  0.00    +0.132 A 
ATOM     26  C   UNL     1      -3.367   1.293  23.623  0.00  0.00    +0.021 A 
ATOM     27  C   UNL     1      -3.345   2.103  23.469  0.00  0.00    +0.001 A 
ATOM     28  C   UNL     1      -3.888   2.607  23.831  0.00  0.00    +0.001 A 
ATOM     29  C   UNL     1      -4.453   2.301  24.349  0.00  0.00    +0.012 A 
ATOM     30  C   UNL     1      -4.474   1.491  24.504  0.00  0.00    +0.087 A 
BRANCH  30  31
ATOM     31  C   UNL     1      -5.039   1.185  25.022  0.00  0.00    +0.102 C 
ATOM     32  N   UNL     1      -5.604   0.880  25.540  0.00  0.00    -0.191 NA
ENDBRANCH  30  31
ENDBRANCH  22  25
ENDBRANCH  20  22
TORSDOF 6
ENDMDL
MODEL 3
REMARK VINA RESULT:     -14.4      1.360      2.547
REMARK  Name = 
REMARK  6 active torsions:
REMARK  status: ('A' for Active; 'I' for Inactive)
REMARK    1  A    between atoms: O_2  and  C_3
REMARK    2  A    between atoms: C_6  and  C_9
REMARK    3  A    between atoms: N_11  and  C_12
REMARK    4  A    between atoms: N_20  and  S_22
REMARK    5  A    between atoms: S_22  and  C_25
REMARK    6  A    between atoms: C_30  and  C_31
REMARK                            x       y       z     vdW  Elec       q    Type
REMARK                         _______ _______ _______ _____ _____    ______ ____
ROOT
ATOM     12  C   UNL     1      -2.154   1.677  25.120  0.00  0.00    +0.130 A 
ATOM     13  C   UNL     1      -1.353   1.743  25.306  0.00  0.00    +0.023 A 
ATOM     14  C   UNL     1      -1.003   2.488  25.365  0.00  0.00    +0.014 A 
ATOM     15  C   UNL     1      -1.454   3.167  25.238  0.00  0.00    +0.041 A 
ATOM     16  C   UNL     1      -1.378   4.082  25.227  0.00  0.00    +0.056 C 
ATOM     17  C   UNL     1      -0.910   4.597  25.320  0.00  0.00    +0.011 C 
ATOM     18  C   UNL     1      -1.700   4.528  25.136  0.00  0.00    +0.041 C 
ATOM     19  C   UNL     1      -2.654   4.651  24.908  0.00  0.00    +0.098 C 
ATOM     20  N   UNL     1      -2.894   3.852  24.877  0.00  0.00    -0.155 NA
ATOM     21  C   UNL     1      -2.297   4.217  25.006  0.00  0.00    +0.102 C 
ATOM     33  C   UNL     1      -1.790   3.572  25.146  0.00  0.00    +0.110 C 
ATOM     34  N   UNL     1      -2.255   3.101  25.051  0.00  0.00    -0.298 N 
ATOM     35  C   UNL     1      -2.605   2.356  24.992  0.00  0.00    +0.276 A 
ATOM     36  O   UNL     1      -3.406   2.290  24.806  0.00  0.00    -0.266 OA
ENDROOT
BRANCH  12  11
ATOM      9  C   UNL     1      -2.089   0.262  25.303  0.00  0.00    +0.269 C 
ATOM     10  O   UNL     1      -1.324   0.336  25.604  0.00  0.00    -0.268 OA
ATOM     11  N   UNL     1      -2.504   0.933  25.061  0.00  0.00    -0.171 NA
BRANCH   9   6
ATOM      3  C   UNL     1      -3.139  -1.973  25.127  0.00  0.00    +0.139 A 
ATOM      4  C   UNL     1      -2.689  -1.678  24.502  0.00  0.00    +0.037 A 
ATOM      5  C   UNL     1      -2.339  -0.933  24.560  0.00  0.00    +0.008 A 
ATOM      6  C   UNL     1      -2.439  -0.484  25.244  0.00  0.00    +0.056 A 
ATOM      7  C   UNL     1      -2.889  -0.777  25.870  0.00  0.00    +0.008 A 
ATOM      8  C   UNL     1      -3.240  -1.523  25.811  0.00  0.00    +0.037 A 
BRANCH   3   2
ATOM      1  C   UNL     1      -3.826  -2.960  24.355  0.00  0.00    +0.252 C 
ATOM      2  O   UNL     1      -3.489  -2.717  25.068  0.00  0.00    -0.471 OA
ENDBRANCH   3   2
ENDBRANCH   9   6
ENDBRANCH  12  11
BRANCH  20  22
ATOM     22  S   UNL     1      -3.393   3.201  24.780  0.00  0.00    +0.064 S 
ATOM     23  O   UNL     1      -3.473   3.141  25.599  0.00  0.00    -0.153 OA
ATOM     24  O   UNL     1      -3.312   3.261  23.961  0.00  0.00    -0.153 OA
BRANCH  22  25
ATOM     25  C   UNL     1      -3.892   2.550  24.683  0.00  0.00    +0.132 A 
ATOM     26  C   UNL     1      -3.713   1.974  24.121  0.00  0.00    +0.021 A 
ATOM     27  C   UNL     1      -4.211   1.324  24.025  0.00  0.00    +0.001 A 
ATOM     28  C   UNL     1      -4.888   1.250  24.490  0.00  0.00    +0.001 A 
ATOM     29  C   UNL     1      -5.067   1.826  25.052  0.00  0.00    +0.012 A 
ATOM     30  C   UNL     1      -4.568   2.477  25.149  0.00  0.00    +0.087 A 
BRANCH  30  31
ATOM     31  C   UNL     1      -4.747   3.053  25.711  0.00  0.00    +0.102 C 
ATOM     32  N   UNL     1      -4.927   3.630  26.274  0.00  0.00    -0.191 NA
ENDBRANCH  30  31
ENDBRANCH  22  25
ENDBRANCH  20  22
TORSDOF 6
ENDMDL
MODEL 4
REMARK VINA RESULT:     -13.8      1.478      2.281
REMARK  Name = 
REMARK  6 active torsions:
REMARK  status: ('A' for Active; 'I' for Inactive)
REMARK    1  A    between atoms: O_2  and  C_3
REMARK    2  A    between atoms: C_6  and  C_9
REMARK    3  A    between atoms: N_11  and  C_12
REMARK    4  A    between atoms: N_20  and  S_22
REMARK    5  A    between atoms: S_22  and  C_25
REMARK    6  A    between atoms: C_30  and  C_31
REMARK                            x       y       z     vdW  Elec       q    Type
REMARK                         _______ _______ _______ _____ _____    ______ ____
ROOT
ATOM     12  C   UNL     1      -4.352   1.312  24.955  0.00  0.00    +0.130 A 
ATOM     13  C   UNL     1      -5.097   1.306  25.310  0.00  0.00    +0.023 A 
ATOM     14  C   UNL     1      -5.469   2.017  25.499  0.00  0.00    +0.014 A 
ATOM     15  C   UNL     1      -5.097   2.734  25.333  0.00  0.00    +0.041 A 
ATOM     16  C   UNL     1      -5.228   3.641  25.409  0.00  0.00    +0.056 C 
ATOM     17  C   UNL     1      -5.694   4.112  25.639  0.00  0.00    +0.011 C 
ATOM     18  C   UNL     1      -4.958   4.114  25.289  0.00  0.00    +0.041 C 
ATOM     19  C   UNL     1      -4.085   4.321  24.876  0.00  0.00    +0.098 C 
ATOM     20  N   UNL     1      -3.810   3.546  24.733  0.00  0.00    -0.155 NA
ATOM     21  C   UNL     1      -4.386   3.857  25.012  0.00  0.00    +0.102 C 
ATOM     33  C   UNL     1      -4.813   3.169  25.204  0.00  0.00    +0.110 C 
ATOM     34  N   UNL     1      -4.352   2.740  24.978  0.00  0.00    -0.298 N 
ATOM     35  C   UNL     1      -3.979   2.029  24.789  0.00  0.00    +0.276 A 
ATOM     36  O   UNL     1      -3.234   2.034  24.434  0.00  0.00    -0.266 OA
ENDROOT
BRANCH  12  11
ATOM      9  C   UNL     1      -4.274  -0.111  25.065  0.00  0.00    +0.269 C 
ATOM     10  O   UNL     1      -4.940  -0.110  25.551  0.00  0.00    -0.268 OA
ATOM     11  N   UNL     1      -3.980   0.600  24.767  0.00  0.00    -0.171 NA
BRANCH   9   6
ATOM      3  C   UNL     1      -3.157  -2.246  24.498  0.00  0.00    +0.139 A 
ATOM      4  C   UNL     1      -2.953  -1.844  25.188  0.00  0.00    +0.037 A 
ATOM      5  C   UNL     1      -3.325  -1.133  25.378  0.00  0.00    +0.008 A 
ATOM      6  C   UNL     1      -3.901  -0.823  24.876  0.00  0.00    +0.056 A 
ATOM      7  C   UNL     1      -4.106  -1.224  24.184  0.00  0.00    +0.008 A 
ATOM      8  C   UNL     1      -3.734  -1.937  23.995  0.00  0.00    +0.037 A 
BRANCH   3   2
ATOM      1  C   UNL     1      -1.962  -2.996  24.273  0.00  0.00    +0.252 C 
ATOM      2  O   UNL     1      -2.785  -2.958  24.309  0.00  0.00    -0.471 OA
ENDBRANCH   3   2
ENDBRANCH   9   6
ENDBRANCH  12  11
BRANCH  20  22
ATOM     22  S   UNL     1      -3.306   2.941  24.483  0.00  0.00    +0.064 S 
ATOM     23  O   UNL     1      -3.048   2.836  25.260  0.00  0.00    -0.153 OA
ATOM     24  O   UNL     1      -3.565   3.047  23.706  0.00  0.00    -0.153 OA
BRANCH  22  25
ATOM     25  C   UNL     1      -2.803   2.337  24.234  0.00  0.00    +0.132 A 
ATOM     26  C   UNL     1      -3.049   1.811  23.648  0.00  0.00    +0.021 A 
ATOM     27  C   UNL     1      -2.545   1.206  23.399  0.00  0.00    +0.001 A 
ATOM     28  C   UNL     1      -1.797   1.129  23.735  0.00  0.00    +0.001 A 
ATOM     29  C   UNL     1      -1.550   1.655  24.320  0.00  0.00    +0.012 A 
ATOM     30  C   UNL     1      -2.054   2.259  24.570  0.00  0.00    +0.087 A 
BRANCH  30  31
ATOM     31  C   UNL     1      -1.808   2.785  25.155  0.00  0.00    +0.102 C 
ATOM     32  N   UNL     1      -1.561   3.312  25.741  0.00  0.00    -0.191 NA
ENDBRANCH  30  31
ENDBRANCH  22  25
ENDBRANCH  20  22
TORSDOF 6
ENDMDL
MODEL 5
REMARK VINA RESULT:     -13.6      1.636      4.612
REMARK  Name = 
REMARK  6 active torsions:
REMARK  status: ('A' for Active; 'I' for Inactive)
REMARK    1  A    between atoms: O_2  and  C_3
REMARK    2  A    between atoms: C_6  and  C_9
REMARK    3  A    between atoms: N_11  and  C_12
REMARK    4  A    between atoms: N_20  and  S_22
REMARK    5  A    between atoms: S_22  and  C_25
REMARK    6  A    between atoms: C_30  and  C_31
REMARK                            x       y       z     vdW  Elec       q    Type
REMARK                         _______ _______ _______ _____ _____    ______ ____
ROOT
ATOM     12  C   UNL     1      -3.181   0.321  24.663  0.00  0.00    +0.130 A 
ATOM     13  C   UNL     1      -3.959   0.143  24.453  0.00  0.00    +0.023 A 
ATOM     14  C   UNL     1      -4.186  -0.641  24.335  0.00  0.00    +0.014 A 
ATOM     15  C   UNL     1      -3.635  -1.248  24.426  0.00  0.00    +0.041 A 
ATOM     16  C   UNL     1      -3.565  -2.163  24.372  0.00  0.00    +0.056 C 
ATOM     17  C   UNL     1      -3.944  -2.736  24.232  0.00  0.00    +0.011 C 
ATOM     18  C   UNL     1      -3.177  -2.558  24.439  0.00  0.00    +0.041 C 
ATOM     19  C   UNL     1      -2.219  -2.545  24.680  0.00  0.00    +0.098 C 
ATOM     20  N   UNL     1      -2.109  -1.722  24.772  0.00  0.00    -0.155 NA
ATOM     21  C   UNL     1      -2.639  -2.167  24.604  0.00  0.00    +0.102 C 
ATOM     33  C   UNL     1      -3.240  -1.601  24.497  0.00  0.00    +0.110 C 
ATOM     34  N   UNL     1      -2.857  -1.070  24.635  0.00  0.00    -0.298 N 
ATOM     35  C   UNL     1      -2.630  -0.286  24.754  0.00  0.00    +0.276 A 
ATOM     36  O   UNL     1      -1.852  -0.109  24.963  0.00  0.00    -0.266 OA
ENDROOT
BRANCH  12  11
ATOM      9  C   UNL     1      -3.480   1.716  24.605  0.00  0.00    +0.269 C 
ATOM     10  O   UNL     1      -4.231   1.544  24.310  0.00  0.00    -0.268 OA
ATOM     11  N   UNL     1      -2.955   1.105  24.781  0.00  0.00    -0.171 NA
BRANCH   9   6
ATOM      3  C   UNL     1      -2.800   4.070  24.960  0.00  0.00    +0.139 A 
ATOM      4  C   UNL     1      -2.672   3.710  24.230  0.00  0.00    +0.037 A 
ATOM      5  C   UNL     1      -2.899   2.926  24.111  0.00  0.00    +0.008 A 
ATOM      6  C   UNL     1      -3.253   2.502  24.723  0.00  0.00    +0.056 A 
ATOM      7  C   UNL     1      -3.381   2.861  25.455  0.00  0.00    +0.008 A 
ATOM      8  C   UNL     1      -3.155   3.647  25.573  0.00  0.00    +0.037 A 
BRANCH   3   2
ATOM      1  C   UNL     1      -1.796   5.032  25.290  0.00  0.00    +0.252 C 
ATOM      2  O   UNL     1      -2.574   4.854  25.078  0.00  0.00    -0.471 OA
ENDBRANCH   3   2
ENDBRANCH   9   6
ENDBRANCH  12  11
BRANCH  20  22
ATOM     22  S   UNL     1      -1.721  -1.010  24.925  0.00  0.00    +0.064 S 
ATOM     23  O   UNL     1      -1.809  -1.136  25.736  0.00  0.00    -0.153 OA
ATOM     24  O   UNL     1      -1.633  -0.883  24.115  0.00  0.00    -0.153 OA
BRANCH  22  25
ATOM     25  C   UNL     1      -1.333  -0.297  25.079  0.00  0.00    +0.132 A 
ATOM     26  C   UNL     1      -1.595   0.191  25.689  0.00  0.00    +0.021 A 
ATOM     27  C   UNL     1      -1.207   0.904  25.842  0.00  0.00    +0.001 A 
ATOM     28  C   UNL     1      -0.558   1.126  25.385  0.00  0.00    +0.001 A 
ATOM     29  C   UNL     1      -0.296   0.638  24.774  0.00  0.00    +0.012 A 
ATOM     30  C   UNL     1      -0.684  -0.075  24.621  0.00  0.00    +0.087 A 
BRANCH  30  31
ATOM     31  C   UNL     1      -0.422  -0.563  24.010  0.00  0.00    +0.102 C 
ATOM     32  N   UNL     1      -0.160  -1.052  23.399  0.00  0.00    -0.191 NA
ENDBRANCH  30  31
ENDBRANCH  22  25
ENDBRANCH  20  22
TORSDOF 6
ENDMDL
