MODEL 1
REMARK VINA RESULT:     -10.4      0.000      0.000
REMARK  Name = 
REMARK  5 active torsions:
REMARK  status: ('A' for Active; 'I' for Inactive)
REMARK    1  A    between atoms: C_6  and  C_7
REMARK    2  A    between atoms: C_7  and  N_8
REMARK    3  A    between atoms: C_13  and  O_15
REMARK    4  A    between atoms: O_15  and  C_16
REMARK    5  A    between atoms: C_19  and  S_22
REMARK                            x       y       z     vdW  Elec       q    Type
REMARK                         _______ _______ _______ _____ _____    ______ ____
ROOT
ATOM      8  N   UNL     1      -3.041   2.923  25.463  0.00  0.00    -0.263 NA
ATOM      9  C   UNL     1      -3.676   3.403  25.678  0.00  0.00    +0.105 C 
ATOM     10  C   UNL     1      -4.442   3.409  25.372  0.00  0.00    +0.160 C 
ATOM     11  O   UNL     1      -4.762   2.936  24.776  0.00  0.00    -0.348 OA
ATOM     12  C   UNL     1      -4.395   2.341  24.340  0.00  0.00    +0.187 C 
ATOM     13  C   UNL     1      -3.617   2.071  24.390  0.00  0.00    +0.211 C 
ATOM     14  C   UNL     1      -3.014   2.330  24.890  0.00  0.00    +0.119 C 
ENDROOT
BRANCH   8   7
ATOM      7  C   UNL     1      -2.338   3.052  25.876  0.00  0.00    +0.107 C 
BRANCH   7   6
ATOM      1  C   UNL     1      -1.161   5.467  24.772  0.00  0.00    +0.059 C 
ATOM      2  C   UNL     1      -1.247   4.708  25.085  0.00  0.00    +0.088 A 
ATOM      3  N   UNL     1      -0.638   4.169  25.227  0.00  0.00    -0.247 NA
ATOM      4  C   UNL     1      -0.973   3.483  25.541  0.00  0.00    +0.063 A 
ATOM      5  C   UNL     1      -0.564   2.803  25.763  0.00  0.00    +0.052 C 
ATOM      6  C   UNL     1      -1.789   3.598  25.592  0.00  0.00    +0.038 A 
ATOM     26  S   UNL     1      -1.958   4.355  25.311  0.00  0.00    -0.074 S 
ENDBRANCH   7   6
ENDBRANCH   8   7
BRANCH  13  15
ATOM     15  O   UNL     1      -3.415   1.461  23.872  0.00  0.00    -0.475 OA
BRANCH  15  16
ATOM     16  C   UNL     1      -3.436   0.678  24.128  0.00  0.00    +0.139 A 
ATOM     17  C   UNL     1      -2.732   0.279  24.292  0.00  0.00    +0.038 A 
ATOM     18  C   UNL     1      -2.753  -0.505  24.549  0.00  0.00    +0.021 A 
ATOM     19  C   UNL     1      -3.477  -0.890  24.642  0.00  0.00    +0.106 A 
ATOM     20  C   UNL     1      -4.180  -0.490  24.478  0.00  0.00    +0.021 A 
ATOM     21  C   UNL     1      -4.159   0.293  24.222  0.00  0.00    +0.038 A 
BRANCH  19  22
ATOM     22  S   UNL     1      -3.498  -1.674  24.898  0.00  0.00    +0.010 S 
ATOM     23  C   UNL     1      -3.518  -2.458  25.155  0.00  0.00    +0.182 C 
ATOM     24  O   UNL     1      -3.531  -1.416  25.681  0.00  0.00    -0.169 OA
ATOM     25  O   UNL     1      -3.464  -1.931  24.115  0.00  0.00    -0.169 OA
ENDBRANCH  19  22
ENDBRANCH  15  16
ENDBRANCH  13  15
TORSDOF 5
ENDMDL
MODEL 2
REMARK VINA RESULT:      -9.9      1.927      3.510
REMARK  Name = 
REMARK  5 active torsions:
REMARK  status: ('A' for Active; 'I' for Inactive)
REMARK    1  A    between atoms: C_6  and  C_7
REMARK    2  A    between atoms: C_7  and  N_8
REMARK    3  A    between atoms: C_13  and  O_15
REMARK    4  A    between atoms: O_15  and  C_16
REMARK    5  A    between atoms: C_19  and  S_22
REMARK                            x       y       z     vdW  Elec       q    Type
REMARK                         _______ _______ _______ _____ _____    ______ ____
ROOT
ATOM      8  N   UNL     1      -1.401  -0.063  24.833  0.00  0.00    -0.263 NA
ATOM      9  C   UNL     1      -1.274  -0.578  25.464  0.00  0.00    +0.105 C 
ATOM     10  C   UNL     1      -1.830  -1.014  25.892  0.00  0.00    +0.160 C 
ATOM     11  O   UNL     1      -2.649  -1.041  25.792  0.00  0.00    -0.348 OA
ATOM     12  C   UNL     1      -3.113  -0.640  25.242  0.00  0.00    +0.187 C 
ATOM     13  C   UNL     1      -2.875  -0.112  24.655  0.00  0.00    +0.211 C 
ATOM     14  C   UNL     1      -2.113   0.145  24.472  0.00  0.00    +0.119 C 
ENDROOT
BRANCH   8   7
ATOM      7  C   UNL     1      -0.725   0.292  24.520  0.00  0.00    +0.107 C 
BRANCH   7   6
ATOM      1  C   UNL     1      -0.249   2.521  26.319  0.00  0.00    +0.059 C 
ATOM      2  C   UNL     1      -0.239   2.035  25.653  0.00  0.00    +0.088 A 
ATOM      3  N   UNL     1       0.144   2.197  24.940  0.00  0.00    -0.247 NA
ATOM      4  C   UNL     1       0.008   1.563  24.429  0.00  0.00    +0.063 A 
ATOM      5  C   UNL     1       0.290   1.495  23.657  0.00  0.00    +0.052 C 
ATOM      6  C   UNL     1      -0.458   1.010  24.826  0.00  0.00    +0.038 A 
ATOM     26  S   UNL     1      -0.611   1.302  25.582  0.00  0.00    -0.074 S 
ENDBRANCH   7   6
ENDBRANCH   8   7
BRANCH  13  15
ATOM     15  O   UNL     1      -3.479   0.200  24.187  0.00  0.00    -0.475 OA
BRANCH  15  16
ATOM     16  C   UNL     1      -3.930   0.833  24.464  0.00  0.00    +0.139 A 
ATOM     17  C   UNL     1      -4.528   0.702  25.018  0.00  0.00    +0.038 A 
ATOM     18  C   UNL     1      -4.979   1.334  25.295  0.00  0.00    +0.021 A 
ATOM     19  C   UNL     1      -4.833   2.098  25.018  0.00  0.00    +0.106 A 
ATOM     20  C   UNL     1      -4.235   2.228  24.465  0.00  0.00    +0.021 A 
ATOM     21  C   UNL     1      -3.784   1.596  24.188  0.00  0.00    +0.038 A 
BRANCH  19  22
ATOM     22  S   UNL     1      -5.284   2.731  25.296  0.00  0.00    +0.010 S 
ATOM     23  C   UNL     1      -5.736   3.363  25.573  0.00  0.00    +0.182 C 
ATOM     24  O   UNL     1      -5.963   2.383  24.983  0.00  0.00    -0.169 OA
ATOM     25  O   UNL     1      -4.604   3.079  25.608  0.00  0.00    -0.169 OA
ENDBRANCH  19  22
ENDBRANCH  15  16
ENDBRANCH  13  15
TORSDOF 5
ENDMDL
MODEL 3
REMARK VINA RESULT:      -9.9      1.741      2.651
REMARK  Name = 
REMARK  5 active torsions:
REMARK  status: ('A' for Active; 'I' for Inactive)
REMARK    1  A    between atoms: C_6  and  C_7
REMARK    2  A    between atoms: C_7  and  N_8
REMARK    3  A    between atoms: C_13  and  O_15
REMARK    4  A    between atoms: O_15  and  C_16
REMARK    5  A    between atoms: C_19  and  S_22
REMARK                            x       y       z     vdW  Elec       q    Type
REMARK                         _______ _______ _______ _____ _____    ______ ____
ROOT
ATOM      8  N   UNL     1      -1.178   2.012  25.112  0.00  0.00    -0.263 NA
ATOM      9  C   UNL     1      -0.653   2.139  24.490  0.00  0.00    +0.105 C 
ATOM     10  C   UNL     1      -0.196   1.586  24.082  0.00  0.00    +0.160 C 
ATOM     11  O   UNL     1      -0.153   0.770  24.197  0.00  0.00    -0.348 OA
ATOM     12  C   UNL     1      -0.555   0.306  24.747  0.00  0.00    +0.187 C 
ATOM     13  C   UNL     1      -1.100   0.543  25.319  0.00  0.00    +0.211 C 
ATOM     14  C   UNL     1      -1.378   1.302  25.482  0.00  0.00    +0.119 C 
ENDROOT
BRANCH   8   7
ATOM      7  C   UNL     1      -1.555   2.686  25.405  0.00  0.00    +0.107 C 
BRANCH   7   6
ATOM      1  C   UNL     1      -3.768   3.016  23.554  0.00  0.00    +0.059 C 
ATOM      2  C   UNL     1      -3.276   3.097  24.212  0.00  0.00    +0.088 A 
ATOM      3  N   UNL     1      -3.409   3.593  24.858  0.00  0.00    -0.247 NA
ATOM      4  C   UNL     1      -2.780   3.499  25.384  0.00  0.00    +0.063 A 
ATOM      5  C   UNL     1      -2.688   3.890  26.105  0.00  0.00    +0.052 C 
ATOM      6  C   UNL     1      -2.259   2.946  25.063  0.00  0.00    +0.038 A 
ATOM     26  S   UNL     1      -2.566   2.697  24.338  0.00  0.00    -0.074 S 
ENDBRANCH   7   6
ENDBRANCH   8   7
BRANCH  13  15
ATOM     15  O   UNL     1      -1.409  -0.060  25.791  0.00  0.00    -0.475 OA
BRANCH  15  16
ATOM     16  C   UNL     1      -1.936  -0.606  25.470  0.00  0.00    +0.139 A 
ATOM     17  C   UNL     1      -2.749  -0.487  25.543  0.00  0.00    +0.038 A 
ATOM     18  C   UNL     1      -3.277  -1.034  25.221  0.00  0.00    +0.021 A 
ATOM     19  C   UNL     1      -2.990  -1.701  24.828  0.00  0.00    +0.106 A 
ATOM     20  C   UNL     1      -2.178  -1.820  24.756  0.00  0.00    +0.021 A 
ATOM     21  C   UNL     1      -1.651  -1.273  25.077  0.00  0.00    +0.038 A 
BRANCH  19  22
ATOM     22  S   UNL     1      -3.518  -2.248  24.506  0.00  0.00    +0.010 S 
ATOM     23  C   UNL     1      -4.046  -2.795  24.185  0.00  0.00    +0.182 C 
ATOM     24  O   UNL     1      -3.390  -2.748  25.149  0.00  0.00    -0.169 OA
ATOM     25  O   UNL     1      -3.647  -1.746  23.864  0.00  0.00    -0.169 OA
ENDBRANCH  19  22
ENDBRANCH  15  16
ENDBRANCH  13  15
TORSDOF 5
ENDMDL
MODEL 4
REMARK VINA RESULT:      -9.8      2.165      3.863
REMARK  Name = 
REMARK  5 active torsions:
REMARK  status: ('A' for Active; 'I' for Inactive)
REMARK    1  A    between atoms: C_6  and  C_7
REMARK    2  A    between atoms: C_7  and  N_8
REMARK    3  A    between atoms: C_13  and  O_15
REMARK    4  A    between atoms: O_15  and  C_16
REMARK    5  A    between atoms: C_19  and  S_22
REMARK                            x       y       z     vdW  Elec       q    Type
REMARK                         _______ _______ _______ _____ _____    ______ ____
ROOT
ATOM      8  N   UNL     1      -0.489   1.965  24.778  0.00  0.00    -0.263 NA
ATOM      9  C   UNL     1      -0.112   2.064  25.504  0.00  0.00    +0.105 C 
ATOM     10  C   UNL     1      -0.303   2.585  26.115  0.00  0.00    +0.160 C 
ATOM     11  O   UNL     1      -0.918   3.135  26.149  0.00  0.00    -0.348 OA
ATOM     12  C   UNL     1      -1.492   3.299  25.582  0.00  0.00    +0.187 C 
ATOM     13  C   UNL     1      -1.595   2.955  24.839  0.00  0.00    +0.211 C 
ATOM     14  C   UNL     1      -1.149   2.361  24.481  0.00  0.00    +0.119 C 
ENDROOT
BRANCH   8   7
ATOM      7  C   UNL     1      -0.162   1.393  24.280  0.00  0.00    +0.107 C 
BRANCH   7   6
ATOM      1  C   UNL     1      -1.191  -1.066  25.432  0.00  0.00    +0.059 C 
ATOM      2  C   UNL     1      -0.804  -0.535  24.934  0.00  0.00    +0.088 A 
ATOM      3  N   UNL     1      -0.377  -0.731  24.255  0.00  0.00    -0.247 NA
ATOM      4  C   UNL     1      -0.084  -0.032  23.927  0.00  0.00    +0.063 A 
ATOM      5  C   UNL     1       0.374   0.029  23.244  0.00  0.00    +0.052 C 
ATOM      6  C   UNL     1      -0.330   0.595  24.404  0.00  0.00    +0.038 A 
ATOM     26  S   UNL     1      -0.775   0.284  25.025  0.00  0.00    -0.074 S 
ENDBRANCH   7   6
ENDBRANCH   8   7
BRANCH  13  15
ATOM     15  O   UNL     1      -2.229   3.242  24.395  0.00  0.00    -0.475 OA
BRANCH  15  16
ATOM     16  C   UNL     1      -2.996   2.986  24.557  0.00  0.00    +0.139 A 
ATOM     17  C   UNL     1      -3.403   3.289  25.208  0.00  0.00    +0.038 A 
ATOM     18  C   UNL     1      -4.171   3.032  25.370  0.00  0.00    +0.021 A 
ATOM     19  C   UNL     1      -4.531   2.473  24.880  0.00  0.00    +0.106 A 
ATOM     20  C   UNL     1      -4.123   2.172  24.230  0.00  0.00    +0.021 A 
ATOM     21  C   UNL     1      -3.357   2.428  24.068  0.00  0.00    +0.038 A 
BRANCH  19  22
ATOM     22  S   UNL     1      -5.298   2.217  25.042  0.00  0.00    +0.010 S 
ATOM     23  C   UNL     1      -6.066   1.961  25.205  0.00  0.00    +0.182 C 
ATOM     24  O   UNL     1      -5.538   2.999  25.143  0.00  0.00    -0.169 OA
ATOM     25  O   UNL     1      -5.058   1.434  24.942  0.00  0.00    -0.169 OA
ENDBRANCH  19  22
ENDBRANCH  15  16
ENDBRANCH  13  15
TORSDOF 5
ENDMDL
