MODEL 1
REMARK VINA RESULT:     -10.6      0.000      0.000
REMARK  Name = 
REMARK  6 active torsions:
REMARK  status: ('A' for Active; 'I' for Inactive)
REMARK    1  A    between atoms: O_2  and  C_3
REMARK    2  A    between atoms: C_6  and  C_9
REMARK    3  A    between atoms: C_16  and  C_17
REMARK    4  A    between atoms: N_19  and  C_20
REMARK    5  A    between atoms: N_29  and  C_30
REMARK    6  A    between atoms: C_33  and  C_36
REMARK                            x       y       z     vdW  Elec       q    Type
REMARK                         _______ _______ _______ _____ _____    ______ ____
ROOT
ATOM      9  C   UNL     1      -2.880   0.120  24.738  0.00  0.00    +0.249 C 
ATOM     10  O   UNL     1      -3.350   0.742  25.009  0.00  0.00    -0.270 OA
ATOM     11  N   UNL     1      -2.108   0.266  24.482  0.00  0.00    -0.266 N 
ATOM     12  C   UNL     1      -1.639  -0.356  24.211  0.00  0.00    +0.116 C 
ATOM     13  C   UNL     1      -0.869  -0.209  23.955  0.00  0.00    +0.117 C 
ATOM     14  N   UNL     1      -0.568   0.558  23.971  0.00  0.00    -0.259 N 
ATOM     15  C   UNL     1      -1.038   1.180  24.242  0.00  0.00    +0.124 C 
ATOM     16  C   UNL     1      -1.808   1.033  24.497  0.00  0.00    +0.174 C 
ATOM     27  C   UNL     1       0.203   0.705  23.715  0.00  0.00    +0.328 C 
ATOM     28  O   UNL     1       0.504   1.473  23.730  0.00  0.00    -0.250 OA
ATOM     29  N   UNL     1       0.672   0.083  23.444  0.00  0.00    -0.162 NA
ENDROOT
BRANCH   9   6
ATOM      3  C   UNL     1      -3.782  -2.185  24.691  0.00  0.00    +0.139 A 
ATOM      4  C   UNL     1      -3.336  -1.930  25.336  0.00  0.00    +0.037 A 
ATOM      5  C   UNL     1      -3.034  -1.161  25.352  0.00  0.00    +0.008 A 
ATOM      6  C   UNL     1      -3.181  -0.649  24.722  0.00  0.00    +0.054 A 
ATOM      7  C   UNL     1      -3.627  -0.903  24.077  0.00  0.00    +0.008 A 
ATOM      8  C   UNL     1      -3.929  -1.672  24.061  0.00  0.00    +0.037 A 
BRANCH   3   2
ATOM      1  C   UNL     1      -3.755  -3.515  24.167  0.00  0.00    +0.252 C 
ATOM      2  O   UNL     1      -4.083  -2.953  24.675  0.00  0.00    -0.471 OA
ENDBRANCH   3   2
ENDBRANCH   9   6
BRANCH  29  30
ATOM     30  C   UNL     1       1.443   0.230  23.188  0.00  0.00    +0.075 A 
ATOM     31  C   UNL     1       1.902   0.800  23.569  0.00  0.00    +0.017 A 
ATOM     32  C   UNL     1       2.673   0.947  23.313  0.00  0.00    +0.004 A 
ATOM     33  C   UNL     1       2.984   0.523  22.677  0.00  0.00    +0.035 A 
ATOM     34  C   UNL     1       2.524  -0.046  22.296  0.00  0.00    +0.004 A 
ATOM     35  C   UNL     1       1.754  -0.193  22.552  0.00  0.00    +0.017 A 
BRANCH  33  36
ATOM     36  C   UNL     1       3.754   0.670  22.422  0.00  0.00    +0.173 C 
ATOM     37  C   UNL     1       4.381   0.633  22.957  0.00  0.00    +0.077 C 
ATOM     38  O   UNL     1       3.899   0.854  21.630  0.00  0.00    -0.291 OA
ENDBRANCH  33  36
ENDBRANCH  29  30
BRANCH  16  17
ATOM     17  C   UNL     1      -2.278   1.656  24.769  0.00  0.00    +0.262 C 
ATOM     18  O   UNL     1      -2.595   1.631  25.531  0.00  0.00    -0.271 OA
ATOM     19  N   UNL     1      -2.431   2.301  24.279  0.00  0.00    -0.196 NA
BRANCH  19  20
ATOM     20  C   UNL     1      -2.901   2.923  24.551  0.00  0.00    +0.173 C 
ATOM     21  C   UNL     1      -2.803   3.207  25.319  0.00  0.00    +0.033 C 
ATOM     22  C   UNL     1      -3.272   3.828  25.592  0.00  0.00    +0.026 C 
ATOM     23  C   UNL     1      -3.839   4.165  25.096  0.00  0.00    +0.115 C 
ATOM     24  N   UNL     1      -3.937   3.880  24.328  0.00  0.00    -0.204 NA
ATOM     25  C   UNL     1      -3.467   3.259  24.056  0.00  0.00    +0.261 C 
ATOM     26  O   UNL     1      -3.565   2.975  23.288  0.00  0.00    -0.271 OA
ENDBRANCH  19  20
ENDBRANCH  16  17
TORSDOF 6
ENDMDL
MODEL 2
REMARK VINA RESULT:      -9.1      1.044      3.588
REMARK  Name = 
REMARK  6 active torsions:
REMARK  status: ('A' for Active; 'I' for Inactive)
REMARK    1  A    between atoms: O_2  and  C_3
REMARK    2  A    between atoms: C_6  and  C_9
REMARK    3  A    between atoms: C_16  and  C_17
REMARK    4  A    between atoms: N_19  and  C_20
REMARK    5  A    between atoms: N_29  and  C_30
REMARK    6  A    between atoms: C_33  and  C_36
REMARK                            x       y       z     vdW  Elec       q    Type
REMARK                         _______ _______ _______ _____ _____    ______ ____
ROOT
ATOM      9  C   UNL     1      -2.892   0.954  24.660  0.00  0.00    +0.249 C 
ATOM     10  O   UNL     1      -3.369   0.334  24.924  0.00  0.00    -0.270 OA
ATOM     11  N   UNL     1      -2.116   0.804  24.420  0.00  0.00    -0.266 N 
ATOM     12  C   UNL     1      -1.639   1.423  24.156  0.00  0.00    +0.116 C 
ATOM     13  C   UNL     1      -0.865   1.272  23.916  0.00  0.00    +0.117 C 
ATOM     14  N   UNL     1      -0.568   0.504  23.939  0.00  0.00    -0.259 N 
ATOM     15  C   UNL     1      -1.045  -0.115  24.202  0.00  0.00    +0.124 C 
ATOM     16  C   UNL     1      -1.819   0.035  24.443  0.00  0.00    +0.174 C 
ATOM     27  C   UNL     1       0.208   0.354  23.698  0.00  0.00    +0.328 C 
ATOM     28  O   UNL     1       0.505  -0.415  23.721  0.00  0.00    -0.250 OA
ATOM     29  N   UNL     1       0.684   0.973  23.435  0.00  0.00    -0.162 NA
ENDROOT
BRANCH   9   6
ATOM      3  C   UNL     1      -3.784   3.262  24.592  0.00  0.00    +0.139 A 
ATOM      4  C   UNL     1      -3.354   3.005  25.248  0.00  0.00    +0.037 A 
ATOM      5  C   UNL     1      -3.057   2.235  25.271  0.00  0.00    +0.008 A 
ATOM      6  C   UNL     1      -3.189   1.723  24.637  0.00  0.00    +0.054 A 
ATOM      7  C   UNL     1      -3.618   1.979  23.981  0.00  0.00    +0.008 A 
ATOM      8  C   UNL     1      -3.916   2.750  23.958  0.00  0.00    +0.037 A 
BRANCH   3   2
ATOM      1  C   UNL     1      -4.664   4.264  25.105  0.00  0.00    +0.252 C 
ATOM      2  O   UNL     1      -4.081   4.031  24.569  0.00  0.00    -0.471 OA
ENDBRANCH   3   2
ENDBRANCH   9   6
BRANCH  29  30
ATOM     30  C   UNL     1       1.460   0.823  23.194  0.00  0.00    +0.075 A 
ATOM     31  C   UNL     1       2.082   1.259  23.515  0.00  0.00    +0.017 A 
ATOM     32  C   UNL     1       2.858   1.108  23.274  0.00  0.00    +0.004 A 
ATOM     33  C   UNL     1       3.009   0.523  22.713  0.00  0.00    +0.035 A 
ATOM     34  C   UNL     1       2.386   0.088  22.393  0.00  0.00    +0.004 A 
ATOM     35  C   UNL     1       1.611   0.238  22.633  0.00  0.00    +0.017 A 
BRANCH  33  36
ATOM     36  C   UNL     1       3.784   0.373  22.473  0.00  0.00    +0.173 C 
ATOM     37  C   UNL     1       4.346   0.124  23.023  0.00  0.00    +0.077 C 
ATOM     38  O   UNL     1       3.997   0.473  21.682  0.00  0.00    -0.291 OA
ENDBRANCH  33  36
ENDBRANCH  29  30
BRANCH  16  17
ATOM     17  C   UNL     1      -2.297  -0.584  24.706  0.00  0.00    +0.262 C 
ATOM     18  O   UNL     1      -2.582  -0.585  25.481  0.00  0.00    -0.271 OA
ATOM     19  N   UNL     1      -2.489  -1.203  24.196  0.00  0.00    -0.196 NA
BRANCH  19  20
ATOM     20  C   UNL     1      -2.966  -1.822  24.460  0.00  0.00    +0.173 C 
ATOM     21  C   UNL     1      -2.814  -2.178  25.189  0.00  0.00    +0.033 C 
ATOM     22  C   UNL     1      -3.290  -2.796  25.454  0.00  0.00    +0.026 C 
ATOM     23  C   UNL     1      -3.919  -3.060  24.990  0.00  0.00    +0.115 C 
ATOM     24  N   UNL     1      -4.071  -2.704  24.261  0.00  0.00    -0.204 NA
ATOM     25  C   UNL     1      -3.595  -2.086  23.996  0.00  0.00    +0.261 C 
ATOM     26  O   UNL     1      -3.747  -1.731  23.268  0.00  0.00    -0.271 OA
ENDBRANCH  19  20
ENDBRANCH  16  17
TORSDOF 6
ENDMDL
MODEL 3
REMARK VINA RESULT:      -7.7      1.647      5.995
REMARK  Name = 
REMARK  6 active torsions:
REMARK  status: ('A' for Active; 'I' for Inactive)
REMARK    1  A    between atoms: O_2  and  C_3
REMARK    2  A    between atoms: C_6  and  C_9
REMARK    3  A    between atoms: C_16  and  C_17
REMARK    4  A    between atoms: N_19  and  C_20
REMARK    5  A    between atoms: N_29  and  C_30
REMARK    6  A    between atoms: C_33  and  C_36
REMARK                            x       y       z     vdW  Elec       q    Type
REMARK                         _______ _______ _______ _____ _____    ______ ____
ROOT
ATOM      9  C   UNL     1       0.173   2.415  24.260  0.00  0.00    +0.249 C 
ATOM     10  O   UNL     1       0.959   2.422  24.008  0.00  0.00    -0.270 OA
ATOM     11  N   UNL     1      -0.259   1.712  24.246  0.00  0.00    -0.266 N 
ATOM     12  C   UNL     1      -1.044   1.706  24.498  0.00  0.00    +0.116 C 
ATOM     13  C   UNL     1      -1.476   1.003  24.485  0.00  0.00    +0.117 C 
ATOM     14  N   UNL     1      -1.122   0.308  24.220  0.00  0.00    -0.259 N 
ATOM     15  C   UNL     1      -0.337   0.313  23.968  0.00  0.00    +0.124 C 
ATOM     16  C   UNL     1       0.094   1.016  23.982  0.00  0.00    +0.174 C 
ATOM     27  C   UNL     1      -1.554  -0.396  24.207  0.00  0.00    +0.328 C 
ATOM     28  O   UNL     1      -1.201  -1.092  23.942  0.00  0.00    -0.250 OA
ATOM     29  N   UNL     1      -2.340  -0.401  24.459  0.00  0.00    -0.162 NA
ENDROOT
BRANCH   9   6
ATOM      3  C   UNL     1      -0.888   4.505  25.055  0.00  0.00    +0.139 A 
ATOM      4  C   UNL     1      -0.806   4.367  24.246  0.00  0.00    +0.037 A 
ATOM      5  C   UNL     1      -0.451   3.670  23.980  0.00  0.00    +0.008 A 
ATOM      6  C   UNL     1      -0.181   3.112  24.525  0.00  0.00    +0.054 A 
ATOM      7  C   UNL     1      -0.264   3.250  25.334  0.00  0.00    +0.008 A 
ATOM      8  C   UNL     1      -0.618   3.947  25.600  0.00  0.00    +0.037 A 
BRANCH   3   2
ATOM      1  C   UNL     1      -2.064   5.281  25.302  0.00  0.00    +0.252 C 
ATOM      2  O   UNL     1      -1.242   5.202  25.320  0.00  0.00    -0.471 OA
ENDBRANCH   3   2
ENDBRANCH   9   6
BRANCH  29  30
ATOM     30  C   UNL     1      -2.772  -1.105  24.445  0.00  0.00    +0.075 A 
ATOM     31  C   UNL     1      -2.604  -1.702  24.990  0.00  0.00    +0.017 A 
ATOM     32  C   UNL     1      -3.036  -2.405  24.977  0.00  0.00    +0.004 A 
ATOM     33  C   UNL     1      -3.635  -2.511  24.419  0.00  0.00    +0.035 A 
ATOM     34  C   UNL     1      -3.802  -1.913  23.875  0.00  0.00    +0.004 A 
ATOM     35  C   UNL     1      -3.371  -1.211  23.888  0.00  0.00    +0.017 A 
BRANCH  33  36
ATOM     36  C   UNL     1      -4.066  -3.213  24.406  0.00  0.00    +0.173 C 
ATOM     37  C   UNL     1      -4.647  -3.331  23.832  0.00  0.00    +0.077 C 
ATOM     38  O   UNL     1      -3.917  -3.799  24.967  0.00  0.00    -0.291 OA
ENDBRANCH  33  36
ENDBRANCH  29  30
BRANCH  16  17
ATOM     17  C   UNL     1       0.881   1.022  23.730  0.00  0.00    +0.262 C 
ATOM     18  O   UNL     1       1.403   1.591  24.022  0.00  0.00    -0.271 OA
ATOM     19  N   UNL     1       1.144   0.461  23.186  0.00  0.00    -0.196 NA
BRANCH  19  20
ATOM     20  C   UNL     1       1.930   0.467  22.934  0.00  0.00    +0.173 C 
ATOM     21  C   UNL     1       2.509   0.821  23.403  0.00  0.00    +0.033 C 
ATOM     22  C   UNL     1       3.295   0.829  23.153  0.00  0.00    +0.026 C 
ATOM     23  C   UNL     1       3.501   0.482  22.434  0.00  0.00    +0.115 C 
ATOM     24  N   UNL     1       2.922   0.128  21.965  0.00  0.00    -0.204 NA
ATOM     25  C   UNL     1       2.136   0.121  22.216  0.00  0.00    +0.261 C 
ATOM     26  O   UNL     1       1.557  -0.233  21.747  0.00  0.00    -0.271 OA
ENDBRANCH  19  20
ENDBRANCH  16  17
TORSDOF 6
ENDMDL
