MODEL 1
REMARK VINA RESULT:     -13.2      0.000      0.000
REMARK  Name = 
REMARK  9 active torsions:
REMARK  status: ('A' for Active; 'I' for Inactive)
REMARK    1  A    between atoms: N_2  and  C_3
REMARK    2  A    between atoms: N_2  and  C_28
REMARK    3  A    between atoms: C_3  and  C_4
REMARK    4  A    between atoms: C_6  and  C_7
REMARK    5  A    between atoms: C_7  and  C_8
REMARK    6  A    between atoms: C_13  and  C_14
REMARK    7  A    between atoms: C_14  and  N_15
REMARK    8  A    between atoms: C_16  and  C_18
REMARK    9  A    between atoms: C_28  and  C_29
REMARK                            x       y       z     vdW  Elec       q    Type
REMARK                         _______ _______ _______ _____ _____    ______ ____
ROOT
ATOM      8  C   UNL     1      -0.884   3.033  25.763  0.00  0.00    +0.121 C 
ATOM      9  C   UNL     1      -0.396   3.603  25.419  0.00  0.00    +0.033 C 
ATOM     10  C   UNL     1      -0.718   4.313  25.149  0.00  0.00    +0.038 C 
ATOM     11  C   UNL     1      -1.528   4.453  25.221  0.00  0.00    +0.181 C 
ATOM     12  O   UNL     1      -1.850   5.162  24.951  0.00  0.00    -0.220 OA
ATOM     13  C   UNL     1      -2.016   3.883  25.565  0.00  0.00    +0.167 C 
ATOM     25  O   UNL     1      -1.693   3.174  25.835  0.00  0.00    -0.354 OA
ENDROOT
BRANCH   8   7
ATOM      7  C   UNL     1      -0.562   2.324  26.034  0.00  0.00    +0.079 C 
BRANCH   7   6
ATOM      4  C   UNL     1      -1.050   0.453  25.128  0.00  0.00    +0.170 A 
ATOM      5  C   UNL     1      -1.169   1.024  25.712  0.00  0.00    +0.055 A 
ATOM      6  C   UNL     1      -0.635   1.638  25.580  0.00  0.00    +0.103 A 
ATOM     26  N   UNL     1      -0.186   1.447  24.915  0.00  0.00    -0.082 NA
ATOM     27  O   UNL     1      -0.442   0.715  24.636  0.00  0.00    -0.357 OA
BRANCH   4   3
ATOM      3  C   UNL     1      -1.466  -0.255  25.051  0.00  0.00    +0.141 C 
BRANCH   3   2
ATOM      1  C   UNL     1      -2.309   0.063  23.941  0.00  0.00    +0.090 C 
ATOM      2  N   UNL     1      -2.211  -0.259  24.694  0.00  0.00    -0.261 NA
BRANCH   2  28
ATOM     28  C   UNL     1      -2.857  -0.586  25.091  0.00  0.00    +0.100 C 
BRANCH  28  29
ATOM     29  C   UNL     1      -3.248  -1.238  24.774  0.00  0.00    -0.006 A 
ATOM     30  C   UNL     1      -3.026  -2.001  24.996  0.00  0.00    -0.003 A 
ATOM     31  C   UNL     1      -3.418  -2.654  24.678  0.00  0.00    -0.000 A 
ATOM     32  C   UNL     1      -4.032  -2.544  24.139  0.00  0.00    -0.000 A 
ATOM     33  C   UNL     1      -4.255  -1.781  23.917  0.00  0.00    -0.000 A 
ATOM     34  C   UNL     1      -3.863  -1.129  24.234  0.00  0.00    -0.003 A 
ENDBRANCH  28  29
ENDBRANCH   2  28
ENDBRANCH   3   2
ENDBRANCH   4   3
ENDBRANCH   7   6
ENDBRANCH   8   7
BRANCH  13  14
ATOM     14  C   UNL     1      -2.825   4.023  25.638  0.00  0.00    +0.147 C 
BRANCH  14  15
ATOM     15  N   UNL     1      -3.365   3.426  25.454  0.00  0.00    -0.199 NA
ATOM     16  C   UNL     1      -4.175   3.562  25.539  0.00  0.00    +0.265 C 
ATOM     17  O   UNL     1      -4.444   4.293  25.808  0.00  0.00    -0.268 OA
BRANCH  16  18
ATOM     18  C   UNL     1      -4.714   2.965  25.355  0.00  0.00    +0.057 A 
ATOM     19  C   UNL     1      -4.762   2.676  24.584  0.00  0.00    +0.005 A 
ATOM     20  C   UNL     1      -5.302   2.079  24.401  0.00  0.00    +0.002 A 
ATOM     21  C   UNL     1      -5.792   1.771  24.989  0.00  0.00    +0.030 A 
ATOM     22  C   UNL     1      -5.744   2.060  25.760  0.00  0.00    +0.140 A 
ATOM     23  F   UNL     1      -6.234   1.752  26.348  0.00  0.00    -0.204 F 
ATOM     24  C   UNL     1      -5.204   2.657  25.944  0.00  0.00    +0.034 A 
ENDBRANCH  16  18
ENDBRANCH  14  15
ENDBRANCH  13  14
TORSDOF 9
ENDMDL
MODEL 2
REMARK VINA RESULT:     -12.4      1.557      3.466
REMARK  Name = 
REMARK  9 active torsions:
REMARK  status: ('A' for Active; 'I' for Inactive)
REMARK    1  A    between atoms: N_2  and  C_3
REMARK    2  A    between atoms: N_2  and  C_28
REMARK    3  A    between atoms: C_3  and  C_4
REMARK    4  A    between atoms: C_6  and  C_7
REMARK    5  A    between atoms: C_7  and  C_8
REMARK    6  A    between atoms: C_13  and  C_14
REMARK    7  A    between atoms: C_14  and  N_15
REMARK    8  A    between atoms: C_16  and  C_18
REMARK    9  A    between atoms: C_28  and  C_29
REMARK                            x       y       z     vdW  Elec       q    Type
REMARK                         _______ _______ _______ _____ _____    ______ ____
ROOT
ATOM      8  C   UNL     1      -2.836   3.915  25.565  0.00  0.00    +0.121 C 
ATOM      9  C   UNL     1      -2.738   4.702  25.338  0.00  0.00    +0.033 C 
ATOM     10  C   UNL     1      -1.986   4.987  25.152  0.00  0.00    +0.038 C 
ATOM     11  C   UNL     1      -1.333   4.485  25.193  0.00  0.00    +0.181 C 
ATOM     12  O   UNL     1      -0.581   4.769  25.008  0.00  0.00    -0.220 OA
ATOM     13  C   UNL     1      -1.431   3.698  25.421  0.00  0.00    +0.167 C 
ATOM     25  O   UNL     1      -2.183   3.414  25.607  0.00  0.00    -0.354 OA
ENDROOT
BRANCH   8   7
ATOM      7  C   UNL     1      -3.588   3.631  25.751  0.00  0.00    +0.079 C 
BRANCH   7   6
ATOM      4  C   UNL     1      -4.462   1.944  24.777  0.00  0.00    +0.170 A 
ATOM      5  C   UNL     1      -4.077   2.284  25.423  0.00  0.00    +0.055 A 
ATOM      6  C   UNL     1      -3.955   3.082  25.256  0.00  0.00    +0.103 A 
ATOM     26  N   UNL     1      -4.265   3.236  24.507  0.00  0.00    -0.082 NA
ATOM     27  O   UNL     1      -4.578   2.533  24.211  0.00  0.00    -0.357 OA
BRANCH   4   3
ATOM      3  C   UNL     1      -4.691   1.155  24.709  0.00  0.00    +0.141 C 
BRANCH   3   2
ATOM      1  C   UNL     1      -3.715   0.599  23.825  0.00  0.00    +0.090 C 
ATOM      2  N   UNL     1      -4.128   0.575  24.539  0.00  0.00    -0.261 NA
BRANCH   2  28
ATOM     28  C   UNL     1      -3.980  -0.028  25.082  0.00  0.00    +0.100 C 
BRANCH  28  29
ATOM     29  C   UNL     1      -3.942  -0.812  24.828  0.00  0.00    -0.006 A 
ATOM     30  C   UNL     1      -3.578  -1.381  25.301  0.00  0.00    -0.003 A 
ATOM     31  C   UNL     1      -3.540  -2.166  25.047  0.00  0.00    -0.000 A 
ATOM     32  C   UNL     1      -3.866  -2.380  24.320  0.00  0.00    -0.000 A 
ATOM     33  C   UNL     1      -4.229  -1.810  23.847  0.00  0.00    -0.000 A 
ATOM     34  C   UNL     1      -4.267  -1.026  24.101  0.00  0.00    -0.003 A 
ENDBRANCH  28  29
ENDBRANCH   2  28
ENDBRANCH   3   2
ENDBRANCH   4   3
ENDBRANCH   7   6
ENDBRANCH   8   7
BRANCH  13  14
ATOM     14  C   UNL     1      -0.779   3.196  25.462  0.00  0.00    +0.147 C 
BRANCH  14  15
ATOM     15  N   UNL     1      -0.792   2.468  25.073  0.00  0.00    -0.199 NA
ATOM     16  C   UNL     1      -0.171   1.934  25.175  0.00  0.00    +0.265 C 
ATOM     17  O   UNL     1       0.463   2.128  25.665  0.00  0.00    -0.268 OA
BRANCH  16  18
ATOM     18  C   UNL     1      -0.186   1.207  24.786  0.00  0.00    +0.057 A 
ATOM     19  C   UNL     1      -0.042   1.169  23.975  0.00  0.00    +0.005 A 
ATOM     20  C   UNL     1      -0.057   0.441  23.586  0.00  0.00    +0.002 A 
ATOM     21  C   UNL     1      -0.215  -0.249  24.009  0.00  0.00    +0.030 A 
ATOM     22  C   UNL     1      -0.359  -0.211  24.820  0.00  0.00    +0.140 A 
ATOM     23  F   UNL     1      -0.517  -0.902  25.244  0.00  0.00    -0.204 F 
ATOM     24  C   UNL     1      -0.344   0.516  25.209  0.00  0.00    +0.034 A 
ENDBRANCH  16  18
ENDBRANCH  14  15
ENDBRANCH  13  14
TORSDOF 9
ENDMDL
MODEL 3
REMARK VINA RESULT:     -12.2      1.336      4.068
REMARK  Name = 
REMARK  9 active torsions:
REMARK  status: ('A' for Active; 'I' for Inactive)
REMARK    1  A    between atoms: N_2  and  C_3
REMARK    2  A    between atoms: N_2  and  C_28
REMARK    3  A    between atoms: C_3  and  C_4
REMARK    4  A    between atoms: C_6  and  C_7
REMARK    5  A    between atoms: C_7  and  C_8
REMARK    6  A    between atoms: C_13  and  C_14
REMARK    7  A    between atoms: C_14  and  N_15
REMARK    8  A    between atoms: C_16  and  C_18
REMARK    9  A    between atoms: C_28  and  C_29
REMARK                            x       y       z     vdW  Elec       q    Type
REMARK                         _______ _______ _______ _____ _____    ______ ____
ROOT
ATOM      8  C   UNL     1      -0.105   2.020  25.066  0.00  0.00    +0.121 C 
ATOM      9  C   UNL     1       0.397   2.218  24.441  0.00  0.00    +0.033 C 
ATOM     10  C   UNL     1       0.591   1.653  23.873  0.00  0.00    +0.038 C 
ATOM     11  C   UNL     1       0.285   0.889  23.928  0.00  0.00    +0.181 C 
ATOM     12  O   UNL     1       0.479   0.324  23.360  0.00  0.00    -0.220 OA
ATOM     13  C   UNL     1      -0.217   0.691  24.553  0.00  0.00    +0.167 C 
ATOM     25  O   UNL     1      -0.412   1.256  25.121  0.00  0.00    -0.354 OA
ENDROOT
BRANCH   8   7
ATOM      7  C   UNL     1      -0.300   2.585  25.634  0.00  0.00    +0.079 C 
BRANCH   7   6
ATOM      4  C   UNL     1      -2.181   3.587  25.508  0.00  0.00    +0.170 A 
ATOM      5  C   UNL     1      -1.723   2.940  25.738  0.00  0.00    +0.055 A 
ATOM      6  C   UNL     1      -0.944   3.087  25.512  0.00  0.00    +0.103 A 
ATOM     26  N   UNL     1      -0.921   3.825  25.142  0.00  0.00    -0.082 NA
ATOM     27  O   UNL     1      -1.685   4.133  25.140  0.00  0.00    -0.357 OA
BRANCH   4   3
ATOM      3  C   UNL     1      -2.993   3.672  25.626  0.00  0.00    +0.141 C 
BRANCH   3   2
ATOM      1  C   UNL     1      -3.780   3.854  24.447  0.00  0.00    +0.090 C 
ATOM      2  N   UNL     1      -3.525   3.375  25.069  0.00  0.00    -0.261 NA
BRANCH   2  28
ATOM     28  C   UNL     1      -3.801   2.600  25.133  0.00  0.00    +0.100 C 
BRANCH  28  29
ATOM     29  C   UNL     1      -4.610   2.455  25.202  0.00  0.00    -0.006 A 
ATOM     30  C   UNL     1      -5.010   2.058  24.599  0.00  0.00    -0.003 A 
ATOM     31  C   UNL     1      -5.820   1.913  24.668  0.00  0.00    -0.000 A 
ATOM     32  C   UNL     1      -6.228   2.165  25.339  0.00  0.00    -0.000 A 
ATOM     33  C   UNL     1      -5.828   2.561  25.941  0.00  0.00    -0.000 A 
ATOM     34  C   UNL     1      -5.019   2.706  25.873  0.00  0.00    -0.003 A 
ENDBRANCH  28  29
ENDBRANCH   2  28
ENDBRANCH   3   2
ENDBRANCH   4   3
ENDBRANCH   7   6
ENDBRANCH   8   7
BRANCH  13  14
ATOM     14  C   UNL     1      -0.524  -0.072  24.608  0.00  0.00    +0.147 C 
BRANCH  14  15
ATOM     15  N   UNL     1      -1.336  -0.185  24.701  0.00  0.00    -0.199 NA
ATOM     16  C   UNL     1      -1.634  -0.940  24.853  0.00  0.00    +0.265 C 
ATOM     17  O   UNL     1      -1.119  -1.581  24.911  0.00  0.00    -0.268 OA
BRANCH  16  18
ATOM     18  C   UNL     1      -2.446  -1.052  24.945  0.00  0.00    +0.057 A 
ATOM     19  C   UNL     1      -2.784  -1.016  25.697  0.00  0.00    +0.005 A 
ATOM     20  C   UNL     1      -3.597  -1.128  25.788  0.00  0.00    +0.002 A 
ATOM     21  C   UNL     1      -4.070  -1.275  25.129  0.00  0.00    +0.030 A 
ATOM     22  C   UNL     1      -3.731  -1.311  24.378  0.00  0.00    +0.140 A 
ATOM     23  F   UNL     1      -4.205  -1.459  23.718  0.00  0.00    -0.204 F 
ATOM     24  C   UNL     1      -2.919  -1.200  24.286  0.00  0.00    +0.034 A 
ENDBRANCH  16  18
ENDBRANCH  14  15
ENDBRANCH  13  14
TORSDOF 9
ENDMDL
MODEL 4
REMARK VINA RESULT:     -12.1      1.651      4.444
REMARK  Name = 
REMARK  9 active torsions:
REMARK  status: ('A' for Active; 'I' for Inactive)
REMARK    1  A    between atoms: N_2  and  C_3
REMARK    2  A    between atoms: N_2  and  C_28
REMARK    3  A    between atoms: C_3  and  C_4
REMARK    4  A    between atoms: C_6  and  C_7
REMARK    5  A    between atoms: C_7  and  C_8
REMARK    6  A    between atoms: C_13  and  C_14
REMARK    7  A    between atoms: C_14  and  N_15
REMARK    8  A    between atoms: C_16  and  C_18
REMARK    9  A    between atoms: C_28  and  C_29
REMARK                            x       y       z     vdW  Elec       q    Type
REMARK                         _______ _______ _______ _____ _____    ______ ____
ROOT
ATOM      8  C   UNL     1      -2.309  -0.992  25.226  0.00  0.00    +0.121 C 
ATOM      9  C   UNL     1      -2.308  -1.704  24.807  0.00  0.00    +0.033 C 
ATOM     10  C   UNL     1      -2.988  -1.951  24.413  0.00  0.00    +0.038 C 
ATOM     11  C   UNL     1      -3.671  -1.488  24.436  0.00  0.00    +0.181 C 
ATOM     12  O   UNL     1      -4.351  -1.735  24.041  0.00  0.00    -0.220 OA
ATOM     13  C   UNL     1      -3.672  -0.777  24.855  0.00  0.00    +0.167 C 
ATOM     25  O   UNL     1      -2.991  -0.530  25.250  0.00  0.00    -0.354 OA
ENDROOT
BRANCH   8   7
ATOM      7  C   UNL     1      -1.628  -0.745  25.621  0.00  0.00    +0.079 C 
BRANCH   7   6
ATOM      4  C   UNL     1      -0.515   0.983  25.044  0.00  0.00    +0.170 A 
ATOM      5  C   UNL     1      -1.056   0.606  25.542  0.00  0.00    +0.055 A 
ATOM      6  C   UNL     1      -1.141  -0.172  25.282  0.00  0.00    +0.103 A 
ATOM     26  N   UNL     1      -0.653  -0.276  24.625  0.00  0.00    -0.082 NA
ATOM     27  O   UNL     1      -0.267   0.437  24.478  0.00  0.00    -0.357 OA
BRANCH   4   3
ATOM      3  C   UNL     1      -0.267   1.767  25.104  0.00  0.00    +0.141 C 
BRANCH   3   2
ATOM      1  C   UNL     1      -1.114   2.446  24.174  0.00  0.00    +0.090 C 
ATOM      2  N   UNL     1      -0.792   2.381  24.930  0.00  0.00    -0.261 NA
BRANCH   2  28
ATOM     28  C   UNL     1      -0.993   2.929  25.514  0.00  0.00    +0.100 C 
BRANCH  28  29
ATOM     29  C   UNL     1      -1.060   3.728  25.323  0.00  0.00    -0.006 A 
ATOM     30  C   UNL     1      -0.481   4.092  24.862  0.00  0.00    -0.003 A 
ATOM     31  C   UNL     1      -0.548   4.892  24.670  0.00  0.00    -0.000 A 
ATOM     32  C   UNL     1      -1.195   5.327  24.940  0.00  0.00    -0.000 A 
ATOM     33  C   UNL     1      -1.774   4.963  25.401  0.00  0.00    -0.000 A 
ATOM     34  C   UNL     1      -1.707   4.164  25.592  0.00  0.00    -0.003 A 
ENDBRANCH  28  29
ENDBRANCH   2  28
ENDBRANCH   3   2
ENDBRANCH   4   3
ENDBRANCH   7   6
ENDBRANCH   8   7
BRANCH  13  14
ATOM     14  C   UNL     1      -4.354  -0.314  24.879  0.00  0.00    +0.147 C 
BRANCH  14  15
ATOM     15  N   UNL     1      -4.295   0.509  24.850  0.00  0.00    -0.199 NA
ATOM     16  C   UNL     1      -4.969   0.974  24.953  0.00  0.00    +0.265 C 
ATOM     17  O   UNL     1      -5.700   0.618  25.086  0.00  0.00    -0.268 OA
BRANCH  16  18
ATOM     18  C   UNL     1      -4.910   1.797  24.924  0.00  0.00    +0.057 A 
ATOM     19  C   UNL     1      -5.154   2.251  25.568  0.00  0.00    +0.005 A 
ATOM     20  C   UNL     1      -5.094   3.074  25.538  0.00  0.00    +0.002 A 
ATOM     21  C   UNL     1      -4.790   3.441  24.865  0.00  0.00    +0.030 A 
ATOM     22  C   UNL     1      -4.546   2.987  24.222  0.00  0.00    +0.140 A 
ATOM     23  F   UNL     1      -4.243   3.354  23.548  0.00  0.00    -0.204 F 
ATOM     24  C   UNL     1      -4.606   2.164  24.251  0.00  0.00    +0.034 A 
ENDBRANCH  16  18
ENDBRANCH  14  15
ENDBRANCH  13  14
TORSDOF 9
ENDMDL
MODEL 5
REMARK VINA RESULT:     -11.3      1.734      3.843
REMARK  Name = 
REMARK  9 active torsions:
REMARK  status: ('A' for Active; 'I' for Inactive)
REMARK    1  A    between atoms: N_2  and  C_3
REMARK    2  A    between atoms: N_2  and  C_28
REMARK    3  A    between atoms: C_3  and  C_4
REMARK    4  A    between atoms: C_6  and  C_7
REMARK    5  A    between atoms: C_7  and  C_8
REMARK    6  A    between atoms: C_13  and  C_14
REMARK    7  A    between atoms: C_14  and  N_15
REMARK    8  A    between atoms: C_16  and  C_18
REMARK    9  A    between atoms: C_28  and  C_29
REMARK                            x       y       z     vdW  Elec       q    Type
REMARK                         _______ _______ _______ _____ _____    ______ ____
ROOT
ATOM      8  C   UNL     1      -0.537  -0.519  24.752  0.00  0.00    +0.121 C 
ATOM      9  C   UNL     1      -0.257  -0.719  24.002  0.00  0.00    +0.033 C 
ATOM     10  C   UNL     1       0.175  -0.171  23.563  0.00  0.00    +0.038 C 
ATOM     11  C   UNL     1       0.327   0.578  23.872  0.00  0.00    +0.181 C 
ATOM     12  O   UNL     1       0.759   1.127  23.433  0.00  0.00    -0.220 OA
ATOM     13  C   UNL     1       0.047   0.779  24.622  0.00  0.00    +0.167 C 
ATOM     25  O   UNL     1      -0.385   0.230  25.061  0.00  0.00    -0.354 OA
ENDROOT
BRANCH   8   7
ATOM      7  C   UNL     1      -0.969  -1.067  25.191  0.00  0.00    +0.079 C 
BRANCH   7   6
ATOM      4  C   UNL     1      -3.096  -0.888  25.168  0.00  0.00    +0.170 A 
ATOM      5  C   UNL     1      -2.353  -0.626  25.414  0.00  0.00    +0.055 A 
ATOM      6  C   UNL     1      -1.786  -1.127  25.088  0.00  0.00    +0.103 A 
ATOM     26  N   UNL     1      -2.177  -1.698  24.640  0.00  0.00    -0.082 NA
ATOM     27  O   UNL     1      -2.987  -1.550  24.690  0.00  0.00    -0.357 OA
BRANCH   4   3
ATOM      3  C   UNL     1      -3.821  -0.546  25.366  0.00  0.00    +0.141 C 
BRANCH   3   2
ATOM      1  C   UNL     1      -4.682  -0.232  24.270  0.00  0.00    +0.090 C 
ATOM      2  N   UNL     1      -4.165   0.012  24.865  0.00  0.00    -0.261 NA
BRANCH   2  28
ATOM     28  C   UNL     1      -3.992   0.813  24.958  0.00  0.00    +0.100 C 
BRANCH  28  29
ATOM     29  C   UNL     1      -4.603   1.362  25.028  0.00  0.00    -0.006 A 
ATOM     30  C   UNL     1      -5.129   1.314  25.662  0.00  0.00    -0.003 A 
ATOM     31  C   UNL     1      -5.742   1.863  25.732  0.00  0.00    -0.000 A 
ATOM     32  C   UNL     1      -5.827   2.459  25.168  0.00  0.00    -0.000 A 
ATOM     33  C   UNL     1      -5.301   2.507  24.534  0.00  0.00    -0.000 A 
ATOM     34  C   UNL     1      -4.690   1.958  24.464  0.00  0.00    -0.003 A 
ENDBRANCH  28  29
ENDBRANCH   2  28
ENDBRANCH   3   2
ENDBRANCH   4   3
ENDBRANCH   7   6
ENDBRANCH   8   7
BRANCH  13  14
ATOM     14  C   UNL     1       0.198   1.528  24.932  0.00  0.00    +0.147 C 
BRANCH  14  15
ATOM     15  N   UNL     1      -0.399   2.098  24.945  0.00  0.00    -0.199 NA
ATOM     16  C   UNL     1      -0.335   2.751  25.446  0.00  0.00    +0.265 C 
ATOM     17  O   UNL     1       0.325   2.834  25.932  0.00  0.00    -0.268 OA
BRANCH  16  18
ATOM     18  C   UNL     1      -0.932   3.320  25.458  0.00  0.00    +0.057 A 
ATOM     19  C   UNL     1      -0.925   3.937  24.912  0.00  0.00    +0.005 A 
ATOM     20  C   UNL     1      -1.523   4.507  24.925  0.00  0.00    +0.002 A 
ATOM     21  C   UNL     1      -2.126   4.458  25.485  0.00  0.00    +0.030 A 
ATOM     22  C   UNL     1      -2.133   3.840  26.032  0.00  0.00    +0.140 A 
ATOM     23  F   UNL     1      -2.737   3.792  26.592  0.00  0.00    -0.204 F 
ATOM     24  C   UNL     1      -1.536   3.271  26.019  0.00  0.00    +0.034 A 
ENDBRANCH  16  18
ENDBRANCH  14  15
ENDBRANCH  13  14
TORSDOF 9
ENDMDL
MODEL 6
REMARK VINA RESULT:     -11.3      2.009      5.082
REMARK  Name = 
REMARK  9 active torsions:
REMARK  status: ('A' for Active; 'I' for Inactive)
REMARK    1  A    between atoms: N_2  and  C_3
REMARK    2  A    between atoms: N_2  and  C_28
REMARK    3  A    between atoms: C_3  and  C_4
REMARK    4  A    between atoms: C_6  and  C_7
REMARK    5  A    between atoms: C_7  and  C_8
REMARK    6  A    between atoms: C_13  and  C_14
REMARK    7  A    between atoms: C_14  and  N_15
REMARK    8  A    between atoms: C_16  and  C_18
REMARK    9  A    between atoms: C_28  and  C_29
REMARK                            x       y       z     vdW  Elec       q    Type
REMARK                         _______ _______ _______ _____ _____    ______ ____
ROOT
ATOM      8  C   UNL     1      -2.384  -1.597  24.527  0.00  0.00    +0.121 C 
ATOM      9  C   UNL     1      -2.124  -2.262  24.941  0.00  0.00    +0.033 C 
ATOM     10  C   UNL     1      -1.338  -2.313  25.187  0.00  0.00    +0.038 C 
ATOM     11  C   UNL     1      -0.812  -1.701  25.019  0.00  0.00    +0.181 C 
ATOM     12  O   UNL     1      -0.026  -1.752  25.265  0.00  0.00    -0.220 OA
ATOM     13  C   UNL     1      -1.072  -1.036  24.605  0.00  0.00    +0.167 C 
ATOM     25  O   UNL     1      -1.857  -0.985  24.359  0.00  0.00    -0.354 OA
ENDROOT
BRANCH   8   7
ATOM      7  C   UNL     1      -3.169  -1.546  24.281  0.00  0.00    +0.079 C 
BRANCH   7   6
ATOM      4  C   UNL     1      -4.420   0.128  24.719  0.00  0.00    +0.170 A 
ATOM      5  C   UNL     1      -3.950  -0.303  24.195  0.00  0.00    +0.055 A 
ATOM      6  C   UNL     1      -3.663  -0.964  24.596  0.00  0.00    +0.103 A 
ATOM     26  N   UNL     1      -3.955  -0.941  25.368  0.00  0.00    -0.082 NA
ATOM     27  O   UNL     1      -4.422  -0.266  25.443  0.00  0.00    -0.357 OA
BRANCH   4   3
ATOM      3  C   UNL     1      -4.817   0.831  24.548  0.00  0.00    +0.141 C 
BRANCH   3   2
ATOM      1  C   UNL     1      -5.395   1.673  25.547  0.00  0.00    +0.090 C 
ATOM      2  N   UNL     1      -4.758   1.474  25.062  0.00  0.00    -0.261 NA
BRANCH   2  28
ATOM     28  C   UNL     1      -4.063   1.917  25.090  0.00  0.00    +0.100 C 
BRANCH  28  29
ATOM     29  C   UNL     1      -4.085   2.728  24.943  0.00  0.00    -0.006 A 
ATOM     30  C   UNL     1      -4.158   3.259  25.571  0.00  0.00    -0.003 A 
ATOM     31  C   UNL     1      -4.180   4.071  25.424  0.00  0.00    -0.000 A 
ATOM     32  C   UNL     1      -4.129   4.351  24.650  0.00  0.00    -0.000 A 
ATOM     33  C   UNL     1      -4.057   3.820  24.022  0.00  0.00    -0.000 A 
ATOM     34  C   UNL     1      -4.035   3.010  24.169  0.00  0.00    -0.003 A 
ENDBRANCH  28  29
ENDBRANCH   2  28
ENDBRANCH   3   2
ENDBRANCH   4   3
ENDBRANCH   7   6
ENDBRANCH   8   7
BRANCH  13  14
ATOM     14  C   UNL     1      -0.546  -0.424  24.437  0.00  0.00    +0.147 C 
BRANCH  14  15
ATOM     15  N   UNL     1      -0.650   0.317  24.787  0.00  0.00    -0.199 NA
ATOM     16  C   UNL     1      -0.225   0.968  24.509  0.00  0.00    +0.265 C 
ATOM     17  O   UNL     1       0.303   0.878  23.882  0.00  0.00    -0.268 OA
BRANCH  16  18
ATOM     18  C   UNL     1      -0.328   1.707  24.860  0.00  0.00    +0.057 A 
ATOM     19  C   UNL     1      -0.371   1.772  25.681  0.00  0.00    +0.005 A 
ATOM     20  C   UNL     1      -0.475   2.512  26.031  0.00  0.00    +0.002 A 
ATOM     21  C   UNL     1      -0.536   3.186  25.560  0.00  0.00    +0.030 A 
ATOM     22  C   UNL     1      -0.493   3.122  24.739  0.00  0.00    +0.140 A 
ATOM     23  F   UNL     1      -0.554   3.796  24.268  0.00  0.00    -0.204 F 
ATOM     24  C   UNL     1      -0.389   2.382  24.389  0.00  0.00    +0.034 A 
ENDBRANCH  16  18
ENDBRANCH  14  15
ENDBRANCH  13  14
TORSDOF 9
ENDMDL
MODEL 7
REMARK VINA RESULT:     -11.0      1.794      3.773
REMARK  Name = 
REMARK  9 active torsions:
REMARK  status: ('A' for Active; 'I' for Inactive)
REMARK    1  A    between atoms: N_2  and  C_3
REMARK    2  A    between atoms: N_2  and  C_28
REMARK    3  A    between atoms: C_3  and  C_4
REMARK    4  A    between atoms: C_6  and  C_7
REMARK    5  A    between atoms: C_7  and  C_8
REMARK    6  A    between atoms: C_13  and  C_14
REMARK    7  A    between atoms: C_14  and  N_15
REMARK    8  A    between atoms: C_16  and  C_18
REMARK    9  A    between atoms: C_28  and  C_29
REMARK                            x       y       z     vdW  Elec       q    Type
REMARK                         _______ _______ _______ _____ _____    ______ ____
ROOT
ATOM      8  C   UNL     1      -4.868   2.582  24.888  0.00  0.00    +0.121 C 
ATOM      9  C   UNL     1      -5.413   2.960  25.379  0.00  0.00    +0.033 C 
ATOM     10  C   UNL     1      -5.192   3.636  25.796  0.00  0.00    +0.038 C 
ATOM     11  C   UNL     1      -4.427   3.935  25.724  0.00  0.00    +0.181 C 
ATOM     12  O   UNL     1      -4.206   4.611  26.141  0.00  0.00    -0.220 OA
ATOM     13  C   UNL     1      -3.882   3.557  25.233  0.00  0.00    +0.167 C 
ATOM     25  O   UNL     1      -4.103   2.881  24.815  0.00  0.00    -0.354 OA
ENDROOT
BRANCH   8   7
ATOM      7  C   UNL     1      -5.089   1.906  24.470  0.00  0.00    +0.079 C 
BRANCH   7   6
ATOM      4  C   UNL     1      -4.208  -0.009  24.811  0.00  0.00    +0.170 A 
ATOM      5  C   UNL     1      -4.282   0.682  24.365  0.00  0.00    +0.055 A 
ATOM      6  C   UNL     1      -4.843   1.162  24.731  0.00  0.00    +0.103 A 
ATOM     26  N   UNL     1      -5.117   0.768  25.402  0.00  0.00    -0.082 NA
ATOM     27  O   UNL     1      -4.724   0.045  25.452  0.00  0.00    -0.357 OA
BRANCH   4   3
ATOM      3  C   UNL     1      -3.706  -0.642  24.644  0.00  0.00    +0.141 C 
BRANCH   3   2
ATOM      1  C   UNL     1      -3.284  -1.526  25.685  0.00  0.00    +0.090 C 
ATOM      2  N   UNL     1      -3.139  -0.877  25.197  0.00  0.00    -0.261 NA
BRANCH   2  28
ATOM     28  C   UNL     1      -2.429  -0.461  25.262  0.00  0.00    +0.100 C 
BRANCH  28  29
ATOM     29  C   UNL     1      -1.712  -0.852  25.154  0.00  0.00    -0.006 A 
ATOM     30  C   UNL     1      -1.283  -1.115  25.808  0.00  0.00    -0.003 A 
ATOM     31  C   UNL     1      -0.564  -1.507  25.700  0.00  0.00    -0.000 A 
ATOM     32  C   UNL     1      -0.276  -1.635  24.938  0.00  0.00    -0.000 A 
ATOM     33  C   UNL     1      -0.705  -1.373  24.284  0.00  0.00    -0.000 A 
ATOM     34  C   UNL     1      -1.422  -0.982  24.392  0.00  0.00    -0.003 A 
ENDBRANCH  28  29
ENDBRANCH   2  28
ENDBRANCH   3   2
ENDBRANCH   4   3
ENDBRANCH   7   6
ENDBRANCH   8   7
BRANCH  13  14
ATOM     14  C   UNL     1      -3.117   3.855  25.160  0.00  0.00    +0.147 C 
BRANCH  14  15
ATOM     15  N   UNL     1      -2.467   3.359  25.276  0.00  0.00    -0.199 NA
ATOM     16  C   UNL     1      -1.702   3.646  25.159  0.00  0.00    +0.265 C 
ATOM     17  O   UNL     1      -1.587   4.428  24.926  0.00  0.00    -0.268 OA
BRANCH  16  18
ATOM     18  C   UNL     1      -1.054   3.149  25.275  0.00  0.00    +0.057 A 
ATOM     19  C   UNL     1      -0.812   2.959  26.040  0.00  0.00    +0.005 A 
ATOM     20  C   UNL     1      -0.163   2.462  26.156  0.00  0.00    +0.002 A 
ATOM     21  C   UNL     1       0.243   2.156  25.506  0.00  0.00    +0.030 A 
ATOM     22  C   UNL     1       0.001   2.346  24.741  0.00  0.00    +0.140 A 
ATOM     23  F   UNL     1       0.407   2.040  24.091  0.00  0.00    -0.204 F 
ATOM     24  C   UNL     1      -0.647   2.843  24.625  0.00  0.00    +0.034 A 
ENDBRANCH  16  18
ENDBRANCH  14  15
ENDBRANCH  13  14
TORSDOF 9
ENDMDL
