MODEL 1
REMARK VINA RESULT:     -10.4      0.000      0.000
REMARK  Name = 
REMARK  7 active torsions:
REMARK  status: ('A' for Active; 'I' for Inactive)
REMARK    1  A    between atoms: O_2  and  C_3
REMARK    2  A    between atoms: C_3  and  C_4
REMARK    3  A    between atoms: C_4  and  N_5
REMARK    4  A    between atoms: N_5  and  C_6
REMARK    5  A    between atoms: C_7  and  C_12
REMARK    6  A    between atoms: C_15  and  C_17
REMARK    7  A    between atoms: N_21  and  C_22
REMARK                            x       y       z     vdW  Elec       q    Type
REMARK                         _______ _______ _______ _____ _____    ______ ____
ROOT
ATOM     12  C   UNL     1      -4.214   1.436  24.589  0.00  0.00    +0.206 A 
ATOM     13  N   UNL     1      -3.815   1.523  23.872  0.00  0.00    -0.056 NA
ATOM     14  O   UNL     1      -3.403   0.826  23.722  0.00  0.00    -0.336 OA
ATOM     15  C   UNL     1      -3.547   0.305  24.347  0.00  0.00    +0.251 A 
ATOM     16  N   UNL     1      -4.048   0.683  24.882  0.00  0.00    -0.190 NA
ENDROOT
BRANCH  12   7
ATOM      6  C   UNL     1      -4.380   2.734  25.163  0.00  0.00    +0.151 A 
ATOM      7  C   UNL     1      -4.694   2.002  24.950  0.00  0.00    +0.072 A 
ATOM      8  C   UNL     1      -5.489   1.835  25.097  0.00  0.00    +0.008 A 
ATOM      9  C   UNL     1      -5.969   2.401  25.458  0.00  0.00    +0.021 A 
ATOM     10  C   UNL     1      -5.653   3.134  25.671  0.00  0.00    +0.100 A 
ATOM     11  N   UNL     1      -4.860   3.300  25.524  0.00  0.00    -0.228 NA
BRANCH   6   5
ATOM      5  N   UNL     1      -3.585   2.901  25.015  0.00  0.00    -0.218 NA
BRANCH   5   4
ATOM      4  C   UNL     1      -3.239   3.577  25.336  0.00  0.00    +0.146 C 
BRANCH   4   3
ATOM      3  C   UNL     1      -2.551   3.887  25.001  0.00  0.00    +0.166 C 
BRANCH   3   2
ATOM      1  C   UNL     1      -1.505   4.852  25.137  0.00  0.00    +0.174 C 
ATOM      2  O   UNL     1      -2.008   4.290  25.474  0.00  0.00    -0.349 OA
ENDBRANCH   3   2
ENDBRANCH   4   3
ENDBRANCH   5   4
ENDBRANCH   6   5
ENDBRANCH  12   7
BRANCH  15  17
ATOM     17  C   UNL     1      -3.243  -0.458  24.422  0.00  0.00    +0.138 C 
ATOM     18  C   UNL     1      -3.668  -1.160  24.342  0.00  0.00    +0.027 C 
ATOM     19  C   UNL     1      -3.146  -1.788  24.460  0.00  0.00    +0.019 C 
ATOM     20  C   UNL     1      -2.399  -1.474  24.612  0.00  0.00    +0.072 C 
ATOM     21  N   UNL     1      -2.458  -0.652  24.589  0.00  0.00    -0.268 NA
BRANCH  21  22
ATOM     22  C   UNL     1      -1.842  -0.117  24.710  0.00  0.00    +0.061 C 
ATOM     23  C   UNL     1      -1.645   0.115  25.478  0.00  0.00    +0.033 C 
ATOM     24  C   UNL     1      -1.029   0.651  25.600  0.00  0.00    +0.074 C 
ATOM     25  N   UNL     1      -0.610   0.953  24.956  0.00  0.00    -0.271 NA
ATOM     26  C   UNL     1       0.005   1.488  25.079  0.00  0.00    +0.090 C 
ATOM     27  C   UNL     1      -0.808   0.720  24.190  0.00  0.00    +0.074 C 
ATOM     28  C   UNL     1      -1.424   0.185  24.068  0.00  0.00    +0.033 C 
ENDBRANCH  21  22
ENDBRANCH  15  17
TORSDOF 7
ENDMDL
MODEL 2
REMARK VINA RESULT:     -10.2      1.110      3.345
REMARK  Name = 
REMARK  7 active torsions:
REMARK  status: ('A' for Active; 'I' for Inactive)
REMARK    1  A    between atoms: O_2  and  C_3
REMARK    2  A    between atoms: C_3  and  C_4
REMARK    3  A    between atoms: C_4  and  N_5
REMARK    4  A    between atoms: N_5  and  C_6
REMARK    5  A    between atoms: C_7  and  C_12
REMARK    6  A    between atoms: C_15  and  C_17
REMARK    7  A    between atoms: N_21  and  C_22
REMARK                            x       y       z     vdW  Elec       q    Type
REMARK                         _______ _______ _______ _____ _____    ______ ____
ROOT
ATOM     12  C   UNL     1      -3.795   2.698  24.748  0.00  0.00    +0.206 A 
ATOM     13  N   UNL     1      -3.536   2.576  23.975  0.00  0.00    -0.056 NA
ATOM     14  O   UNL     1      -2.772   2.879  23.910  0.00  0.00    -0.336 OA
ATOM     15  C   UNL     1      -2.558   3.189  24.646  0.00  0.00    +0.251 A 
ATOM     16  N   UNL     1      -3.190   3.076  25.162  0.00  0.00    -0.190 NA
ENDROOT
BRANCH  12   7
ATOM      6  C   UNL     1      -4.766   1.689  25.034  0.00  0.00    +0.151 A 
ATOM      7  C   UNL     1      -4.529   2.479  25.054  0.00  0.00    +0.072 A 
ATOM      8  C   UNL     1      -5.028   3.051  25.380  0.00  0.00    +0.008 A 
ATOM      9  C   UNL     1      -5.762   2.832  25.685  0.00  0.00    +0.021 A 
ATOM     10  C   UNL     1      -5.998   2.042  25.665  0.00  0.00    +0.100 A 
ATOM     11  N   UNL     1      -5.501   1.471  25.339  0.00  0.00    -0.228 NA
BRANCH   6   5
ATOM      5  N   UNL     1      -4.268   1.118  24.708  0.00  0.00    -0.218 NA
BRANCH   5   4
ATOM      4  C   UNL     1      -4.434   0.317  24.815  0.00  0.00    +0.146 C 
BRANCH   4   3
ATOM      3  C   UNL     1      -4.131  -0.241  24.287  0.00  0.00    +0.166 C 
BRANCH   3   2
ATOM      1  C   UNL     1      -4.043  -1.634  23.978  0.00  0.00    +0.174 C 
ATOM      2  O   UNL     1      -4.020  -1.021  24.532  0.00  0.00    -0.349 OA
ENDBRANCH   3   2
ENDBRANCH   4   3
ENDBRANCH   5   4
ENDBRANCH   6   5
ENDBRANCH  12   7
BRANCH  15  17
ATOM     17  C   UNL     1      -1.838   3.547  24.829  0.00  0.00    +0.138 C 
ATOM     18  C   UNL     1      -1.711   4.355  24.931  0.00  0.00    +0.027 C 
ATOM     19  C   UNL     1      -0.912   4.467  25.108  0.00  0.00    +0.019 C 
ATOM     20  C   UNL     1      -0.547   3.727  25.116  0.00  0.00    +0.072 C 
ATOM     21  N   UNL     1      -1.119   3.159  24.944  0.00  0.00    -0.268 NA
BRANCH  21  22
ATOM     22  C   UNL     1      -0.995   2.344  24.894  0.00  0.00    +0.061 C 
ATOM     23  C   UNL     1      -1.025   1.881  25.577  0.00  0.00    +0.033 C 
ATOM     24  C   UNL     1      -0.902   1.067  25.528  0.00  0.00    +0.074 C 
ATOM     25  N   UNL     1      -0.748   0.716  24.797  0.00  0.00    -0.271 NA
ATOM     26  C   UNL     1      -0.625  -0.098  24.748  0.00  0.00    +0.090 C 
ATOM     27  C   UNL     1      -0.718   1.179  24.115  0.00  0.00    +0.074 C 
ATOM     28  C   UNL     1      -0.842   1.994  24.164  0.00  0.00    +0.033 C 
ENDBRANCH  21  22
ENDBRANCH  15  17
TORSDOF 7
ENDMDL
MODEL 3
REMARK VINA RESULT:     -10.1      0.974      3.713
REMARK  Name = 
REMARK  7 active torsions:
REMARK  status: ('A' for Active; 'I' for Inactive)
REMARK    1  A    between atoms: O_2  and  C_3
REMARK    2  A    between atoms: C_3  and  C_4
REMARK    3  A    between atoms: C_4  and  N_5
REMARK    4  A    between atoms: N_5  and  C_6
REMARK    5  A    between atoms: C_7  and  C_12
REMARK    6  A    between atoms: C_15  and  C_17
REMARK    7  A    between atoms: N_21  and  C_22
REMARK                            x       y       z     vdW  Elec       q    Type
REMARK                         _______ _______ _______ _____ _____    ______ ____
ROOT
ATOM     12  C   UNL     1      -3.684   0.437  24.542  0.00  0.00    +0.206 A 
ATOM     13  N   UNL     1      -3.622   0.901  23.863  0.00  0.00    -0.056 NA
ATOM     14  O   UNL     1      -4.103   1.564  23.962  0.00  0.00    -0.336 OA
ATOM     15  C   UNL     1      -4.462   1.509  24.703  0.00  0.00    +0.251 A 
ATOM     16  N   UNL     1      -4.203   0.814  25.061  0.00  0.00    -0.190 NA
ENDROOT
BRANCH  12   7
ATOM      6  C   UNL     1      -2.470  -0.306  24.672  0.00  0.00    +0.151 A 
ATOM      7  C   UNL     1      -3.295  -0.277  24.678  0.00  0.00    +0.072 A 
ATOM      8  C   UNL     1      -3.730  -0.964  24.820  0.00  0.00    +0.008 A 
ATOM      9  C   UNL     1      -3.341  -1.679  24.956  0.00  0.00    +0.021 A 
ATOM     10  C   UNL     1      -2.516  -1.707  24.950  0.00  0.00    +0.100 A 
ATOM     11  N   UNL     1      -2.081  -1.021  24.808  0.00  0.00    -0.228 NA
BRANCH   6   5
ATOM      5  N   UNL     1      -2.035   0.381  24.530  0.00  0.00    -0.218 NA
BRANCH   5   4
ATOM      4  C   UNL     1      -1.216   0.378  24.634  0.00  0.00    +0.146 C 
BRANCH   4   3
ATOM      3  C   UNL     1      -0.751   0.944  24.253  0.00  0.00    +0.166 C 
BRANCH   3   2
ATOM      1  C   UNL     1       0.473   1.681  24.220  0.00  0.00    +0.174 C 
ATOM      2  O   UNL     1      -0.112   1.284  24.648  0.00  0.00    -0.349 OA
ENDBRANCH   3   2
ENDBRANCH   4   3
ENDBRANCH   5   4
ENDBRANCH   6   5
ENDBRANCH  12   7
BRANCH  15  17
ATOM     17  C   UNL     1      -4.987   2.056  25.028  0.00  0.00    +0.138 C 
ATOM     18  C   UNL     1      -5.789   1.932  25.172  0.00  0.00    +0.027 C 
ATOM     19  C   UNL     1      -6.100   2.623  25.499  0.00  0.00    +0.019 C 
ATOM     20  C   UNL     1      -5.489   3.175  25.556  0.00  0.00    +0.072 C 
ATOM     21  N   UNL     1      -4.801   2.825  25.265  0.00  0.00    -0.268 NA
BRANCH  21  22
ATOM     22  C   UNL     1      -4.058   3.180  25.219  0.00  0.00    +0.061 C 
ATOM     23  C   UNL     1      -3.560   3.178  25.877  0.00  0.00    +0.033 C 
ATOM     24  C   UNL     1      -2.816   3.532  25.832  0.00  0.00    +0.074 C 
ATOM     25  N   UNL     1      -2.570   3.888  25.129  0.00  0.00    -0.271 NA
ATOM     26  C   UNL     1      -1.827   4.242  25.084  0.00  0.00    +0.090 C 
ATOM     27  C   UNL     1      -3.068   3.889  24.472  0.00  0.00    +0.074 C 
ATOM     28  C   UNL     1      -3.813   3.535  24.517  0.00  0.00    +0.033 C 
ENDBRANCH  21  22
ENDBRANCH  15  17
TORSDOF 7
ENDMDL
MODEL 4
REMARK VINA RESULT:      -9.9      1.240      3.548
REMARK  Name = 
REMARK  7 active torsions:
REMARK  status: ('A' for Active; 'I' for Inactive)
REMARK    1  A    between atoms: O_2  and  C_3
REMARK    2  A    between atoms: C_3  and  C_4
REMARK    3  A    between atoms: C_4  and  N_5
REMARK    4  A    between atoms: N_5  and  C_6
REMARK    5  A    between atoms: C_7  and  C_12
REMARK    6  A    between atoms: C_15  and  C_17
REMARK    7  A    between atoms: N_21  and  C_22
REMARK                            x       y       z     vdW  Elec       q    Type
REMARK                         _______ _______ _______ _____ _____    ______ ____
ROOT
ATOM     12  C   UNL     1      -2.680   2.699  24.538  0.00  0.00    +0.206 A 
ATOM     13  N   UNL     1      -2.845   2.423  23.779  0.00  0.00    -0.056 NA
ATOM     14  O   UNL     1      -3.605   2.104  23.783  0.00  0.00    -0.336 OA
ATOM     15  C   UNL     1      -3.911   2.184  24.546  0.00  0.00    +0.251 A 
ATOM     16  N   UNL     1      -3.338   2.552  25.011  0.00  0.00    -0.190 NA
ENDROOT
BRANCH  12   7
ATOM      6  C   UNL     1      -1.258   2.672  24.682  0.00  0.00    +0.151 A 
ATOM      7  C   UNL     1      -1.979   3.061  24.780  0.00  0.00    +0.072 A 
ATOM      8  C   UNL     1      -1.998   3.812  25.122  0.00  0.00    +0.008 A 
ATOM      9  C   UNL     1      -1.297   4.173  25.365  0.00  0.00    +0.021 A 
ATOM     10  C   UNL     1      -0.577   3.783  25.266  0.00  0.00    +0.100 A 
ATOM     11  N   UNL     1      -0.557   3.033  24.925  0.00  0.00    -0.228 NA
BRANCH   6   5
ATOM      5  N   UNL     1      -1.239   1.920  24.340  0.00  0.00    -0.218 NA
BRANCH   5   4
ATOM      4  C   UNL     1      -0.544   1.477  24.360  0.00  0.00    +0.146 C 
BRANCH   4   3
ATOM      3  C   UNL     1      -0.439   0.850  23.833  0.00  0.00    +0.166 C 
BRANCH   3   2
ATOM      1  C   UNL     1       0.370  -0.279  23.497  0.00  0.00    +0.174 C 
ATOM      2  O   UNL     1      -0.012   0.183  24.065  0.00  0.00    -0.349 OA
ENDBRANCH   3   2
ENDBRANCH   4   3
ENDBRANCH   5   4
ENDBRANCH   6   5
ENDBRANCH  12   7
BRANCH  15  17
ATOM     17  C   UNL     1      -4.657   1.938  24.797  0.00  0.00    +0.138 C 
ATOM     18  C   UNL     1      -5.304   2.427  24.945  0.00  0.00    +0.027 C 
ATOM     19  C   UNL     1      -5.934   1.950  25.183  0.00  0.00    +0.019 C 
ATOM     20  C   UNL     1      -5.676   1.167  25.181  0.00  0.00    +0.072 C 
ATOM     21  N   UNL     1      -4.887   1.159  24.943  0.00  0.00    -0.268 NA
BRANCH  21  22
ATOM     22  C   UNL     1      -4.410   0.490  24.863  0.00  0.00    +0.061 C 
ATOM     23  C   UNL     1      -3.998   0.199  25.517  0.00  0.00    +0.033 C 
ATOM     24  C   UNL     1      -3.520  -0.469  25.438  0.00  0.00    +0.074 C 
ATOM     25  N   UNL     1      -3.455  -0.846  24.706  0.00  0.00    -0.271 NA
ATOM     26  C   UNL     1      -2.978  -1.514  24.628  0.00  0.00    +0.090 C 
ATOM     27  C   UNL     1      -3.867  -0.555  24.054  0.00  0.00    +0.074 C 
ATOM     28  C   UNL     1      -4.345   0.114  24.133  0.00  0.00    +0.033 C 
ENDBRANCH  21  22
ENDBRANCH  15  17
TORSDOF 7
ENDMDL
MODEL 5
REMARK VINA RESULT:      -9.7      1.530      4.616
REMARK  Name = 
REMARK  7 active torsions:
REMARK  status: ('A' for Active; 'I' for Inactive)
REMARK    1  A    between atoms: O_2  and  C_3
REMARK    2  A    between atoms: C_3  and  C_4
REMARK    3  A    between atoms: C_4  and  N_5
REMARK    4  A    between atoms: N_5  and  C_6
REMARK    5  A    between atoms: C_7  and  C_12
REMARK    6  A    between atoms: C_15  and  C_17
REMARK    7  A    between atoms: N_21  and  C_22
REMARK                            x       y       z     vdW  Elec       q    Type
REMARK                         _______ _______ _______ _____ _____    ______ ____
ROOT
ATOM     12  C   UNL     1      -1.903   1.288  24.503  0.00  0.00    +0.206 A 
ATOM     13  N   UNL     1      -2.167   1.578  23.777  0.00  0.00    -0.056 NA
ATOM     14  O   UNL     1      -2.094   2.399  23.788  0.00  0.00    -0.336 OA
ATOM     15  C   UNL     1      -1.784   2.617  24.522  0.00  0.00    +0.251 A 
ATOM     16  N   UNL     1      -1.667   1.930  24.963  0.00  0.00    -0.190 NA
ENDROOT
BRANCH  12   7
ATOM      6  C   UNL     1      -1.240   0.022  24.513  0.00  0.00    +0.151 A 
ATOM      7  C   UNL     1      -1.881   0.495  24.729  0.00  0.00    +0.072 A 
ATOM      8  C   UNL     1      -2.499   0.174  25.171  0.00  0.00    +0.008 A 
ATOM      9  C   UNL     1      -2.476  -0.620  25.397  0.00  0.00    +0.021 A 
ATOM     10  C   UNL     1      -1.835  -1.091  25.181  0.00  0.00    +0.100 A 
ATOM     11  N   UNL     1      -1.217  -0.771  24.739  0.00  0.00    -0.228 NA
BRANCH   6   5
ATOM      5  N   UNL     1      -0.621   0.344  24.070  0.00  0.00    -0.218 NA
BRANCH   5   4
ATOM      4  C   UNL     1      -0.015  -0.143  23.796  0.00  0.00    +0.146 C 
BRANCH   4   3
ATOM      3  C   UNL     1       0.635   0.186  23.407  0.00  0.00    +0.166 C 
BRANCH   3   2
ATOM      1  C   UNL     1       1.775  -0.006  22.567  0.00  0.00    +0.174 C 
ATOM      2  O   UNL     1       1.026  -0.244  22.822  0.00  0.00    -0.349 OA
ENDBRANCH   3   2
ENDBRANCH   4   3
ENDBRANCH   5   4
ENDBRANCH   6   5
ENDBRANCH  12   7
BRANCH  15  17
ATOM     17  C   UNL     1      -1.621   3.387  24.769  0.00  0.00    +0.138 C 
ATOM     18  C   UNL     1      -0.882   3.752  24.764  0.00  0.00    +0.027 C 
ATOM     19  C   UNL     1      -0.974   4.518  25.057  0.00  0.00    +0.019 C 
ATOM     20  C   UNL     1      -1.770   4.626  25.243  0.00  0.00    +0.072 C 
ATOM     21  N   UNL     1      -2.171   3.928  25.065  0.00  0.00    -0.268 NA
BRANCH  21  22
ATOM     22  C   UNL     1      -2.978   3.791  25.165  0.00  0.00    +0.061 C 
ATOM     23  C   UNL     1      -3.270   3.571  25.906  0.00  0.00    +0.033 C 
ATOM     24  C   UNL     1      -4.077   3.435  26.006  0.00  0.00    +0.074 C 
ATOM     25  N   UNL     1      -4.593   3.518  25.367  0.00  0.00    -0.271 NA
ATOM     26  C   UNL     1      -5.400   3.381  25.468  0.00  0.00    +0.090 C 
ATOM     27  C   UNL     1      -4.301   3.738  24.628  0.00  0.00    +0.074 C 
ATOM     28  C   UNL     1      -3.493   3.874  24.527  0.00  0.00    +0.033 C 
ENDBRANCH  21  22
ENDBRANCH  15  17
TORSDOF 7
ENDMDL
MODEL 6
REMARK VINA RESULT:      -9.7      1.284      3.435
REMARK  Name = 
REMARK  7 active torsions:
REMARK  status: ('A' for Active; 'I' for Inactive)
REMARK    1  A    between atoms: O_2  and  C_3
REMARK    2  A    between atoms: C_3  and  C_4
REMARK    3  A    between atoms: C_4  and  N_5
REMARK    4  A    between atoms: N_5  and  C_6
REMARK    5  A    between atoms: C_7  and  C_12
REMARK    6  A    between atoms: C_15  and  C_17
REMARK    7  A    between atoms: N_21  and  C_22
REMARK                            x       y       z     vdW  Elec       q    Type
REMARK                         _______ _______ _______ _____ _____    ______ ____
ROOT
ATOM     12  C   UNL     1      -2.026   1.304  23.999  0.00  0.00    +0.206 A 
ATOM     13  N   UNL     1      -2.439   1.317  23.285  0.00  0.00    -0.056 NA
ATOM     14  O   UNL     1      -3.246   1.305  23.457  0.00  0.00    -0.336 OA
ATOM     15  C   UNL     1      -3.331   1.285  24.278  0.00  0.00    +0.251 A 
ATOM     16  N   UNL     1      -2.577   1.284  24.612  0.00  0.00    -0.190 NA
ENDROOT
BRANCH  12   7
ATOM      6  C   UNL     1      -0.818   2.003  24.307  0.00  0.00    +0.151 A 
ATOM      7  C   UNL     1      -1.205   1.310  24.084  0.00  0.00    +0.072 A 
ATOM      8  C   UNL     1      -0.771   0.621  23.947  0.00  0.00    +0.008 A 
ATOM      9  C   UNL     1       0.049   0.627  24.032  0.00  0.00    +0.021 A 
ATOM     10  C   UNL     1       0.436   1.321  24.255  0.00  0.00    +0.100 A 
ATOM     11  N   UNL     1       0.002   2.009  24.392  0.00  0.00    -0.228 NA
BRANCH   6   5
ATOM      5  N   UNL     1      -1.253   2.692  24.444  0.00  0.00    -0.218 NA
BRANCH   5   4
ATOM      4  C   UNL     1      -0.864   3.389  24.651  0.00  0.00    +0.146 C 
BRANCH   4   3
ATOM      3  C   UNL     1      -1.295   4.031  24.941  0.00  0.00    +0.166 C 
BRANCH   3   2
ATOM      1  C   UNL     1      -1.416   5.449  25.068  0.00  0.00    +0.174 C 
ATOM      2  O   UNL     1      -0.945   4.777  24.984  0.00  0.00    -0.349 OA
ENDBRANCH   3   2
ENDBRANCH   4   3
ENDBRANCH   5   4
ENDBRANCH   6   5
ENDBRANCH  12   7
BRANCH  15  17
ATOM     17  C   UNL     1      -4.045   1.268  24.690  0.00  0.00    +0.138 C 
ATOM     18  C   UNL     1      -4.487   1.924  24.923  0.00  0.00    +0.027 C 
ATOM     19  C   UNL     1      -5.158   1.652  25.319  0.00  0.00    +0.019 C 
ATOM     20  C   UNL     1      -5.131   0.828  25.330  0.00  0.00    +0.072 C 
ATOM     21  N   UNL     1      -4.444   0.590  24.942  0.00  0.00    -0.268 NA
BRANCH  21  22
ATOM     22  C   UNL     1      -4.197  -0.188  24.824  0.00  0.00    +0.061 C 
ATOM     23  C   UNL     1      -3.774  -0.579  25.416  0.00  0.00    +0.033 C 
ATOM     24  C   UNL     1      -3.526  -1.358  25.299  0.00  0.00    +0.074 C 
ATOM     25  N   UNL     1      -3.701  -1.745  24.592  0.00  0.00    -0.271 NA
ATOM     26  C   UNL     1      -3.453  -2.523  24.475  0.00  0.00    +0.090 C 
ATOM     27  C   UNL     1      -4.123  -1.354  24.001  0.00  0.00    +0.074 C 
ATOM     28  C   UNL     1      -4.371  -0.575  24.118  0.00  0.00    +0.033 C 
ENDBRANCH  21  22
ENDBRANCH  15  17
TORSDOF 7
ENDMDL
MODEL 7
REMARK VINA RESULT:      -9.6      0.864      2.128
REMARK  Name = 
REMARK  7 active torsions:
REMARK  status: ('A' for Active; 'I' for Inactive)
REMARK    1  A    between atoms: O_2  and  C_3
REMARK    2  A    between atoms: C_3  and  C_4
REMARK    3  A    between atoms: C_4  and  N_5
REMARK    4  A    between atoms: N_5  and  C_6
REMARK    5  A    between atoms: C_7  and  C_12
REMARK    6  A    between atoms: C_15  and  C_17
REMARK    7  A    between atoms: N_21  and  C_22
REMARK                            x       y       z     vdW  Elec       q    Type
REMARK                         _______ _______ _______ _____ _____    ______ ____
ROOT
ATOM     12  C   UNL     1      -3.599   1.257  24.693  0.00  0.00    +0.206 A 
ATOM     13  N   UNL     1      -3.311   1.074  23.943  0.00  0.00    -0.056 NA
ATOM     14  O   UNL     1      -2.632   0.616  24.034  0.00  0.00    -0.336 OA
ATOM     15  C   UNL     1      -2.500   0.516  24.843  0.00  0.00    +0.251 A 
ATOM     16  N   UNL     1      -3.098   0.911  25.249  0.00  0.00    -0.190 NA
ENDROOT
BRANCH  12   7
ATOM      6  C   UNL     1      -4.208   2.522  24.962  0.00  0.00    +0.151 A 
ATOM      7  C   UNL     1      -4.271   1.706  24.859  0.00  0.00    +0.072 A 
ATOM      8  C   UNL     1      -5.008   1.339  24.921  0.00  0.00    +0.008 A 
ATOM      9  C   UNL     1      -5.680   1.788  25.087  0.00  0.00    +0.021 A 
ATOM     10  C   UNL     1      -5.615   2.604  25.190  0.00  0.00    +0.100 A 
ATOM     11  N   UNL     1      -4.880   2.971  25.128  0.00  0.00    -0.228 NA
BRANCH   6   5
ATOM      5  N   UNL     1      -3.471   2.889  24.900  0.00  0.00    -0.218 NA
BRANCH   5   4
ATOM      4  C   UNL     1      -3.384   3.679  25.121  0.00  0.00    +0.146 C 
BRANCH   4   3
ATOM      3  C   UNL     1      -2.711   4.099  24.894  0.00  0.00    +0.166 C 
BRANCH   3   2
ATOM      1  C   UNL     1      -1.585   4.911  25.234  0.00  0.00    +0.174 C 
ATOM      2  O   UNL     1      -2.257   4.488  25.462  0.00  0.00    -0.349 OA
ENDBRANCH   3   2
ENDBRANCH   4   3
ENDBRANCH   5   4
ENDBRANCH   6   5
ENDBRANCH  12   7
BRANCH  15  17
ATOM     17  C   UNL     1      -1.878   0.093  25.183  0.00  0.00    +0.138 C 
ATOM     18  C   UNL     1      -1.190   0.415  25.503  0.00  0.00    +0.027 C 
ATOM     19  C   UNL     1      -0.723  -0.206  25.781  0.00  0.00    +0.019 C 
ATOM     20  C   UNL     1      -1.123  -0.912  25.632  0.00  0.00    +0.072 C 
ATOM     21  N   UNL     1      -1.837  -0.728  25.263  0.00  0.00    -0.268 NA
BRANCH  21  22
ATOM     22  C   UNL     1      -2.410  -1.268  25.016  0.00  0.00    +0.061 C 
ATOM     23  C   UNL     1      -3.012  -1.494  25.534  0.00  0.00    +0.033 C 
ATOM     24  C   UNL     1      -3.586  -2.034  25.288  0.00  0.00    +0.074 C 
ATOM     25  N   UNL     1      -3.557  -2.347  24.524  0.00  0.00    -0.271 NA
ATOM     26  C   UNL     1      -4.130  -2.887  24.279  0.00  0.00    +0.090 C 
ATOM     27  C   UNL     1      -2.955  -2.121  24.008  0.00  0.00    +0.074 C 
ATOM     28  C   UNL     1      -2.381  -1.581  24.254  0.00  0.00    +0.033 C 
ENDBRANCH  21  22
ENDBRANCH  15  17
TORSDOF 7
ENDMDL
MODEL 8
REMARK VINA RESULT:      -9.4      1.256      3.007
REMARK  Name = 
REMARK  7 active torsions:
REMARK  status: ('A' for Active; 'I' for Inactive)
REMARK    1  A    between atoms: O_2  and  C_3
REMARK    2  A    between atoms: C_3  and  C_4
REMARK    3  A    between atoms: C_4  and  N_5
REMARK    4  A    between atoms: N_5  and  C_6
REMARK    5  A    between atoms: C_7  and  C_12
REMARK    6  A    between atoms: C_15  and  C_17
REMARK    7  A    between atoms: N_21  and  C_22
REMARK                            x       y       z     vdW  Elec       q    Type
REMARK                         _______ _______ _______ _____ _____    ______ ____
ROOT
ATOM     12  C   UNL     1      -1.593   2.378  24.290  0.00  0.00    +0.206 A 
ATOM     13  N   UNL     1      -1.999   2.102  23.627  0.00  0.00    -0.056 NA
ATOM     14  O   UNL     1      -1.666   1.381  23.405  0.00  0.00    -0.336 OA
ATOM     15  C   UNL     1      -1.054   1.211  23.932  0.00  0.00    +0.251 A 
ATOM     16  N   UNL     1      -1.009   1.827  24.478  0.00  0.00    -0.190 NA
ENDROOT
BRANCH  12   7
ATOM      6  C   UNL     1      -2.507   3.250  24.958  0.00  0.00    +0.151 A 
ATOM      7  C   UNL     1      -1.744   3.081  24.693  0.00  0.00    +0.072 A 
ATOM      8  C   UNL     1      -1.132   3.617  24.833  0.00  0.00    +0.008 A 
ATOM      9  C   UNL     1      -1.283   4.321  25.237  0.00  0.00    +0.021 A 
ATOM     10  C   UNL     1      -2.047   4.488  25.501  0.00  0.00    +0.100 A 
ATOM     11  N   UNL     1      -2.659   3.953  25.361  0.00  0.00    -0.228 NA
BRANCH   6   5
ATOM      5  N   UNL     1      -3.120   2.714  24.818  0.00  0.00    -0.218 NA
BRANCH   5   4
ATOM      4  C   UNL     1      -3.862   2.840  25.155  0.00  0.00    +0.146 C 
BRANCH   4   3
ATOM      3  C   UNL     1      -4.515   2.415  24.884  0.00  0.00    +0.166 C 
BRANCH   3   2
ATOM      1  C   UNL     1      -5.847   1.972  25.155  0.00  0.00    +0.174 C 
ATOM      2  O   UNL     1      -5.084   2.147  25.418  0.00  0.00    -0.349 OA
ENDBRANCH   3   2
ENDBRANCH   4   3
ENDBRANCH   5   4
ENDBRANCH   6   5
ENDBRANCH  12   7
BRANCH  15  17
ATOM     17  C   UNL     1      -0.572   0.541  23.914  0.00  0.00    +0.138 C 
ATOM     18  C   UNL     1       0.175   0.490  23.570  0.00  0.00    +0.027 C 
ATOM     19  C   UNL     1       0.455  -0.279  23.681  0.00  0.00    +0.019 C 
ATOM     20  C   UNL     1      -0.120  -0.701  24.095  0.00  0.00    +0.072 C 
ATOM     21  N   UNL     1      -0.755  -0.196  24.239  0.00  0.00    -0.268 NA
BRANCH  21  22
ATOM     22  C   UNL     1      -1.450  -0.390  24.638  0.00  0.00    +0.061 C 
ATOM     23  C   UNL     1      -1.483  -0.332  25.461  0.00  0.00    +0.033 C 
ATOM     24  C   UNL     1      -2.178  -0.526  25.860  0.00  0.00    +0.074 C 
ATOM     25  N   UNL     1      -2.841  -0.779  25.437  0.00  0.00    -0.271 NA
ATOM     26  C   UNL     1      -3.535  -0.973  25.837  0.00  0.00    +0.090 C 
ATOM     27  C   UNL     1      -2.807  -0.837  24.615  0.00  0.00    +0.074 C 
ATOM     28  C   UNL     1      -2.111  -0.643  24.216  0.00  0.00    +0.033 C 
ENDBRANCH  21  22
ENDBRANCH  15  17
TORSDOF 7
ENDMDL
MODEL 9
REMARK VINA RESULT:      -9.4      1.085      4.416
REMARK  Name = 
REMARK  7 active torsions:
REMARK  status: ('A' for Active; 'I' for Inactive)
REMARK    1  A    between atoms: O_2  and  C_3
REMARK    2  A    between atoms: C_3  and  C_4
REMARK    3  A    between atoms: C_4  and  N_5
REMARK    4  A    between atoms: N_5  and  C_6
REMARK    5  A    between atoms: C_7  and  C_12
REMARK    6  A    between atoms: C_15  and  C_17
REMARK    7  A    between atoms: N_21  and  C_22
REMARK                            x       y       z     vdW  Elec       q    Type
REMARK                         _______ _______ _______ _____ _____    ______ ____
ROOT
ATOM     12  C   UNL     1      -2.621   0.988  24.472  0.00  0.00    +0.206 A 
ATOM     13  N   UNL     1      -2.824   1.270  23.724  0.00  0.00    -0.056 NA
ATOM     14  O   UNL     1      -3.498   1.738  23.801  0.00  0.00    -0.336 OA
ATOM     15  C   UNL     1      -3.713   1.745  24.599  0.00  0.00    +0.251 A 
ATOM     16  N   UNL     1      -3.171   1.282  25.012  0.00  0.00    -0.190 NA
ENDROOT
BRANCH  12   7
ATOM      6  C   UNL     1      -2.088  -0.318  24.698  0.00  0.00    +0.151 A 
ATOM      7  C   UNL     1      -1.981   0.498  24.648  0.00  0.00    +0.072 A 
ATOM      8  C   UNL     1      -1.234   0.825  24.775  0.00  0.00    +0.008 A 
ATOM      9  C   UNL     1      -0.594   0.335  24.951  0.00  0.00    +0.021 A 
ATOM     10  C   UNL     1      -0.702  -0.482  25.001  0.00  0.00    +0.100 A 
ATOM     11  N   UNL     1      -1.448  -0.808  24.875  0.00  0.00    -0.228 NA
BRANCH   6   5
ATOM      5  N   UNL     1      -2.836  -0.645  24.572  0.00  0.00    -0.218 NA
BRANCH   5   4
ATOM      4  C   UNL     1      -2.941  -1.462  24.615  0.00  0.00    +0.146 C 
BRANCH   4   3
ATOM      3  C   UNL     1      -3.685  -1.790  24.472  0.00  0.00    +0.166 C 
BRANCH   3   2
ATOM      1  C   UNL     1      -4.344  -2.907  23.872  0.00  0.00    +0.174 C 
ATOM      2  O   UNL     1      -3.764  -2.605  24.376  0.00  0.00    -0.349 OA
ENDBRANCH   3   2
ENDBRANCH   4   3
ENDBRANCH   5   4
ENDBRANCH   6   5
ENDBRANCH  12   7
BRANCH  15  17
ATOM     17  C   UNL     1      -4.357   2.146  24.923  0.00  0.00    +0.138 C 
ATOM     18  C   UNL     1      -5.123   1.852  24.999  0.00  0.00    +0.027 C 
ATOM     19  C   UNL     1      -5.587   2.437  25.352  0.00  0.00    +0.019 C 
ATOM     20  C   UNL     1      -5.106   3.092  25.493  0.00  0.00    +0.072 C 
ATOM     21  N   UNL     1      -4.346   2.913  25.228  0.00  0.00    -0.268 NA
BRANCH  21  22
ATOM     22  C   UNL     1      -3.690   3.412  25.262  0.00  0.00    +0.061 C 
ATOM     23  C   UNL     1      -3.254   3.472  25.961  0.00  0.00    +0.033 C 
ATOM     24  C   UNL     1      -2.597   3.970  25.995  0.00  0.00    +0.074 C 
ATOM     25  N   UNL     1      -2.376   4.408  25.331  0.00  0.00    -0.271 NA
ATOM     26  C   UNL     1      -1.720   4.906  25.366  0.00  0.00    +0.090 C 
ATOM     27  C   UNL     1      -2.812   4.348  24.634  0.00  0.00    +0.074 C 
ATOM     28  C   UNL     1      -3.469   3.849  24.600  0.00  0.00    +0.033 C 
ENDBRANCH  21  22
ENDBRANCH  15  17
TORSDOF 7
ENDMDL
