MODEL 1
REMARK VINA RESULT:     -10.9      0.000      0.000
REMARK  Name = 
REMARK  7 active torsions:
REMARK  status: ('A' for Active; 'I' for Inactive)
REMARK    1  A    between atoms: O_2  and  C_3
REMARK    2  A    between atoms: C_6  and  C_9
REMARK    3  A    between atoms: N_11  and  C_12
REMARK    4  A    between atoms: C_12  and  C_13
REMARK    5  A    between atoms: C_15  and  C_16
REMARK    6  A    between atoms: C_16  and  C_17
REMARK    7  A    between atoms: N_22  and  C_25
REMARK                            x       y       z     vdW  Elec       q    Type
REMARK                         _______ _______ _______ _____ _____    ______ ____
ROOT
ATOM     13  C   UNL     1      -0.727   2.758  24.681  0.00  0.00    +0.170 C 
ATOM     14  O   UNL     1      -0.930   1.982  24.871  0.00  0.00    -0.351 OA
ATOM     15  C   UNL     1      -0.291   1.496  24.679  0.00  0.00    +0.157 C 
ATOM     31  C   UNL     1       0.308   1.973  24.371  0.00  0.00    +0.212 C 
ATOM     32  O   UNL     1       1.046   1.715  24.108  0.00  0.00    -0.218 OA
ATOM     33  C   UNL     1       0.038   2.753  24.372  0.00  0.00    +0.213 C 
ATOM     34  O   UNL     1       0.460   3.412  24.110  0.00  0.00    -0.218 OA
ENDROOT
BRANCH  13  12
ATOM     12  C   UNL     1      -1.205   3.423  24.781  0.00  0.00    +0.148 C 
BRANCH  12  11
ATOM      9  C   UNL     1      -2.479   3.991  25.087  0.00  0.00    +0.265 C 
ATOM     10  O   UNL     1      -2.133   4.738  25.145  0.00  0.00    -0.268 OA
ATOM     11  N   UNL     1      -2.015   3.335  24.905  0.00  0.00    -0.199 NA
BRANCH   9   6
ATOM      3  C   UNL     1      -4.912   3.724  25.458  0.00  0.00    +0.139 A 
ATOM      4  C   UNL     1      -4.402   3.797  26.102  0.00  0.00    +0.037 A 
ATOM      5  C   UNL     1      -3.591   3.886  25.979  0.00  0.00    +0.008 A 
ATOM      6  C   UNL     1      -3.291   3.902  25.211  0.00  0.00    +0.055 A 
ATOM      7  C   UNL     1      -3.801   3.830  24.566  0.00  0.00    +0.008 A 
ATOM      8  C   UNL     1      -4.611   3.741  24.690  0.00  0.00    +0.037 A 
BRANCH   3   2
ATOM      1  C   UNL     1      -6.046   2.882  25.677  0.00  0.00    +0.252 C 
ATOM      2  O   UNL     1      -5.722   3.635  25.581  0.00  0.00    -0.471 OA
ENDBRANCH   3   2
ENDBRANCH   9   6
ENDBRANCH  12  11
ENDBRANCH  13  12
BRANCH  15  16
ATOM     16  C   UNL     1      -0.257   0.678  24.779  0.00  0.00    +0.117 C 
BRANCH  16  17
ATOM     17  C   UNL     1      -0.718   0.313  25.359  0.00  0.00    +0.228 C 
ATOM     18  O   UNL     1      -0.601   0.497  26.154  0.00  0.00    -0.275 OA
ATOM     19  N   UNL     1      -1.295  -0.235  25.142  0.00  0.00    -0.276 N 
ATOM     20  C   UNL     1      -1.755  -0.600  25.721  0.00  0.00    +0.115 C 
ATOM     21  C   UNL     1      -2.332  -1.148  25.505  0.00  0.00    +0.112 C 
ATOM     22  N   UNL     1      -2.449  -1.332  24.709  0.00  0.00    -0.304 N 
ATOM     23  C   UNL     1      -1.988  -0.967  24.130  0.00  0.00    +0.112 C 
ATOM     24  C   UNL     1      -1.411  -0.418  24.346  0.00  0.00    +0.115 C 
BRANCH  22  25
ATOM     25  C   UNL     1      -3.026  -1.880  24.493  0.00  0.00    +0.048 A 
ATOM     26  C   UNL     1      -3.720  -1.626  24.127  0.00  0.00    +0.015 A 
ATOM     27  C   UNL     1      -4.297  -2.175  23.910  0.00  0.00    +0.001 A 
ATOM     28  C   UNL     1      -4.179  -2.977  24.061  0.00  0.00    +0.000 A 
ATOM     29  C   UNL     1      -3.486  -3.232  24.428  0.00  0.00    +0.001 A 
ATOM     30  C   UNL     1      -2.909  -2.683  24.644  0.00  0.00    +0.015 A 
ENDBRANCH  22  25
ENDBRANCH  16  17
ENDBRANCH  15  16
TORSDOF 7
ENDMDL
MODEL 2
REMARK VINA RESULT:     -10.5      1.365      3.955
REMARK  Name = 
REMARK  7 active torsions:
REMARK  status: ('A' for Active; 'I' for Inactive)
REMARK    1  A    between atoms: O_2  and  C_3
REMARK    2  A    between atoms: C_6  and  C_9
REMARK    3  A    between atoms: N_11  and  C_12
REMARK    4  A    between atoms: C_12  and  C_13
REMARK    5  A    between atoms: C_15  and  C_16
REMARK    6  A    between atoms: C_16  and  C_17
REMARK    7  A    between atoms: N_22  and  C_25
REMARK                            x       y       z     vdW  Elec       q    Type
REMARK                         _______ _______ _______ _____ _____    ______ ____
ROOT
ATOM     13  C   UNL     1      -3.645   3.516  25.636  0.00  0.00    +0.170 C 
ATOM     14  O   UNL     1      -3.836   2.761  25.366  0.00  0.00    -0.351 OA
ATOM     15  C   UNL     1      -4.646   2.647  25.474  0.00  0.00    +0.157 C 
ATOM     31  C   UNL     1      -4.957   3.333  25.812  0.00  0.00    +0.212 C 
ATOM     32  O   UNL     1      -5.746   3.460  26.014  0.00  0.00    -0.218 OA
ATOM     33  C   UNL     1      -4.338   3.870  25.912  0.00  0.00    +0.213 C 
ATOM     34  O   UNL     1      -4.401   4.628  26.232  0.00  0.00    -0.218 OA
ENDROOT
BRANCH  13  12
ATOM     12  C   UNL     1      -2.895   3.858  25.632  0.00  0.00    +0.148 C 
BRANCH  12  11
ATOM      9  C   UNL     1      -1.504   3.778  25.316  0.00  0.00    +0.265 C 
ATOM     10  O   UNL     1      -1.418   4.580  25.488  0.00  0.00    -0.268 OA
ATOM     11  N   UNL     1      -2.241   3.417  25.388  0.00  0.00    -0.199 NA
BRANCH   9   6
ATOM      3  C   UNL     1       0.456   2.453  24.585  0.00  0.00    +0.139 A 
ATOM      4  C   UNL     1       0.067   2.944  24.049  0.00  0.00    +0.037 A 
ATOM      5  C   UNL     1      -0.586   3.386  24.292  0.00  0.00    +0.008 A 
ATOM      6  C   UNL     1      -0.850   3.336  25.072  0.00  0.00    +0.055 A 
ATOM      7  C   UNL     1      -0.461   2.844  25.609  0.00  0.00    +0.008 A 
ATOM      8  C   UNL     1       0.192   2.403  25.365  0.00  0.00    +0.037 A 
BRANCH   3   2
ATOM      1  C   UNL     1       1.000   1.315  23.914  0.00  0.00    +0.252 C 
ATOM      2  O   UNL     1       1.108   2.012  24.342  0.00  0.00    -0.471 OA
ENDBRANCH   3   2
ENDBRANCH   9   6
ENDBRANCH  12  11
ENDBRANCH  13  12
BRANCH  15  16
ATOM     16  C   UNL     1      -5.071   1.968  25.279  0.00  0.00    +0.117 C 
BRANCH  16  17
ATOM     17  C   UNL     1      -4.906   1.564  24.579  0.00  0.00    +0.228 C 
ATOM     18  O   UNL     1      -5.001   1.944  23.852  0.00  0.00    -0.275 OA
ATOM     19  N   UNL     1      -4.646   0.782  24.604  0.00  0.00    -0.276 N 
ATOM     20  C   UNL     1      -4.481   0.379  23.904  0.00  0.00    +0.115 C 
ATOM     21  C   UNL     1      -4.221  -0.404  23.929  0.00  0.00    +0.112 C 
ATOM     22  N   UNL     1      -4.127  -0.784  24.656  0.00  0.00    -0.304 N 
ATOM     23  C   UNL     1      -4.292  -0.380  25.356  0.00  0.00    +0.112 C 
ATOM     24  C   UNL     1      -4.551   0.402  25.331  0.00  0.00    +0.115 C 
BRANCH  22  25
ATOM     25  C   UNL     1      -3.867  -1.566  24.681  0.00  0.00    +0.048 A 
ATOM     26  C   UNL     1      -4.077  -2.090  24.080  0.00  0.00    +0.015 A 
ATOM     27  C   UNL     1      -3.817  -2.873  24.106  0.00  0.00    +0.001 A 
ATOM     28  C   UNL     1      -3.347  -3.131  24.733  0.00  0.00    +0.000 A 
ATOM     29  C   UNL     1      -3.136  -2.607  25.335  0.00  0.00    +0.001 A 
ATOM     30  C   UNL     1      -3.397  -1.824  25.309  0.00  0.00    +0.015 A 
ENDBRANCH  22  25
ENDBRANCH  16  17
ENDBRANCH  15  16
TORSDOF 7
ENDMDL
MODEL 3
REMARK VINA RESULT:     -10.3      0.962      1.477
REMARK  Name = 
REMARK  7 active torsions:
REMARK  status: ('A' for Active; 'I' for Inactive)
REMARK    1  A    between atoms: O_2  and  C_3
REMARK    2  A    between atoms: C_6  and  C_9
REMARK    3  A    between atoms: N_11  and  C_12
REMARK    4  A    between atoms: C_12  and  C_13
REMARK    5  A    between atoms: C_15  and  C_16
REMARK    6  A    between atoms: C_16  and  C_17
REMARK    7  A    between atoms: N_22  and  C_25
REMARK                            x       y       z     vdW  Elec       q    Type
REMARK                         _______ _______ _______ _____ _____    ______ ____
ROOT
ATOM     13  C   UNL     1      -1.439   3.146  25.252  0.00  0.00    +0.170 C 
ATOM     14  O   UNL     1      -1.363   2.328  25.180  0.00  0.00    -0.351 OA
ATOM     15  C   UNL     1      -0.590   2.124  25.386  0.00  0.00    +0.157 C 
ATOM     31  C   UNL     1      -0.188   2.817  25.585  0.00  0.00    +0.212 C 
ATOM     32  O   UNL     1       0.599   2.869  25.824  0.00  0.00    -0.218 OA
ATOM     33  C   UNL     1      -0.713   3.449  25.502  0.00  0.00    +0.213 C 
ATOM     34  O   UNL     1      -0.541   4.243  25.644  0.00  0.00    -0.218 OA
ENDROOT
BRANCH  13  12
ATOM     12  C   UNL     1      -2.120   3.585  25.100  0.00  0.00    +0.148 C 
BRANCH  12  11
ATOM      9  C   UNL     1      -3.523   3.549  24.830  0.00  0.00    +0.265 C 
ATOM     10  O   UNL     1      -3.440   4.183  24.309  0.00  0.00    -0.268 OA
ATOM     11  N   UNL     1      -2.864   3.251  25.225  0.00  0.00    -0.199 NA
BRANCH   9   6
ATOM      3  C   UNL     1      -5.753   2.544  25.208  0.00  0.00    +0.139 A 
ATOM      4  C   UNL     1      -5.239   2.211  24.657  0.00  0.00    +0.037 A 
ATOM      5  C   UNL     1      -4.496   2.546  24.530  0.00  0.00    +0.008 A 
ATOM      6  C   UNL     1      -4.267   3.214  24.956  0.00  0.00    +0.055 A 
ATOM      7  C   UNL     1      -4.781   3.548  25.509  0.00  0.00    +0.008 A 
ATOM      8  C   UNL     1      -5.524   3.213  25.634  0.00  0.00    +0.037 A 
BRANCH   3   2
ATOM      1  C   UNL     1      -6.610   1.679  25.955  0.00  0.00    +0.252 C 
ATOM      2  O   UNL     1      -6.496   2.210  25.334  0.00  0.00    -0.471 OA
ENDBRANCH   3   2
ENDBRANCH   9   6
ENDBRANCH  12  11
ENDBRANCH  13  12
BRANCH  15  16
ATOM     16  C   UNL     1      -0.275   1.362  25.392  0.00  0.00    +0.117 C 
BRANCH  16  17
ATOM     17  C   UNL     1      -0.327   0.888  24.718  0.00  0.00    +0.228 C 
ATOM     18  O   UNL     1       0.117   1.074  24.048  0.00  0.00    -0.275 OA
ATOM     19  N   UNL     1      -0.823   0.229  24.714  0.00  0.00    -0.276 N 
ATOM     20  C   UNL     1      -0.875  -0.244  24.041  0.00  0.00    +0.115 C 
ATOM     21  C   UNL     1      -1.371  -0.903  24.036  0.00  0.00    +0.112 C 
ATOM     22  N   UNL     1      -1.816  -1.089  24.706  0.00  0.00    -0.304 N 
ATOM     23  C   UNL     1      -1.764  -0.615  25.380  0.00  0.00    +0.112 C 
ATOM     24  C   UNL     1      -1.268   0.044  25.384  0.00  0.00    +0.115 C 
BRANCH  22  25
ATOM     25  C   UNL     1      -2.312  -1.748  24.702  0.00  0.00    +0.048 A 
ATOM     26  C   UNL     1      -1.995  -2.503  24.603  0.00  0.00    +0.015 A 
ATOM     27  C   UNL     1      -2.492  -3.162  24.599  0.00  0.00    +0.001 A 
ATOM     28  C   UNL     1      -3.305  -3.065  24.694  0.00  0.00    +0.000 A 
ATOM     29  C   UNL     1      -3.623  -2.311  24.793  0.00  0.00    +0.001 A 
ATOM     30  C   UNL     1      -3.126  -1.652  24.797  0.00  0.00    +0.015 A 
ENDBRANCH  22  25
ENDBRANCH  16  17
ENDBRANCH  15  16
TORSDOF 7
ENDMDL
MODEL 4
REMARK VINA RESULT:     -10.0      1.385      4.850
REMARK  Name = 
REMARK  7 active torsions:
REMARK  status: ('A' for Active; 'I' for Inactive)
REMARK    1  A    between atoms: O_2  and  C_3
REMARK    2  A    between atoms: C_6  and  C_9
REMARK    3  A    between atoms: N_11  and  C_12
REMARK    4  A    between atoms: C_12  and  C_13
REMARK    5  A    between atoms: C_15  and  C_16
REMARK    6  A    between atoms: C_16  and  C_17
REMARK    7  A    between atoms: N_22  and  C_25
REMARK                            x       y       z     vdW  Elec       q    Type
REMARK                         _______ _______ _______ _____ _____    ______ ____
ROOT
ATOM     13  C   UNL     1      -0.186   0.738  24.318  0.00  0.00    +0.170 C 
ATOM     14  O   UNL     1      -0.868   1.201  24.297  0.00  0.00    -0.351 OA
ATOM     15  C   UNL     1      -0.641   1.984  24.164  0.00  0.00    +0.157 C 
ATOM     31  C   UNL     1       0.181   2.004  24.103  0.00  0.00    +0.212 C 
ATOM     32  O   UNL     1       0.641   2.675  23.970  0.00  0.00    -0.218 OA
ATOM     33  C   UNL     1       0.463   1.234  24.198  0.00  0.00    +0.213 C 
ATOM     34  O   UNL     1       1.254   1.001  24.177  0.00  0.00    -0.218 OA
ENDROOT
BRANCH  13  12
ATOM     12  C   UNL     1      -0.157  -0.078  24.438  0.00  0.00    +0.148 C 
BRANCH  12  11
ATOM      9  C   UNL     1      -0.905  -1.243  24.788  0.00  0.00    +0.265 C 
ATOM     10  O   UNL     1      -0.276  -1.509  25.250  0.00  0.00    -0.268 OA
ATOM     11  N   UNL     1      -0.846  -0.528  24.382  0.00  0.00    -0.199 NA
BRANCH   9   6
ATOM      3  C   UNL     1      -2.973  -2.594  24.620  0.00  0.00    +0.139 A 
ATOM      4  C   UNL     1      -2.308  -2.802  24.180  0.00  0.00    +0.037 A 
ATOM      5  C   UNL     1      -1.618  -2.352  24.236  0.00  0.00    +0.008 A 
ATOM      6  C   UNL     1      -1.595  -1.693  24.732  0.00  0.00    +0.055 A 
ATOM      7  C   UNL     1      -2.261  -1.484  25.172  0.00  0.00    +0.008 A 
ATOM      8  C   UNL     1      -2.950  -1.935  25.116  0.00  0.00    +0.037 A 
BRANCH   3   2
ATOM      1  C   UNL     1      -4.254  -2.828  24.031  0.00  0.00    +0.252 C 
ATOM      2  O   UNL     1      -3.662  -3.043  24.564  0.00  0.00    -0.471 OA
ENDBRANCH   3   2
ENDBRANCH   9   6
ENDBRANCH  12  11
ENDBRANCH  13  12
BRANCH  15  16
ATOM     16  C   UNL     1      -1.148   2.631  24.103  0.00  0.00    +0.117 C 
BRANCH  16  17
ATOM     17  C   UNL     1      -1.845   2.571  23.665  0.00  0.00    +0.228 C 
ATOM     18  O   UNL     1      -1.810   2.399  22.858  0.00  0.00    -0.275 OA
ATOM     19  N   UNL     1      -2.575   2.683  24.031  0.00  0.00    -0.276 N 
ATOM     20  C   UNL     1      -3.271   2.623  23.593  0.00  0.00    +0.115 C 
ATOM     21  C   UNL     1      -4.001   2.735  23.960  0.00  0.00    +0.112 C 
ATOM     22  N   UNL     1      -4.036   2.907  24.766  0.00  0.00    -0.304 N 
ATOM     23  C   UNL     1      -3.339   2.967  25.205  0.00  0.00    +0.112 C 
ATOM     24  C   UNL     1      -2.609   2.855  24.838  0.00  0.00    +0.115 C 
BRANCH  22  25
ATOM     25  C   UNL     1      -4.766   3.019  25.133  0.00  0.00    +0.048 A 
ATOM     26  C   UNL     1      -5.020   3.780  25.322  0.00  0.00    +0.015 A 
ATOM     27  C   UNL     1      -5.751   3.891  25.689  0.00  0.00    +0.001 A 
ATOM     28  C   UNL     1      -6.226   3.241  25.866  0.00  0.00    +0.000 A 
ATOM     29  C   UNL     1      -5.973   2.480  25.677  0.00  0.00    +0.001 A 
ATOM     30  C   UNL     1      -5.242   2.368  25.310  0.00  0.00    +0.015 A 
ENDBRANCH  22  25
ENDBRANCH  16  17
ENDBRANCH  15  16
TORSDOF 7
ENDMDL
MODEL 5
REMARK VINA RESULT:      -9.8      1.699      4.505
REMARK  Name = 
REMARK  7 active torsions:
REMARK  status: ('A' for Active; 'I' for Inactive)
REMARK    1  A    between atoms: O_2  and  C_3
REMARK    2  A    between atoms: C_6  and  C_9
REMARK    3  A    between atoms: N_11  and  C_12
REMARK    4  A    between atoms: C_12  and  C_13
REMARK    5  A    between atoms: C_15  and  C_16
REMARK    6  A    between atoms: C_16  and  C_17
REMARK    7  A    between atoms: N_22  and  C_25
REMARK                            x       y       z     vdW  Elec       q    Type
REMARK                         _______ _______ _______ _____ _____    ______ ____
ROOT
ATOM     13  C   UNL     1      -2.375  -0.842  25.024  0.00  0.00    +0.170 C 
ATOM     14  O   UNL     1      -1.878  -0.184  24.991  0.00  0.00    -0.351 OA
ATOM     15  C   UNL     1      -1.099  -0.450  25.052  0.00  0.00    +0.157 C 
ATOM     31  C   UNL     1      -1.114  -1.272  25.122  0.00  0.00    +0.212 C 
ATOM     32  O   UNL     1      -0.457  -1.764  25.196  0.00  0.00    -0.218 OA
ATOM     33  C   UNL     1      -1.903  -1.514  25.105  0.00  0.00    +0.213 C 
ATOM     34  O   UNL     1      -2.172  -2.292  25.159  0.00  0.00    -0.218 OA
ENDROOT
BRANCH  13  12
ATOM     12  C   UNL     1      -3.199  -0.830  24.983  0.00  0.00    +0.148 C 
BRANCH  12  11
ATOM      9  C   UNL     1      -4.329   0.008  24.738  0.00  0.00    +0.265 C 
ATOM     10  O   UNL     1      -4.642  -0.561  24.229  0.00  0.00    -0.268 OA
ATOM     11  N   UNL     1      -3.609  -0.127  25.115  0.00  0.00    -0.199 NA
BRANCH   9   6
ATOM      3  C   UNL     1      -5.559   2.119  25.136  0.00  0.00    +0.139 A 
ATOM      4  C   UNL     1      -4.936   2.101  24.597  0.00  0.00    +0.037 A 
ATOM      5  C   UNL     1      -4.526   1.397  24.464  0.00  0.00    +0.008 A 
ATOM      6  C   UNL     1      -4.740   0.712  24.871  0.00  0.00    +0.055 A 
ATOM      7  C   UNL     1      -5.364   0.731  25.411  0.00  0.00    +0.008 A 
ATOM      8  C   UNL     1      -5.773   1.435  25.543  0.00  0.00    +0.037 A 
BRANCH   3   2
ATOM      1  C   UNL     1      -5.584   3.466  25.613  0.00  0.00    +0.252 C 
ATOM      2  O   UNL     1      -5.969   2.822  25.269  0.00  0.00    -0.471 OA
ENDBRANCH   3   2
ENDBRANCH   9   6
ENDBRANCH  12  11
ENDBRANCH  13  12
BRANCH  15  16
ATOM     16  C   UNL     1      -0.424   0.024  25.044  0.00  0.00    +0.117 C 
BRANCH  16  17
ATOM     17  C   UNL     1      -0.305   0.563  24.430  0.00  0.00    +0.228 C 
ATOM     18  O   UNL     1      -0.024   0.301  23.700  0.00  0.00    -0.275 OA
ATOM     19  N   UNL     1      -0.467   1.363  24.547  0.00  0.00    -0.276 N 
ATOM     20  C   UNL     1      -0.348   1.902  23.934  0.00  0.00    +0.115 C 
ATOM     21  C   UNL     1      -0.509   2.702  24.050  0.00  0.00    +0.112 C 
ATOM     22  N   UNL     1      -0.790   2.965  24.780  0.00  0.00    -0.304 N 
ATOM     23  C   UNL     1      -0.910   2.425  25.394  0.00  0.00    +0.112 C 
ATOM     24  C   UNL     1      -0.748   1.625  25.277  0.00  0.00    +0.115 C 
BRANCH  22  25
ATOM     25  C   UNL     1      -0.952   3.765  24.896  0.00  0.00    +0.048 A 
ATOM     26  C   UNL     1      -0.404   4.335  24.664  0.00  0.00    +0.015 A 
ATOM     27  C   UNL     1      -0.566   5.136  24.781  0.00  0.00    +0.001 A 
ATOM     28  C   UNL     1      -1.277   5.365  25.130  0.00  0.00    +0.000 A 
ATOM     29  C   UNL     1      -1.826   4.796  25.363  0.00  0.00    +0.001 A 
ATOM     30  C   UNL     1      -1.664   3.995  25.246  0.00  0.00    +0.015 A 
ENDBRANCH  22  25
ENDBRANCH  16  17
ENDBRANCH  15  16
TORSDOF 7
ENDMDL
MODEL 6
REMARK VINA RESULT:      -9.5      1.839      4.634
REMARK  Name = 
REMARK  7 active torsions:
REMARK  status: ('A' for Active; 'I' for Inactive)
REMARK    1  A    between atoms: O_2  and  C_3
REMARK    2  A    between atoms: C_6  and  C_9
REMARK    3  A    between atoms: N_11  and  C_12
REMARK    4  A    between atoms: C_12  and  C_13
REMARK    5  A    between atoms: C_15  and  C_16
REMARK    6  A    between atoms: C_16  and  C_17
REMARK    7  A    between atoms: N_22  and  C_25
REMARK                            x       y       z     vdW  Elec       q    Type
REMARK                         _______ _______ _______ _____ _____    ______ ____
ROOT
ATOM     13  C   UNL     1      -3.689   2.423  24.977  0.00  0.00    +0.170 C 
ATOM     14  O   UNL     1      -2.876   2.355  24.856  0.00  0.00    -0.351 OA
ATOM     15  C   UNL     1      -2.556   3.116  24.839  0.00  0.00    +0.157 C 
ATOM     31  C   UNL     1      -3.171   3.654  24.950  0.00  0.00    +0.212 C 
ATOM     32  O   UNL     1      -3.099   4.475  24.971  0.00  0.00    -0.218 OA
ATOM     33  C   UNL     1      -3.872   3.226  25.035  0.00  0.00    +0.213 C 
ATOM     34  O   UNL     1      -4.622   3.544  25.157  0.00  0.00    -0.218 OA
ENDROOT
BRANCH  13  12
ATOM     12  C   UNL     1      -4.225   1.799  25.031  0.00  0.00    +0.148 C 
BRANCH  12  11
ATOM      9  C   UNL     1      -4.480   0.393  25.042  0.00  0.00    +0.265 C 
ATOM     10  O   UNL     1      -5.236   0.532  25.341  0.00  0.00    -0.268 OA
ATOM     11  N   UNL     1      -3.975   1.026  24.888  0.00  0.00    -0.199 NA
BRANCH   9   6
ATOM      3  C   UNL     1      -3.728  -1.926  24.612  0.00  0.00    +0.139 A 
ATOM      4  C   UNL     1      -3.556  -1.564  25.332  0.00  0.00    +0.037 A 
ATOM      5  C   UNL     1      -3.806  -0.791  25.476  0.00  0.00    +0.008 A 
ATOM      6  C   UNL     1      -4.229  -0.380  24.899  0.00  0.00    +0.055 A 
ATOM      7  C   UNL     1      -4.401  -0.742  24.177  0.00  0.00    +0.008 A 
ATOM      8  C   UNL     1      -4.150  -1.515  24.034  0.00  0.00    +0.037 A 
BRANCH   3   2
ATOM      1  C   UNL     1      -2.672  -2.865  24.395  0.00  0.00    +0.252 C 
ATOM      2  O   UNL     1      -3.477  -2.698  24.468  0.00  0.00    -0.471 OA
ENDBRANCH   3   2
ENDBRANCH   9   6
ENDBRANCH  12  11
ENDBRANCH  13  12
BRANCH  15  16
ATOM     16  C   UNL     1      -1.760   3.304  24.731  0.00  0.00    +0.117 C 
BRANCH  16  17
ATOM     17  C   UNL     1      -1.178   2.894  25.148  0.00  0.00    +0.228 C 
ATOM     18  O   UNL     1      -1.127   2.971  25.968  0.00  0.00    -0.275 OA
ATOM     19  N   UNL     1      -0.647   2.408  24.745  0.00  0.00    -0.276 N 
ATOM     20  C   UNL     1      -0.065   1.999  25.162  0.00  0.00    +0.115 C 
ATOM     21  C   UNL     1       0.466   1.513  24.759  0.00  0.00    +0.112 C 
ATOM     22  N   UNL     1       0.416   1.436  23.939  0.00  0.00    -0.304 N 
ATOM     23  C   UNL     1      -0.167   1.846  23.522  0.00  0.00    +0.112 C 
ATOM     24  C   UNL     1      -0.698   2.332  23.925  0.00  0.00    +0.115 C 
BRANCH  22  25
ATOM     25  C   UNL     1       0.947   0.950  23.537  0.00  0.00    +0.048 A 
ATOM     26  C   UNL     1       0.685   0.247  23.195  0.00  0.00    +0.015 A 
ATOM     27  C   UNL     1       1.217  -0.239  22.793  0.00  0.00    +0.001 A 
ATOM     28  C   UNL     1       2.010  -0.021  22.732  0.00  0.00    +0.000 A 
ATOM     29  C   UNL     1       2.272   0.683  23.072  0.00  0.00    +0.001 A 
ATOM     30  C   UNL     1       1.740   1.169  23.475  0.00  0.00    +0.015 A 
ENDBRANCH  22  25
ENDBRANCH  16  17
ENDBRANCH  15  16
TORSDOF 7
ENDMDL
