MODEL 1
REMARK VINA RESULT:     -13.8      0.000      0.000
REMARK  Name = 
REMARK  5 active torsions:
REMARK  status: ('A' for Active; 'I' for Inactive)
REMARK    1  A    between atoms: C_4  and  C_5
REMARK    2  A    between atoms: C_5  and  N_6
REMARK    3  A    between atoms: C_15  and  N_16
REMARK    4  A    between atoms: C_17  and  C_19
REMARK    5  A    between atoms: C_22  and  C_25
REMARK                            x       y       z     vdW  Elec       q    Type
REMARK                         _______ _______ _______ _____ _____    ______ ____
ROOT
ATOM      6  N   UNL     1      -3.148   3.438  25.210  0.00  0.00    -0.269 NA
ATOM      7  C   UNL     1      -3.275   4.243  25.395  0.00  0.00    +0.074 C 
ATOM      8  C   UNL     1      -4.262   4.247  25.445  0.00  0.00    +0.039 C 
ATOM      9  C   UNL     1      -5.056   4.415  25.523  0.00  0.00    +0.011 C 
ATOM     10  C   UNL     1      -4.655   3.857  25.378  0.00  0.00    +0.054 C 
ATOM     11  C   UNL     1      -3.701   3.869  25.334  0.00  0.00    +0.078 C 
ATOM     12  C   UNL     1      -4.711   2.960  25.182  0.00  0.00    +0.041 A 
ATOM     13  C   UNL     1      -5.268   2.362  25.077  0.00  0.00    +0.014 A 
ATOM     14  C   UNL     1      -5.021   1.596  24.894  0.00  0.00    +0.023 A 
ATOM     15  C   UNL     1      -4.217   1.429  24.817  0.00  0.00    +0.130 A 
ATOM     27  C   UNL     1      -3.659   2.028  24.922  0.00  0.00    +0.276 A 
ATOM     28  O   UNL     1      -2.855   1.862  24.845  0.00  0.00    -0.266 OA
ATOM     29  N   UNL     1      -3.907   2.794  25.105  0.00  0.00    -0.298 N 
ATOM     30  C   UNL     1      -4.311   3.310  25.240  0.00  0.00    +0.110 C 
ENDROOT
BRANCH  15  16
ATOM     16  N   UNL     1      -3.970   0.664  24.635  0.00  0.00    -0.171 NA
ATOM     17  C   UNL     1      -4.306   0.019  25.024  0.00  0.00    +0.269 C 
ATOM     18  O   UNL     1      -4.888   0.140  25.596  0.00  0.00    -0.268 OA
BRANCH  17  19
ATOM     19  C   UNL     1      -4.061  -0.747  24.843  0.00  0.00    +0.055 A 
ATOM     20  C   UNL     1      -4.291  -1.097  24.131  0.00  0.00    +0.005 A 
ATOM     21  C   UNL     1      -4.045  -1.863  23.949  0.00  0.00    +0.010 A 
ATOM     22  C   UNL     1      -3.569  -2.279  24.480  0.00  0.00    +0.068 A 
ATOM     23  C   UNL     1      -3.338  -1.931  25.190  0.00  0.00    +0.010 A 
ATOM     24  C   UNL     1      -3.585  -1.164  25.372  0.00  0.00    +0.005 A 
BRANCH  22  25
ATOM     25  C   UNL     1      -3.322  -3.046  24.298  0.00  0.00    +0.100 C 
ATOM     26  N   UNL     1      -3.077  -3.812  24.116  0.00  0.00    -0.191 NA
ENDBRANCH  22  25
ENDBRANCH  17  19
ENDBRANCH  15  16
BRANCH   6   5
ATOM      5  C   UNL     1      -2.736   2.745  25.035  0.00  0.00    +0.101 C 
BRANCH   5   4
ATOM      1  C   UNL     1      -0.271   3.055  23.531  0.00  0.00    +0.130 C 
ATOM      2  N   UNL     1      -0.802   2.921  24.148  0.00  0.00    -0.324 N 
ATOM      3  C   UNL     1      -1.626   2.945  24.093  0.00  0.00    +0.073 A 
ATOM      4  C   UNL     1      -1.935   2.779  24.839  0.00  0.00    +0.012 A 
ATOM     31  C   UNL     1      -1.303   2.653  25.356  0.00  0.00    +0.015 A 
ATOM     32  C   UNL     1      -0.604   2.741  24.928  0.00  0.00    +0.060 A 
ATOM     33  C   UNL     1       0.124   2.645  25.304  0.00  0.00    +0.017 A 
ATOM     34  C   UNL     1       0.152   2.462  26.108  0.00  0.00    +0.001 A 
ATOM     35  C   UNL     1      -0.548   2.373  26.536  0.00  0.00    +0.000 A 
ATOM     36  C   UNL     1      -1.276   2.469  26.159  0.00  0.00    +0.001 A 
ENDBRANCH   5   4
ENDBRANCH   6   5
TORSDOF 5
ENDMDL
MODEL 2
REMARK VINA RESULT:     -13.0      1.516      4.232
REMARK  Name = 
REMARK  5 active torsions:
REMARK  status: ('A' for Active; 'I' for Inactive)
REMARK    1  A    between atoms: C_4  and  C_5
REMARK    2  A    between atoms: C_5  and  N_6
REMARK    3  A    between atoms: C_15  and  N_16
REMARK    4  A    between atoms: C_17  and  C_19
REMARK    5  A    between atoms: C_22  and  C_25
REMARK                            x       y       z     vdW  Elec       q    Type
REMARK                         _______ _______ _______ _____ _____    ______ ____
ROOT
ATOM      6  N   UNL     1      -4.559   0.720  24.863  0.00  0.00    -0.269 NA
ATOM      7  C   UNL     1      -5.333   0.864  25.142  0.00  0.00    +0.074 C 
ATOM      8  C   UNL     1      -5.326   1.852  25.150  0.00  0.00    +0.039 C 
ATOM      9  C   UNL     1      -5.479   2.649  25.214  0.00  0.00    +0.011 C 
ATOM     10  C   UNL     1      -4.945   2.238  25.018  0.00  0.00    +0.054 C 
ATOM     11  C   UNL     1      -4.968   1.283  25.016  0.00  0.00    +0.078 C 
ATOM     12  C   UNL     1      -4.081   2.276  24.708  0.00  0.00    +0.041 A 
ATOM     13  C   UNL     1      -3.497   2.822  24.504  0.00  0.00    +0.014 A 
ATOM     14  C   UNL     1      -2.762   2.560  24.237  0.00  0.00    +0.023 A 
ATOM     15  C   UNL     1      -2.611   1.751  24.174  0.00  0.00    +0.130 A 
ATOM     27  C   UNL     1      -3.194   1.205  24.378  0.00  0.00    +0.276 A 
ATOM     28  O   UNL     1      -3.042   0.396  24.315  0.00  0.00    -0.266 OA
ATOM     29  N   UNL     1      -3.929   1.468  24.645  0.00  0.00    -0.298 N 
ATOM     30  C   UNL     1      -4.422   1.882  24.826  0.00  0.00    +0.110 C 
ENDROOT
BRANCH  15  16
ATOM     16  N   UNL     1      -1.875   1.490  23.908  0.00  0.00    -0.171 NA
ATOM     17  C   UNL     1      -1.189   1.707  24.312  0.00  0.00    +0.269 C 
ATOM     18  O   UNL     1      -1.239   2.185  24.982  0.00  0.00    -0.268 OA
BRANCH  17  19
ATOM     19  C   UNL     1      -0.454   1.446  24.045  0.00  0.00    +0.055 A 
ATOM     20  C   UNL     1       0.213   1.923  24.141  0.00  0.00    +0.005 A 
ATOM     21  C   UNL     1       0.949   1.661  23.874  0.00  0.00    +0.010 A 
ATOM     22  C   UNL     1       1.017   0.923  23.513  0.00  0.00    +0.068 A 
ATOM     23  C   UNL     1       0.352   0.446  23.418  0.00  0.00    +0.010 A 
ATOM     24  C   UNL     1      -0.384   0.707  23.684  0.00  0.00    +0.005 A 
BRANCH  22  25
ATOM     25  C   UNL     1       1.754   0.661  23.246  0.00  0.00    +0.100 C 
ATOM     26  N   UNL     1       2.490   0.399  22.980  0.00  0.00    -0.191 NA
ENDBRANCH  22  25
ENDBRANCH  17  19
ENDBRANCH  15  16
BRANCH   6   5
ATOM      5  C   UNL     1      -3.895   0.294  24.620  0.00  0.00    +0.101 C 
BRANCH   5   4
ATOM      1  C   UNL     1      -4.503  -2.290  23.443  0.00  0.00    +0.130 C 
ATOM      2  N   UNL     1      -4.228  -1.708  23.959  0.00  0.00    -0.324 N 
ATOM      3  C   UNL     1      -4.299  -0.892  23.852  0.00  0.00    +0.073 A 
ATOM      4  C   UNL     1      -3.949  -0.520  24.499  0.00  0.00    +0.012 A 
ATOM     31  C   UNL     1      -3.661  -1.105  25.006  0.00  0.00    +0.015 A 
ATOM     32  C   UNL     1      -3.834  -1.839  24.671  0.00  0.00    +0.060 A 
ATOM     33  C   UNL     1      -3.610  -2.532  25.059  0.00  0.00    +0.017 A 
ATOM     34  C   UNL     1      -3.213  -2.491  25.781  0.00  0.00    +0.001 A 
ATOM     35  C   UNL     1      -3.040  -1.757  26.116  0.00  0.00    +0.000 A 
ATOM     36  C   UNL     1      -3.264  -1.064  25.728  0.00  0.00    +0.001 A 
ENDBRANCH   5   4
ENDBRANCH   6   5
TORSDOF 5
ENDMDL
MODEL 3
REMARK VINA RESULT:     -12.8      1.499      4.258
REMARK  Name = 
REMARK  5 active torsions:
REMARK  status: ('A' for Active; 'I' for Inactive)
REMARK    1  A    between atoms: C_4  and  C_5
REMARK    2  A    between atoms: C_5  and  N_6
REMARK    3  A    between atoms: C_15  and  N_16
REMARK    4  A    between atoms: C_17  and  C_19
REMARK    5  A    between atoms: C_22  and  C_25
REMARK                            x       y       z     vdW  Elec       q    Type
REMARK                         _______ _______ _______ _____ _____    ______ ____
ROOT
ATOM      6  N   UNL     1      -1.485  -0.912  24.596  0.00  0.00    -0.269 NA
ATOM      7  C   UNL     1      -1.061  -1.630  24.547  0.00  0.00    +0.074 C 
ATOM      8  C   UNL     1      -1.816  -2.266  24.506  0.00  0.00    +0.039 C 
ATOM      9  C   UNL     1      -2.316  -2.907  24.464  0.00  0.00    +0.011 C 
ATOM     10  C   UNL     1      -2.371  -2.209  24.511  0.00  0.00    +0.054 C 
ATOM     11  C   UNL     1      -1.630  -1.607  24.550  0.00  0.00    +0.078 C 
ATOM     12  C   UNL     1      -2.995  -1.537  24.557  0.00  0.00    +0.041 A 
ATOM     13  C   UNL     1      -3.812  -1.420  24.567  0.00  0.00    +0.014 A 
ATOM     14  C   UNL     1      -4.119  -0.656  24.618  0.00  0.00    +0.023 A 
ATOM     15  C   UNL     1      -3.609  -0.009  24.661  0.00  0.00    +0.130 A 
ATOM     27  C   UNL     1      -2.793  -0.125  24.651  0.00  0.00    +0.276 A 
ATOM     28  O   UNL     1      -2.283   0.523  24.693  0.00  0.00    -0.266 OA
ATOM     29  N   UNL     1      -2.486  -0.889  24.599  0.00  0.00    -0.298 N 
ATOM     30  C   UNL     1      -2.461  -1.556  24.555  0.00  0.00    +0.110 C 
ENDROOT
BRANCH  15  16
ATOM     16  N   UNL     1      -3.917   0.755  24.712  0.00  0.00    -0.171 NA
ATOM     17  C   UNL     1      -4.529   0.917  25.241  0.00  0.00    +0.269 C 
ATOM     18  O   UNL     1      -4.833   0.317  25.718  0.00  0.00    -0.268 OA
BRANCH  17  19
ATOM     19  C   UNL     1      -4.837   1.681  25.294  0.00  0.00    +0.055 A 
ATOM     20  C   UNL     1      -4.332   2.333  25.271  0.00  0.00    +0.005 A 
ATOM     21  C   UNL     1      -4.640   3.096  25.324  0.00  0.00    +0.010 A 
ATOM     22  C   UNL     1      -5.455   3.207  25.398  0.00  0.00    +0.068 A 
ATOM     23  C   UNL     1      -5.960   2.556  25.421  0.00  0.00    +0.010 A 
ATOM     24  C   UNL     1      -5.651   1.792  25.368  0.00  0.00    +0.005 A 
BRANCH  22  25
ATOM     25  C   UNL     1      -5.764   3.971  25.451  0.00  0.00    +0.100 C 
ATOM     26  N   UNL     1      -6.073   4.734  25.503  0.00  0.00    -0.191 NA
ENDBRANCH  22  25
ENDBRANCH  17  19
ENDBRANCH  15  16
BRANCH   6   5
ATOM      5  C   UNL     1      -1.619  -0.099  24.650  0.00  0.00    +0.101 C 
BRANCH   5   4
ATOM      1  C   UNL     1       0.559   1.340  23.377  0.00  0.00    +0.130 C 
ATOM      2  N   UNL     1      -0.000   1.092  23.931  0.00  0.00    -0.324 N 
ATOM      3  C   UNL     1      -0.557   0.493  23.823  0.00  0.00    +0.073 A 
ATOM      4  C   UNL     1      -1.001   0.430  24.516  0.00  0.00    +0.012 A 
ATOM     31  C   UNL     1      -0.717   0.991  25.052  0.00  0.00    +0.015 A 
ATOM     32  C   UNL     1      -0.099   1.400  24.690  0.00  0.00    +0.060 A 
ATOM     33  C   UNL     1       0.294   1.999  25.098  0.00  0.00    +0.017 A 
ATOM     34  C   UNL     1       0.068   2.190  25.869  0.00  0.00    +0.001 A 
ATOM     35  C   UNL     1      -0.550   1.781  26.231  0.00  0.00    +0.000 A 
ATOM     36  C   UNL     1      -0.943   1.182  25.823  0.00  0.00    +0.001 A 
ENDBRANCH   5   4
ENDBRANCH   6   5
TORSDOF 5
ENDMDL
MODEL 4
REMARK VINA RESULT:     -12.3      1.259      3.109
REMARK  Name = 
REMARK  5 active torsions:
REMARK  status: ('A' for Active; 'I' for Inactive)
REMARK    1  A    between atoms: C_4  and  C_5
REMARK    2  A    between atoms: C_5  and  N_6
REMARK    3  A    between atoms: C_15  and  N_16
REMARK    4  A    between atoms: C_17  and  C_19
REMARK    5  A    between atoms: C_22  and  C_25
REMARK                            x       y       z     vdW  Elec       q    Type
REMARK                         _______ _______ _______ _____ _____    ______ ____
ROOT
ATOM      6  N   UNL     1      -1.837   3.086  25.300  0.00  0.00    -0.269 NA
ATOM      7  C   UNL     1      -1.481   3.811  25.514  0.00  0.00    +0.074 C 
ATOM      8  C   UNL     1      -0.586   3.486  25.778  0.00  0.00    +0.039 C 
ATOM      9  C   UNL     1       0.182   3.381  26.027  0.00  0.00    +0.011 C 
ATOM     10  C   UNL     1      -0.347   2.982  25.795  0.00  0.00    +0.054 C 
ATOM     11  C   UNL     1      -1.207   3.312  25.544  0.00  0.00    +0.078 C 
ATOM     12  C   UNL     1      -0.563   2.108  25.611  0.00  0.00    +0.041 A 
ATOM     13  C   UNL     1      -0.237   1.351  25.625  0.00  0.00    +0.014 A 
ATOM     14  C   UNL     1      -0.689   0.703  25.389  0.00  0.00    +0.023 A 
ATOM     15  C   UNL     1      -1.467   0.812  25.137  0.00  0.00    +0.130 A 
ATOM     27  C   UNL     1      -1.793   1.569  25.122  0.00  0.00    +0.276 A 
ATOM     28  O   UNL     1      -2.572   1.679  24.871  0.00  0.00    -0.266 OA
ATOM     29  N   UNL     1      -1.341   2.218  25.359  0.00  0.00    -0.298 N 
ATOM     30  C   UNL     1      -0.821   2.576  25.582  0.00  0.00    +0.110 C 
ENDROOT
BRANCH  15  16
ATOM     16  N   UNL     1      -1.918   0.163  24.901  0.00  0.00    -0.171 NA
ATOM     17  C   UNL     1      -1.896  -0.536  25.339  0.00  0.00    +0.269 C 
ATOM     18  O   UNL     1      -1.422  -0.585  26.012  0.00  0.00    -0.268 OA
BRANCH  17  19
ATOM     19  C   UNL     1      -2.347  -1.185  25.103  0.00  0.00    +0.055 A 
ATOM     20  C   UNL     1      -3.132  -1.252  25.346  0.00  0.00    +0.005 A 
ATOM     21  C   UNL     1      -3.583  -1.901  25.111  0.00  0.00    +0.010 A 
ATOM     22  C   UNL     1      -3.248  -2.483  24.632  0.00  0.00    +0.068 A 
ATOM     23  C   UNL     1      -2.463  -2.417  24.388  0.00  0.00    +0.010 A 
ATOM     24  C   UNL     1      -2.012  -1.767  24.624  0.00  0.00    +0.005 A 
BRANCH  22  25
ATOM     25  C   UNL     1      -3.699  -3.134  24.395  0.00  0.00    +0.100 C 
ATOM     26  N   UNL     1      -4.150  -3.783  24.160  0.00  0.00    -0.191 NA
ENDBRANCH  22  25
ENDBRANCH  17  19
ENDBRANCH  15  16
BRANCH   6   5
ATOM      5  C   UNL     1      -2.416   2.561  25.036  0.00  0.00    +0.101 C 
BRANCH   5   4
ATOM      1  C   UNL     1      -4.231   3.614  23.027  0.00  0.00    +0.130 C 
ATOM      2  N   UNL     1      -3.928   3.332  23.742  0.00  0.00    -0.324 N 
ATOM      3  C   UNL     1      -3.153   3.084  23.876  0.00  0.00    +0.073 A 
ATOM      4  C   UNL     1      -3.094   2.849  24.665  0.00  0.00    +0.012 A 
ATOM     31  C   UNL     1      -3.834   2.951  25.017  0.00  0.00    +0.015 A 
ATOM     32  C   UNL     1      -4.349   3.250  24.447  0.00  0.00    +0.060 A 
ATOM     33  C   UNL     1      -5.135   3.409  24.642  0.00  0.00    +0.017 A 
ATOM     34  C   UNL     1      -5.404   3.269  25.409  0.00  0.00    +0.001 A 
ATOM     35  C   UNL     1      -4.890   2.970  25.980  0.00  0.00    +0.000 A 
ATOM     36  C   UNL     1      -4.104   2.811  25.784  0.00  0.00    +0.001 A 
ENDBRANCH   5   4
ENDBRANCH   6   5
TORSDOF 5
ENDMDL
MODEL 5
REMARK VINA RESULT:     -12.2      1.856      5.241
REMARK  Name = 
REMARK  5 active torsions:
REMARK  status: ('A' for Active; 'I' for Inactive)
REMARK    1  A    between atoms: C_4  and  C_5
REMARK    2  A    between atoms: C_5  and  N_6
REMARK    3  A    between atoms: C_15  and  N_16
REMARK    4  A    between atoms: C_17  and  C_19
REMARK    5  A    between atoms: C_22  and  C_25
REMARK                            x       y       z     vdW  Elec       q    Type
REMARK                         _______ _______ _______ _____ _____    ______ ____
ROOT
ATOM      6  N   UNL     1      -1.075  -0.590  24.254  0.00  0.00    -0.269 NA
ATOM      7  C   UNL     1      -0.438  -1.061  23.987  0.00  0.00    +0.074 C 
ATOM      8  C   UNL     1       0.219  -0.352  23.784  0.00  0.00    +0.039 C 
ATOM      9  C   UNL     1       0.860   0.103  23.571  0.00  0.00    +0.011 C 
ATOM     10  C   UNL     1       0.212   0.204  23.820  0.00  0.00    +0.054 C 
ATOM     11  C   UNL     1      -0.412  -0.492  24.012  0.00  0.00    +0.078 C 
ATOM     12  C   UNL     1      -0.365   0.872  24.076  0.00  0.00    +0.041 A 
ATOM     13  C   UNL     1      -0.405   1.693  24.141  0.00  0.00    +0.014 A 
ATOM     14  C   UNL     1      -1.094   2.051  24.421  0.00  0.00    +0.023 A 
ATOM     15  C   UNL     1      -1.742   1.587  24.636  0.00  0.00    +0.130 A 
ATOM     27  C   UNL     1      -1.701   0.766  24.571  0.00  0.00    +0.276 A 
ATOM     28  O   UNL     1      -2.349   0.303  24.786  0.00  0.00    -0.266 OA
ATOM     29  N   UNL     1      -1.013   0.409  24.291  0.00  0.00    -0.298 N 
ATOM     30  C   UNL     1      -0.391   0.339  24.054  0.00  0.00    +0.110 C 
ENDROOT
BRANCH  15  16
ATOM     16  N   UNL     1      -2.430   1.946  24.916  0.00  0.00    -0.171 NA
ATOM     17  C   UNL     1      -2.769   2.570  24.496  0.00  0.00    +0.269 C 
ATOM     18  O   UNL     1      -2.420   2.835  23.797  0.00  0.00    -0.268 OA
BRANCH  17  19
ATOM     19  C   UNL     1      -3.458   2.929  24.775  0.00  0.00    +0.055 A 
ATOM     20  C   UNL     1      -3.414   3.502  25.367  0.00  0.00    +0.005 A 
ATOM     21  C   UNL     1      -4.102   3.861  25.646  0.00  0.00    +0.010 A 
ATOM     22  C   UNL     1      -4.835   3.646  25.332  0.00  0.00    +0.068 A 
ATOM     23  C   UNL     1      -4.879   3.074  24.740  0.00  0.00    +0.010 A 
ATOM     24  C   UNL     1      -4.190   2.715  24.461  0.00  0.00    +0.005 A 
BRANCH  22  25
ATOM     25  C   UNL     1      -5.524   4.006  25.611  0.00  0.00    +0.100 C 
ATOM     26  N   UNL     1      -6.213   4.364  25.889  0.00  0.00    -0.191 NA
ENDBRANCH  22  25
ENDBRANCH  17  19
ENDBRANCH  15  16
BRANCH   6   5
ATOM      5  C   UNL     1      -1.823  -0.402  24.546  0.00  0.00    +0.101 C 
BRANCH   5   4
ATOM      1  C   UNL     1      -3.010  -2.516  26.144  0.00  0.00    +0.130 C 
ATOM      2  N   UNL     1      -2.874  -1.972  25.538  0.00  0.00    -0.324 N 
ATOM      3  C   UNL     1      -2.250  -1.433  25.502  0.00  0.00    +0.073 A 
ATOM      4  C   UNL     1      -2.328  -1.001  24.804  0.00  0.00    +0.012 A 
ATOM     31  C   UNL     1      -3.000  -1.273  24.409  0.00  0.00    +0.015 A 
ATOM     32  C   UNL     1      -3.337  -1.873  24.863  0.00  0.00    +0.060 A 
ATOM     33  C   UNL     1      -4.022  -2.252  24.604  0.00  0.00    +0.017 A 
ATOM     34  C   UNL     1      -4.370  -2.030  23.889  0.00  0.00    +0.001 A 
ATOM     35  C   UNL     1      -4.033  -1.429  23.435  0.00  0.00    +0.000 A 
ATOM     36  C   UNL     1      -3.348  -1.051  23.695  0.00  0.00    +0.001 A 
ENDBRANCH   5   4
ENDBRANCH   6   5
TORSDOF 5
ENDMDL
MODEL 6
REMARK VINA RESULT:     -11.3      1.978      4.810
REMARK  Name = 
REMARK  5 active torsions:
REMARK  status: ('A' for Active; 'I' for Inactive)
REMARK    1  A    between atoms: C_4  and  C_5
REMARK    2  A    between atoms: C_5  and  N_6
REMARK    3  A    between atoms: C_15  and  N_16
REMARK    4  A    between atoms: C_17  and  C_19
REMARK    5  A    between atoms: C_22  and  C_25
REMARK                            x       y       z     vdW  Elec       q    Type
REMARK                         _______ _______ _______ _____ _____    ______ ____
ROOT
ATOM      6  N   UNL     1      -2.736  -1.607  24.320  0.00  0.00    -0.269 NA
ATOM      7  C   UNL     1      -2.974  -2.384  24.128  0.00  0.00    +0.074 C 
ATOM      8  C   UNL     1      -3.949  -2.245  24.050  0.00  0.00    +0.039 C 
ATOM      9  C   UNL     1      -4.756  -2.297  23.949  0.00  0.00    +0.011 C 
ATOM     10  C   UNL     1      -4.283  -1.803  24.107  0.00  0.00    +0.054 C 
ATOM     11  C   UNL     1      -3.343  -1.953  24.179  0.00  0.00    +0.078 C 
ATOM     12  C   UNL     1      -4.215  -0.908  24.307  0.00  0.00    +0.041 A 
ATOM     13  C   UNL     1      -4.682  -0.235  24.399  0.00  0.00    +0.014 A 
ATOM     14  C   UNL     1      -4.333   0.486  24.592  0.00  0.00    +0.023 A 
ATOM     15  C   UNL     1      -3.515   0.535  24.693  0.00  0.00    +0.130 A 
ATOM     27  C   UNL     1      -3.047  -0.138  24.601  0.00  0.00    +0.276 A 
ATOM     28  O   UNL     1      -2.230  -0.089  24.702  0.00  0.00    -0.266 OA
ATOM     29  N   UNL     1      -3.397  -0.860  24.407  0.00  0.00    -0.298 N 
ATOM     30  C   UNL     1      -3.868  -1.312  24.259  0.00  0.00    +0.110 C 
ENDROOT
BRANCH  15  16
ATOM     16  N   UNL     1      -3.166   1.257  24.886  0.00  0.00    -0.171 NA
ATOM     17  C   UNL     1      -3.386   1.942  24.483  0.00  0.00    +0.269 C 
ATOM     18  O   UNL     1      -3.955   1.905  23.886  0.00  0.00    -0.268 OA
BRANCH  17  19
ATOM     19  C   UNL     1      -3.038   2.664  24.675  0.00  0.00    +0.055 A 
ATOM     20  C   UNL     1      -3.452   3.214  25.130  0.00  0.00    +0.005 A 
ATOM     21  C   UNL     1      -3.103   3.937  25.323  0.00  0.00    +0.010 A 
ATOM     22  C   UNL     1      -2.340   4.109  25.060  0.00  0.00    +0.068 A 
ATOM     23  C   UNL     1      -1.926   3.560  24.606  0.00  0.00    +0.010 A 
ATOM     24  C   UNL     1      -2.275   2.837  24.413  0.00  0.00    +0.005 A 
BRANCH  22  25
ATOM     25  C   UNL     1      -1.991   4.832  25.253  0.00  0.00    +0.100 C 
ATOM     26  N   UNL     1      -1.642   5.554  25.445  0.00  0.00    -0.191 NA
ENDBRANCH  22  25
ENDBRANCH  17  19
ENDBRANCH  15  16
BRANCH   6   5
ATOM      5  C   UNL     1      -2.234  -0.980  24.510  0.00  0.00    +0.101 C 
BRANCH   5   4
ATOM      1  C   UNL     1       0.216  -1.948  25.734  0.00  0.00    +0.130 C 
ATOM      2  N   UNL     1      -0.310  -1.568  25.224  0.00  0.00    -0.324 N 
ATOM      3  C   UNL     1      -1.133  -1.571  25.285  0.00  0.00    +0.073 A 
ATOM      4  C   UNL     1      -1.436  -1.123  24.662  0.00  0.00    +0.012 A 
ATOM     31  C   UNL     1      -0.799  -0.842  24.216  0.00  0.00    +0.015 A 
ATOM     32  C   UNL     1      -0.104  -1.117  24.564  0.00  0.00    +0.060 A 
ATOM     33  C   UNL     1       0.627  -0.922  24.236  0.00  0.00    +0.017 A 
ATOM     34  C   UNL     1       0.661  -0.452  23.559  0.00  0.00    +0.001 A 
ATOM     35  C   UNL     1      -0.034  -0.177  23.211  0.00  0.00    +0.000 A 
ATOM     36  C   UNL     1      -0.765  -0.372  23.539  0.00  0.00    +0.001 A 
ENDBRANCH   5   4
ENDBRANCH   6   5
TORSDOF 5
ENDMDL
MODEL 7
REMARK VINA RESULT:     -10.9      1.854      2.929
REMARK  Name = 
REMARK  5 active torsions:
REMARK  status: ('A' for Active; 'I' for Inactive)
REMARK    1  A    between atoms: C_4  and  C_5
REMARK    2  A    between atoms: C_5  and  N_6
REMARK    3  A    between atoms: C_15  and  N_16
REMARK    4  A    between atoms: C_17  and  C_19
REMARK    5  A    between atoms: C_22  and  C_25
REMARK                            x       y       z     vdW  Elec       q    Type
REMARK                         _______ _______ _______ _____ _____    ______ ____
ROOT
ATOM      6  N   UNL     1      -4.554   2.475  25.196  0.00  0.00    -0.269 NA
ATOM      7  C   UNL     1      -5.293   2.684  25.524  0.00  0.00    +0.074 C 
ATOM      8  C   UNL     1      -5.704   1.787  25.591  0.00  0.00    +0.039 C 
ATOM      9  C   UNL     1      -6.175   1.134  25.710  0.00  0.00    +0.011 C 
ATOM     10  C   UNL     1      -5.533   1.272  25.461  0.00  0.00    +0.054 C 
ATOM     11  C   UNL     1      -5.150   2.145  25.404  0.00  0.00    +0.078 C 
ATOM     12  C   UNL     1      -4.792   0.859  25.109  0.00  0.00    +0.041 A 
ATOM     13  C   UNL     1      -4.511   0.111  24.907  0.00  0.00    +0.014 A 
ATOM     14  C   UNL     1      -3.756   0.026  24.586  0.00  0.00    +0.023 A 
ATOM     15  C   UNL     1      -3.282   0.691  24.467  0.00  0.00    +0.130 A 
ATOM     27  C   UNL     1      -3.562   1.440  24.668  0.00  0.00    +0.276 A 
ATOM     28  O   UNL     1      -3.088   2.104  24.549  0.00  0.00    -0.266 OA
ATOM     29  N   UNL     1      -4.318   1.524  24.989  0.00  0.00    -0.298 N 
ATOM     30  C   UNL     1      -4.925   1.365  25.221  0.00  0.00    +0.110 C 
ENDROOT
BRANCH  15  16
ATOM     16  N   UNL     1      -2.527   0.605  24.146  0.00  0.00    -0.171 NA
ATOM     17  C   UNL     1      -1.975   0.116  24.516  0.00  0.00    +0.269 C 
ATOM     18  O   UNL     1      -2.178  -0.287  25.206  0.00  0.00    -0.268 OA
BRANCH  17  19
ATOM     19  C   UNL     1      -1.219   0.030  24.196  0.00  0.00    +0.055 A 
ATOM     20  C   UNL     1      -0.851  -0.708  24.198  0.00  0.00    +0.005 A 
ATOM     21  C   UNL     1      -0.096  -0.794  23.878  0.00  0.00    +0.010 A 
ATOM     22  C   UNL     1       0.291  -0.141  23.555  0.00  0.00    +0.068 A 
ATOM     23  C   UNL     1      -0.076   0.597  23.552  0.00  0.00    +0.010 A 
ATOM     24  C   UNL     1      -0.832   0.683  23.873  0.00  0.00    +0.005 A 
BRANCH  22  25
ATOM     25  C   UNL     1       1.047  -0.226  23.234  0.00  0.00    +0.100 C 
ATOM     26  N   UNL     1       1.803  -0.312  22.914  0.00  0.00    -0.191 NA
ENDBRANCH  22  25
ENDBRANCH  17  19
ENDBRANCH  15  16
BRANCH   6   5
ATOM      5  C   UNL     1      -3.792   2.569  24.893  0.00  0.00    +0.101 C 
BRANCH   5   4
ATOM      1  C   UNL     1      -3.462   5.163  23.628  0.00  0.00    +0.130 C 
ATOM      2  N   UNL     1      -3.360   4.515  24.129  0.00  0.00    -0.324 N 
ATOM      3  C   UNL     1      -3.801   3.817  24.116  0.00  0.00    +0.073 A 
ATOM      4  C   UNL     1      -3.512   3.323  24.710  0.00  0.00    +0.012 A 
ATOM     31  C   UNL     1      -2.892   3.715  25.089  0.00  0.00    +0.015 A 
ATOM     32  C   UNL     1      -2.798   4.452  24.730  0.00  0.00    +0.060 A 
ATOM     33  C   UNL     1      -2.214   4.970  24.996  0.00  0.00    +0.017 A 
ATOM     34  C   UNL     1      -1.724   4.751  25.622  0.00  0.00    +0.001 A 
ATOM     35  C   UNL     1      -1.817   4.014  25.982  0.00  0.00    +0.000 A 
ATOM     36  C   UNL     1      -2.401   3.496  25.716  0.00  0.00    +0.001 A 
ENDBRANCH   5   4
ENDBRANCH   6   5
TORSDOF 5
ENDMDL
MODEL 8
REMARK VINA RESULT:     -10.9      2.344      4.425
REMARK  Name = 
REMARK  5 active torsions:
REMARK  status: ('A' for Active; 'I' for Inactive)
REMARK    1  A    between atoms: C_4  and  C_5
REMARK    2  A    between atoms: C_5  and  N_6
REMARK    3  A    between atoms: C_15  and  N_16
REMARK    4  A    between atoms: C_17  and  C_19
REMARK    5  A    between atoms: C_22  and  C_25
REMARK                            x       y       z     vdW  Elec       q    Type
REMARK                         _______ _______ _______ _____ _____    ______ ____
ROOT
ATOM      6  N   UNL     1      -3.236   0.516  24.914  0.00  0.00    -0.269 NA
ATOM      7  C   UNL     1      -4.005   0.303  25.161  0.00  0.00    +0.074 C 
ATOM      8  C   UNL     1      -3.872  -0.666  25.299  0.00  0.00    +0.039 C 
ATOM      9  C   UNL     1      -3.927  -1.464  25.457  0.00  0.00    +0.011 C 
ATOM     10  C   UNL     1      -3.436  -1.010  25.242  0.00  0.00    +0.054 C 
ATOM     11  C   UNL     1      -3.581  -0.074  25.113  0.00  0.00    +0.078 C 
ATOM     12  C   UNL     1      -2.553  -0.967  24.993  0.00  0.00    +0.041 A 
ATOM     13  C   UNL     1      -1.890  -1.449  24.899  0.00  0.00    +0.014 A 
ATOM     14  C   UNL     1      -1.176  -1.123  24.646  0.00  0.00    +0.023 A 
ATOM     15  C   UNL     1      -1.124  -0.315  24.487  0.00  0.00    +0.130 A 
ATOM     27  C   UNL     1      -1.787   0.167  24.581  0.00  0.00    +0.276 A 
ATOM     28  O   UNL     1      -1.735   0.975  24.422  0.00  0.00    -0.266 OA
ATOM     29  N   UNL     1      -2.501  -0.159  24.834  0.00  0.00    -0.298 N 
ATOM     30  C   UNL     1      -2.950  -0.612  25.038  0.00  0.00    +0.110 C 
ENDROOT
BRANCH  15  16
ATOM     16  N   UNL     1      -0.410   0.010  24.234  0.00  0.00    -0.171 NA
ATOM     17  C   UNL     1       0.069  -0.407  23.707  0.00  0.00    +0.269 C 
ATOM     18  O   UNL     1      -0.168  -1.148  23.433  0.00  0.00    -0.268 OA
BRANCH  17  19
ATOM     19  C   UNL     1       0.783  -0.083  23.453  0.00  0.00    +0.055 A 
ATOM     20  C   UNL     1       1.065   0.614  23.795  0.00  0.00    +0.005 A 
ATOM     21  C   UNL     1       1.780   0.938  23.541  0.00  0.00    +0.010 A 
ATOM     22  C   UNL     1       2.213   0.565  22.945  0.00  0.00    +0.068 A 
ATOM     23  C   UNL     1       1.932  -0.130  22.604  0.00  0.00    +0.010 A 
ATOM     24  C   UNL     1       1.217  -0.454  22.858  0.00  0.00    +0.005 A 
BRANCH  22  25
ATOM     25  C   UNL     1       2.929   0.890  22.691  0.00  0.00    +0.100 C 
ATOM     26  N   UNL     1       3.644   1.214  22.437  0.00  0.00    -0.191 NA
ENDBRANCH  22  25
ENDBRANCH  17  19
ENDBRANCH  15  16
BRANCH   6   5
ATOM      5  C   UNL     1      -2.615   0.996  24.658  0.00  0.00    +0.101 C 
BRANCH   5   4
ATOM      1  C   UNL     1      -3.493   3.257  23.061  0.00  0.00    +0.130 C 
ATOM      2  N   UNL     1      -3.170   2.805  23.671  0.00  0.00    -0.324 N 
ATOM      3  C   UNL     1      -3.132   1.981  23.698  0.00  0.00    +0.073 A 
ATOM      4  C   UNL     1      -2.766   1.766  24.405  0.00  0.00    +0.012 A 
ATOM     31  C   UNL     1      -2.578   2.458  24.816  0.00  0.00    +0.015 A 
ATOM     32  C   UNL     1      -2.827   3.099  24.362  0.00  0.00    +0.060 A 
ATOM     33  C   UNL     1      -2.711   3.869  24.636  0.00  0.00    +0.017 A 
ATOM     34  C   UNL     1      -2.344   3.995  25.364  0.00  0.00    +0.001 A 
ATOM     35  C   UNL     1      -2.095   3.354  25.818  0.00  0.00    +0.000 A 
ATOM     36  C   UNL     1      -2.211   2.584  25.544  0.00  0.00    +0.001 A 
ENDBRANCH   5   4
ENDBRANCH   6   5
TORSDOF 5
ENDMDL
