MODEL 1
REMARK VINA RESULT:     -13.0      0.000      0.000
REMARK  Name = 
REMARK  7 active torsions:
REMARK  status: ('A' for Active; 'I' for Inactive)
REMARK    1  A    between atoms: O_2  and  C_3
REMARK    2  A    between atoms: C_6  and  C_9
REMARK    3  A    between atoms: N_11  and  C_12
REMARK    4  A    between atoms: C_16  and  N_20
REMARK    5  A    between atoms: C_24  and  O_25
REMARK    6  A    between atoms: O_25  and  C_26
REMARK    7  A    between atoms: C_29  and  N_32
REMARK                            x       y       z     vdW  Elec       q    Type
REMARK                         _______ _______ _______ _____ _____    ______ ____
ROOT
ATOM     12  C   UNL     1      -2.438   4.257  25.404  0.00  0.00    +0.155 C 
ATOM     13  C   UNL     1      -2.427   3.816  26.101  0.00  0.00    +0.166 C 
ATOM     14  O   UNL     1      -3.070   3.300  26.085  0.00  0.00    -0.350 OA
ATOM     15  C   UNL     1      -3.479   3.422  25.380  0.00  0.00    +0.169 C 
ATOM     16  C   UNL     1      -4.129   3.180  24.933  0.00  0.00    +0.170 C 
ATOM     17  C   UNL     1      -4.140   3.621  24.237  0.00  0.00    +0.169 C 
ATOM     18  O   UNL     1      -3.496   4.137  24.252  0.00  0.00    -0.350 OA
ATOM     19  C   UNL     1      -3.088   4.014  24.959  0.00  0.00    +0.167 C 
ENDROOT
BRANCH  16  20
ATOM     20  N   UNL     1      -4.673   2.597  25.147  0.00  0.00    -0.180 N 
ATOM     21  N   UNL     1      -5.371   2.716  25.570  0.00  0.00    -0.040 NA
ATOM     22  N   UNL     1      -5.743   1.986  25.659  0.00  0.00    -0.020 NA
ATOM     23  N   UNL     1      -5.276   1.415  25.291  0.00  0.00    -0.071 NA
ATOM     24  C   UNL     1      -4.614   1.792  24.975  0.00  0.00    +0.343 A 
BRANCH  24  25
ATOM     25  O   UNL     1      -4.001   1.429  24.559  0.00  0.00    -0.421 OA
BRANCH  25  26
ATOM     26  C   UNL     1      -3.933   0.606  24.558  0.00  0.00    +0.149 A 
ATOM     27  C   UNL     1      -3.686   0.212  25.239  0.00  0.00    +0.039 A 
ATOM     28  C   UNL     1      -3.619  -0.610  25.239  0.00  0.00    +0.022 A 
ATOM     29  C   UNL     1      -3.799  -1.038  24.557  0.00  0.00    +0.085 A 
ATOM     30  C   UNL     1      -4.046  -0.644  23.875  0.00  0.00    +0.022 A 
ATOM     31  C   UNL     1      -4.113   0.179  23.876  0.00  0.00    +0.039 A 
BRANCH  29  32
ATOM     32  N   UNL     1      -3.732  -1.860  24.555  0.00  0.00    -0.208 N 
ATOM     33  C   UNL     1      -4.079  -2.373  24.010  0.00  0.00    +0.202 A 
ATOM     34  N   UNL     1      -3.869  -3.145  24.216  0.00  0.00    -0.200 NA
ATOM     35  C   UNL     1      -3.391  -3.107  24.888  0.00  0.00    +0.221 A 
ATOM     36  N   UNL     1      -3.307  -2.314  25.097  0.00  0.00    -0.141 NA
ENDBRANCH  29  32
ENDBRANCH  25  26
ENDBRANCH  24  25
ENDBRANCH  16  20
BRANCH  12  11
ATOM      9  C   UNL     1      -1.110   4.636  25.035  0.00  0.00    +0.265 C 
ATOM     10  O   UNL     1      -0.566   5.218  24.822  0.00  0.00    -0.268 OA
ATOM     11  N   UNL     1      -1.894   4.840  25.191  0.00  0.00    -0.198 NA
BRANCH   9   6
ATOM      3  C   UNL     1      -0.392   2.273  25.207  0.00  0.00    +0.139 A 
ATOM      4  C   UNL     1      -0.432   2.743  25.884  0.00  0.00    +0.037 A 
ATOM      5  C   UNL     1      -0.671   3.530  25.827  0.00  0.00    +0.008 A 
ATOM      6  C   UNL     1      -0.870   3.848  25.093  0.00  0.00    +0.055 A 
ATOM      7  C   UNL     1      -0.830   3.379  24.415  0.00  0.00    +0.008 A 
ATOM      8  C   UNL     1      -0.591   2.592  24.472  0.00  0.00    +0.037 A 
BRANCH   3   2
ATOM      1  C   UNL     1      -0.201   0.991  24.605  0.00  0.00    +0.252 C 
ATOM      2  O   UNL     1      -0.152   1.485  25.263  0.00  0.00    -0.471 OA
ENDBRANCH   3   2
ENDBRANCH   9   6
ENDBRANCH  12  11
TORSDOF 7
ENDMDL
MODEL 2
REMARK VINA RESULT:     -11.9      2.191      6.095
REMARK  Name = 
REMARK  7 active torsions:
REMARK  status: ('A' for Active; 'I' for Inactive)
REMARK    1  A    between atoms: O_2  and  C_3
REMARK    2  A    between atoms: C_6  and  C_9
REMARK    3  A    between atoms: N_11  and  C_12
REMARK    4  A    between atoms: C_16  and  N_20
REMARK    5  A    between atoms: C_24  and  O_25
REMARK    6  A    between atoms: O_25  and  C_26
REMARK    7  A    between atoms: C_29  and  N_32
REMARK                            x       y       z     vdW  Elec       q    Type
REMARK                         _______ _______ _______ _____ _____    ______ ____
ROOT
ATOM     12  C   UNL     1      -2.049  -2.102  24.472  0.00  0.00    +0.155 C 
ATOM     13  C   UNL     1      -2.250  -1.718  23.770  0.00  0.00    +0.166 C 
ATOM     14  O   UNL     1      -1.682  -1.138  23.626  0.00  0.00    -0.350 OA
ATOM     15  C   UNL     1      -1.130  -1.163  24.238  0.00  0.00    +0.169 C 
ATOM     16  C   UNL     1      -0.438  -0.820  24.528  0.00  0.00    +0.170 C 
ATOM     17  C   UNL     1      -0.238  -1.203  25.230  0.00  0.00    +0.169 C 
ATOM     18  O   UNL     1      -0.806  -1.783  25.375  0.00  0.00    -0.350 OA
ATOM     19  C   UNL     1      -1.358  -1.758  24.761  0.00  0.00    +0.167 C 
ENDROOT
BRANCH  16  20
ATOM     20  N   UNL     1      -0.020  -0.201  24.177  0.00  0.00    -0.180 N 
ATOM     21  N   UNL     1       0.511  -0.269  23.548  0.00  0.00    -0.040 NA
ATOM     22  N   UNL     1       0.800   0.484  23.376  0.00  0.00    -0.020 NA
ATOM     23  N   UNL     1       0.448   1.017  23.896  0.00  0.00    -0.071 NA
ATOM     24  C   UNL     1      -0.059   0.594  24.391  0.00  0.00    +0.343 A 
BRANCH  24  25
ATOM     25  O   UNL     1      -0.523   0.911  24.996  0.00  0.00    -0.421 OA
BRANCH  25  26
ATOM     26  C   UNL     1      -0.680   1.721  25.013  0.00  0.00    +0.149 A 
ATOM     27  C   UNL     1      -1.270   2.038  24.532  0.00  0.00    +0.039 A 
ATOM     28  C   UNL     1      -1.428   2.847  24.550  0.00  0.00    +0.022 A 
ATOM     29  C   UNL     1      -0.994   3.341  25.049  0.00  0.00    +0.085 A 
ATOM     30  C   UNL     1      -0.403   3.024  25.531  0.00  0.00    +0.022 A 
ATOM     31  C   UNL     1      -0.246   2.214  25.512  0.00  0.00    +0.039 A 
BRANCH  29  32
ATOM     32  N   UNL     1      -1.150   4.151  25.068  0.00  0.00    -0.208 N 
ATOM     33  C   UNL     1      -1.826   4.506  25.379  0.00  0.00    +0.202 A 
ATOM     34  N   UNL     1      -1.753   5.323  25.282  0.00  0.00    -0.200 NA
ATOM     35  C   UNL     1      -1.031   5.470  24.911  0.00  0.00    +0.221 A 
ATOM     36  N   UNL     1      -0.659   4.746  24.779  0.00  0.00    -0.141 NA
ENDBRANCH  29  32
ENDBRANCH  25  26
ENDBRANCH  24  25
ENDBRANCH  16  20
BRANCH  12  11
ATOM      9  C   UNL     1      -3.253  -2.610  25.053  0.00  0.00    +0.265 C 
ATOM     10  O   UNL     1      -3.671  -3.228  25.404  0.00  0.00    -0.268 OA
ATOM     11  N   UNL     1      -2.467  -2.720  24.824  0.00  0.00    -0.198 NA
BRANCH   9   6
ATOM      3  C   UNL     1      -4.351  -0.423  24.685  0.00  0.00    +0.139 A 
ATOM      4  C   UNL     1      -4.355  -0.992  24.088  0.00  0.00    +0.037 A 
ATOM      5  C   UNL     1      -3.989  -1.721  24.210  0.00  0.00    +0.008 A 
ATOM      6  C   UNL     1      -3.619  -1.881  24.930  0.00  0.00    +0.055 A 
ATOM      7  C   UNL     1      -3.615  -1.312  25.527  0.00  0.00    +0.008 A 
ATOM      8  C   UNL     1      -3.981  -0.583  25.405  0.00  0.00    +0.037 A 
BRANCH   3   2
ATOM      1  C   UNL     1      -4.563   0.937  25.074  0.00  0.00    +0.252 C 
ATOM      2  O   UNL     1      -4.717   0.307  24.563  0.00  0.00    -0.471 OA
ENDBRANCH   3   2
ENDBRANCH   9   6
ENDBRANCH  12  11
TORSDOF 7
ENDMDL
MODEL 3
REMARK VINA RESULT:     -11.3      1.788      3.295
REMARK  Name = 
REMARK  7 active torsions:
REMARK  status: ('A' for Active; 'I' for Inactive)
REMARK    1  A    between atoms: O_2  and  C_3
REMARK    2  A    between atoms: C_6  and  C_9
REMARK    3  A    between atoms: N_11  and  C_12
REMARK    4  A    between atoms: C_16  and  N_20
REMARK    5  A    between atoms: C_24  and  O_25
REMARK    6  A    between atoms: O_25  and  C_26
REMARK    7  A    between atoms: C_29  and  N_32
REMARK                            x       y       z     vdW  Elec       q    Type
REMARK                         _______ _______ _______ _____ _____    ______ ____
ROOT
ATOM     12  C   UNL     1      -1.248   3.739  24.957  0.00  0.00    +0.155 C 
ATOM     13  C   UNL     1      -1.491   3.565  24.189  0.00  0.00    +0.166 C 
ATOM     14  O   UNL     1      -1.188   2.825  23.987  0.00  0.00    -0.350 OA
ATOM     15  C   UNL     1      -0.757   2.541  24.630  0.00  0.00    +0.169 C 
ATOM     16  C   UNL     1      -0.303   1.909  24.905  0.00  0.00    +0.170 C 
ATOM     17  C   UNL     1      -0.060   2.083  25.673  0.00  0.00    +0.169 C 
ATOM     18  O   UNL     1      -0.364   2.823  25.875  0.00  0.00    -0.350 OA
ATOM     19  C   UNL     1      -0.795   3.106  25.230  0.00  0.00    +0.167 C 
ENDROOT
BRANCH  16  20
ATOM     20  N   UNL     1      -0.124   1.223  24.483  0.00  0.00    -0.180 N 
ATOM     21  N   UNL     1       0.447   1.152  23.891  0.00  0.00    -0.040 NA
ATOM     22  N   UNL     1       0.439   0.372  23.622  0.00  0.00    -0.020 NA
ATOM     23  N   UNL     1      -0.136  -0.038  24.047  0.00  0.00    -0.071 NA
ATOM     24  C   UNL     1      -0.484   0.487  24.579  0.00  0.00    +0.343 A 
BRANCH  24  25
ATOM     25  O   UNL     1      -1.086   0.308  25.114  0.00  0.00    -0.421 OA
BRANCH  25  26
ATOM     26  C   UNL     1      -1.640  -0.277  24.931  0.00  0.00    +0.149 A 
ATOM     27  C   UNL     1      -1.488  -1.064  25.126  0.00  0.00    +0.039 A 
ATOM     28  C   UNL     1      -2.040  -1.648  24.944  0.00  0.00    +0.022 A 
ATOM     29  C   UNL     1      -2.746  -1.445  24.566  0.00  0.00    +0.085 A 
ATOM     30  C   UNL     1      -2.898  -0.658  24.370  0.00  0.00    +0.022 A 
ATOM     31  C   UNL     1      -2.344  -0.074  24.553  0.00  0.00    +0.039 A 
BRANCH  29  32
ATOM     32  N   UNL     1      -3.299  -2.029  24.383  0.00  0.00    -0.208 N 
ATOM     33  C   UNL     1      -3.268  -2.818  24.623  0.00  0.00    +0.202 A 
ATOM     34  N   UNL     1      -3.930  -3.204  24.317  0.00  0.00    -0.200 NA
ATOM     35  C   UNL     1      -4.370  -2.653  23.888  0.00  0.00    +0.221 A 
ATOM     36  N   UNL     1      -3.980  -1.927  23.929  0.00  0.00    -0.141 NA
ENDBRANCH  29  32
ENDBRANCH  25  26
ENDBRANCH  24  25
ENDBRANCH  16  20
BRANCH  12  11
ATOM      9  C   UNL     1      -2.214   4.621  25.534  0.00  0.00    +0.265 C 
ATOM     10  O   UNL     1      -2.393   5.307  25.955  0.00  0.00    -0.268 OA
ATOM     11  N   UNL     1      -1.427   4.425  25.379  0.00  0.00    -0.198 NA
BRANCH   9   6
ATOM      3  C   UNL     1      -4.034   3.147  24.733  0.00  0.00    +0.139 A 
ATOM      4  C   UNL     1      -3.703   3.707  24.226  0.00  0.00    +0.037 A 
ATOM      5  C   UNL     1      -3.096   4.198  24.492  0.00  0.00    +0.008 A 
ATOM      6  C   UNL     1      -2.821   4.130  25.266  0.00  0.00    +0.055 A 
ATOM      7  C   UNL     1      -3.152   3.570  25.775  0.00  0.00    +0.008 A 
ATOM      8  C   UNL     1      -3.758   3.079  25.508  0.00  0.00    +0.037 A 
BRANCH   3   2
ATOM      1  C   UNL     1      -5.215   2.385  24.995  0.00  0.00    +0.252 C 
ATOM      2  O   UNL     1      -4.642   2.655  24.467  0.00  0.00    -0.471 OA
ENDBRANCH   3   2
ENDBRANCH   9   6
ENDBRANCH  12  11
TORSDOF 7
ENDMDL
MODEL 4
REMARK VINA RESULT:     -10.5      1.588      4.954
REMARK  Name = 
REMARK  7 active torsions:
REMARK  status: ('A' for Active; 'I' for Inactive)
REMARK    1  A    between atoms: O_2  and  C_3
REMARK    2  A    between atoms: C_6  and  C_9
REMARK    3  A    between atoms: N_11  and  C_12
REMARK    4  A    between atoms: C_16  and  N_20
REMARK    5  A    between atoms: C_24  and  O_25
REMARK    6  A    between atoms: O_25  and  C_26
REMARK    7  A    between atoms: C_29  and  N_32
REMARK                            x       y       z     vdW  Elec       q    Type
REMARK                         _______ _______ _______ _____ _____    ______ ____
ROOT
ATOM     12  C   UNL     1      -3.402  -1.719  25.024  0.00  0.00    +0.155 C 
ATOM     13  C   UNL     1      -3.192  -1.391  25.751  0.00  0.00    +0.166 C 
ATOM     14  O   UNL     1      -3.550  -0.651  25.809  0.00  0.00    -0.350 OA
ATOM     15  C   UNL     1      -3.981  -0.521  25.118  0.00  0.00    +0.169 C 
ATOM     16  C   UNL     1      -4.469   0.017  24.726  0.00  0.00    +0.170 C 
ATOM     17  C   UNL     1      -4.679  -0.311  23.999  0.00  0.00    +0.169 C 
ATOM     18  O   UNL     1      -4.321  -1.052  23.942  0.00  0.00    -0.350 OA
ATOM     19  C   UNL     1      -3.889  -1.181  24.633  0.00  0.00    +0.167 C 
ENDROOT
BRANCH  16  20
ATOM     20  N   UNL     1      -4.706   0.754  25.012  0.00  0.00    -0.180 N 
ATOM     21  N   UNL     1      -5.361   0.901  25.493  0.00  0.00    -0.040 NA
ATOM     22  N   UNL     1      -5.389   1.711  25.645  0.00  0.00    -0.020 NA
ATOM     23  N   UNL     1      -4.752   2.064  25.260  0.00  0.00    -0.071 NA
ATOM     24  C   UNL     1      -4.330   1.473  24.869  0.00  0.00    +0.343 A 
BRANCH  24  25
ATOM     25  O   UNL     1      -3.650   1.583  24.414  0.00  0.00    -0.421 OA
BRANCH  25  26
ATOM     26  C   UNL     1      -3.178   2.250  24.531  0.00  0.00    +0.149 A 
ATOM     27  C   UNL     1      -2.622   2.260  25.140  0.00  0.00    +0.039 A 
ATOM     28  C   UNL     1      -2.150   2.926  25.257  0.00  0.00    +0.022 A 
ATOM     29  C   UNL     1      -2.235   3.583  24.764  0.00  0.00    +0.085 A 
ATOM     30  C   UNL     1      -2.792   3.573  24.155  0.00  0.00    +0.022 A 
ATOM     31  C   UNL     1      -3.263   2.906  24.039  0.00  0.00    +0.039 A 
BRANCH  29  32
ATOM     32  N   UNL     1      -1.764   4.250  24.880  0.00  0.00    -0.208 N 
ATOM     33  C   UNL     1      -1.997   4.949  25.252  0.00  0.00    +0.202 A 
ATOM     34  N   UNL     1      -1.355   5.468  25.247  0.00  0.00    -0.200 NA
ATOM     35  C   UNL     1      -0.725   5.088  24.873  0.00  0.00    +0.221 A 
ATOM     36  N   UNL     1      -0.978   4.336  24.646  0.00  0.00    -0.141 NA
ENDBRANCH  29  32
ENDBRANCH  25  26
ENDBRANCH  24  25
ENDBRANCH  16  20
BRANCH  12  11
ATOM      9  C   UNL     1      -2.376  -2.587  24.536  0.00  0.00    +0.265 C 
ATOM     10  O   UNL     1      -2.139  -3.323  24.250  0.00  0.00    -0.268 OA
ATOM     11  N   UNL     1      -3.165  -2.456  24.738  0.00  0.00    -0.198 NA
BRANCH   9   6
ATOM      3  C   UNL     1      -0.719  -0.765  24.787  0.00  0.00    +0.139 A 
ATOM      4  C   UNL     1      -0.929  -1.225  25.439  0.00  0.00    +0.037 A 
ATOM      5  C   UNL     1      -1.481  -1.832  25.355  0.00  0.00    +0.008 A 
ATOM      6  C   UNL     1      -1.823  -1.979  24.620  0.00  0.00    +0.055 A 
ATOM      7  C   UNL     1      -1.614  -1.520  23.967  0.00  0.00    +0.008 A 
ATOM      8  C   UNL     1      -1.062  -0.912  24.051  0.00  0.00    +0.037 A 
BRANCH   3   2
ATOM      1  C   UNL     1       0.134   0.222  24.201  0.00  0.00    +0.252 C 
ATOM      2  O   UNL     1      -0.167  -0.157  24.870  0.00  0.00    -0.471 OA
ENDBRANCH   3   2
ENDBRANCH   9   6
ENDBRANCH  12  11
TORSDOF 7
ENDMDL
MODEL 5
REMARK VINA RESULT:     -10.5      1.879      4.246
REMARK  Name = 
REMARK  7 active torsions:
REMARK  status: ('A' for Active; 'I' for Inactive)
REMARK    1  A    between atoms: O_2  and  C_3
REMARK    2  A    between atoms: C_6  and  C_9
REMARK    3  A    between atoms: N_11  and  C_12
REMARK    4  A    between atoms: C_16  and  N_20
REMARK    5  A    between atoms: C_24  and  O_25
REMARK    6  A    between atoms: O_25  and  C_26
REMARK    7  A    between atoms: C_29  and  N_32
REMARK                            x       y       z     vdW  Elec       q    Type
REMARK                         _______ _______ _______ _____ _____    ______ ____
ROOT
ATOM     12  C   UNL     1      -4.594   3.515  25.424  0.00  0.00    +0.155 C 
ATOM     13  C   UNL     1      -4.411   3.526  24.620  0.00  0.00    +0.166 C 
ATOM     14  O   UNL     1      -3.617   3.735  24.543  0.00  0.00    -0.350 OA
ATOM     15  C   UNL     1      -3.309   3.854  25.298  0.00  0.00    +0.169 C 
ATOM     16  C   UNL     1      -2.629   4.056  25.719  0.00  0.00    +0.170 C 
ATOM     17  C   UNL     1      -2.812   4.045  26.523  0.00  0.00    +0.169 C 
ATOM     18  O   UNL     1      -3.606   3.835  26.600  0.00  0.00    -0.350 OA
ATOM     19  C   UNL     1      -3.913   3.717  25.843  0.00  0.00    +0.167 C 
ENDROOT
BRANCH  16  20
ATOM     20  N   UNL     1      -1.893   4.238  25.391  0.00  0.00    -0.180 N 
ATOM     21  N   UNL     1      -1.647   4.982  25.134  0.00  0.00    -0.040 NA
ATOM     22  N   UNL     1      -0.877   4.911  24.848  0.00  0.00    -0.020 NA
ATOM     23  N   UNL     1      -0.647   4.123  24.927  0.00  0.00    -0.071 NA
ATOM     24  C   UNL     1      -1.275   3.707  25.263  0.00  0.00    +0.343 A 
BRANCH  24  25
ATOM     25  O   UNL     1      -1.284   2.901  25.439  0.00  0.00    -0.421 OA
BRANCH  25  26
ATOM     26  C   UNL     1      -0.819   2.377  25.001  0.00  0.00    +0.149 A 
ATOM     27  C   UNL     1      -0.095   2.121  25.299  0.00  0.00    +0.039 A 
ATOM     28  C   UNL     1       0.369   1.598  24.861  0.00  0.00    +0.022 A 
ATOM     29  C   UNL     1       0.108   1.332  24.125  0.00  0.00    +0.085 A 
ATOM     30  C   UNL     1      -0.617   1.589  23.826  0.00  0.00    +0.022 A 
ATOM     31  C   UNL     1      -1.081   2.112  24.265  0.00  0.00    +0.039 A 
BRANCH  29  32
ATOM     32  N   UNL     1       0.572   0.809  23.686  0.00  0.00    -0.208 N 
ATOM     33  C   UNL     1       0.347   0.056  23.435  0.00  0.00    +0.202 A 
ATOM     34  N   UNL     1       0.977  -0.272  23.015  0.00  0.00    -0.200 NA
ATOM     35  C   UNL     1       1.591   0.279  23.006  0.00  0.00    +0.221 A 
ATOM     36  N   UNL     1       1.340   0.947  23.421  0.00  0.00    -0.141 NA
ENDBRANCH  29  32
ENDBRANCH  25  26
ENDBRANCH  24  25
ENDBRANCH  16  20
BRANCH  12  11
ATOM      9  C   UNL     1      -5.640   2.573  25.673  0.00  0.00    +0.265 C 
ATOM     10  O   UNL     1      -6.375   2.391  26.001  0.00  0.00    -0.268 OA
ATOM     11  N   UNL     1      -5.330   3.333  25.752  0.00  0.00    -0.198 NA
BRANCH   9   6
ATOM      3  C   UNL     1      -4.363   0.838  24.454  0.00  0.00    +0.139 A 
ATOM      4  C   UNL     1      -4.357   0.852  25.279  0.00  0.00    +0.037 A 
ATOM      5  C   UNL     1      -4.782   1.430  25.685  0.00  0.00    +0.008 A 
ATOM      6  C   UNL     1      -5.214   1.994  25.267  0.00  0.00    +0.055 A 
ATOM      7  C   UNL     1      -5.221   1.981  24.442  0.00  0.00    +0.008 A 
ATOM      8  C   UNL     1      -4.796   1.403  24.035  0.00  0.00    +0.037 A 
BRANCH   3   2
ATOM      1  C   UNL     1      -3.937  -0.520  24.317  0.00  0.00    +0.252 C 
ATOM      2  O   UNL     1      -3.938   0.260  24.046  0.00  0.00    -0.471 OA
ENDBRANCH   3   2
ENDBRANCH   9   6
ENDBRANCH  12  11
TORSDOF 7
ENDMDL
MODEL 6
REMARK VINA RESULT:     -10.3      1.821      5.165
REMARK  Name = 
REMARK  7 active torsions:
REMARK  status: ('A' for Active; 'I' for Inactive)
REMARK    1  A    between atoms: O_2  and  C_3
REMARK    2  A    between atoms: C_6  and  C_9
REMARK    3  A    between atoms: N_11  and  C_12
REMARK    4  A    between atoms: C_16  and  N_20
REMARK    5  A    between atoms: C_24  and  O_25
REMARK    6  A    between atoms: O_25  and  C_26
REMARK    7  A    between atoms: C_29  and  N_32
REMARK                            x       y       z     vdW  Elec       q    Type
REMARK                         _______ _______ _______ _____ _____    ______ ____
ROOT
ATOM     12  C   UNL     1      -0.885  -0.900  25.002  0.00  0.00    +0.155 C 
ATOM     13  C   UNL     1      -1.156  -0.653  25.741  0.00  0.00    +0.166 C 
ATOM     14  O   UNL     1      -1.070   0.167  25.782  0.00  0.00    -0.350 OA
ATOM     15  C   UNL     1      -0.746   0.426  25.070  0.00  0.00    +0.169 C 
ATOM     16  C   UNL     1      -0.493   1.092  24.654  0.00  0.00    +0.170 C 
ATOM     17  C   UNL     1      -0.222   0.845  23.916  0.00  0.00    +0.169 C 
ATOM     18  O   UNL     1      -0.308   0.026  23.874  0.00  0.00    -0.350 OA
ATOM     19  C   UNL     1      -0.632  -0.234  24.588  0.00  0.00    +0.167 C 
ENDROOT
BRANCH  16  20
ATOM     20  N   UNL     1      -0.508   1.870  24.930  0.00  0.00    -0.180 N 
ATOM     21  N   UNL     1       0.061   2.225  25.411  0.00  0.00    -0.040 NA
ATOM     22  N   UNL     1      -0.174   3.003  25.551  0.00  0.00    -0.020 NA
ATOM     23  N   UNL     1      -0.887   3.129  25.157  0.00  0.00    -0.071 NA
ATOM     24  C   UNL     1      -1.093   2.428  24.773  0.00  0.00    +0.343 A 
BRANCH  24  25
ATOM     25  O   UNL     1      -1.768   2.308  24.313  0.00  0.00    -0.421 OA
BRANCH  25  26
ATOM     26  C   UNL     1      -2.491   2.629  24.548  0.00  0.00    +0.149 A 
ATOM     27  C   UNL     1      -3.004   2.947  23.986  0.00  0.00    +0.039 A 
ATOM     28  C   UNL     1      -3.726   3.268  24.221  0.00  0.00    +0.022 A 
ATOM     29  C   UNL     1      -3.936   3.270  25.019  0.00  0.00    +0.085 A 
ATOM     30  C   UNL     1      -3.423   2.952  25.582  0.00  0.00    +0.022 A 
ATOM     31  C   UNL     1      -2.700   2.631  25.346  0.00  0.00    +0.039 A 
BRANCH  29  32
ATOM     32  N   UNL     1      -4.659   3.591  25.255  0.00  0.00    -0.208 N 
ATOM     33  C   UNL     1      -5.279   3.177  25.608  0.00  0.00    +0.202 A 
ATOM     34  N   UNL     1      -5.893   3.711  25.752  0.00  0.00    -0.200 NA
ATOM     35  C   UNL     1      -5.650   4.454  25.486  0.00  0.00    +0.221 A 
ATOM     36  N   UNL     1      -4.888   4.379  25.180  0.00  0.00    -0.141 NA
ENDBRANCH  29  32
ENDBRANCH  25  26
ENDBRANCH  24  25
ENDBRANCH  16  20
BRANCH  12  11
ATOM      9  C   UNL     1      -1.576  -2.085  24.601  0.00  0.00    +0.265 C 
ATOM     10  O   UNL     1      -1.561  -2.862  24.326  0.00  0.00    -0.268 OA
ATOM     11  N   UNL     1      -0.870  -1.678  24.727  0.00  0.00    -0.198 NA
BRANCH   9   6
ATOM      3  C   UNL     1      -3.741  -0.971  25.050  0.00  0.00    +0.139 A 
ATOM      4  C   UNL     1      -3.318  -1.317  25.668  0.00  0.00    +0.037 A 
ATOM      5  C   UNL     1      -2.597  -1.688  25.519  0.00  0.00    +0.008 A 
ATOM      6  C   UNL     1      -2.298  -1.713  24.751  0.00  0.00    +0.055 A 
ATOM      7  C   UNL     1      -2.720  -1.368  24.132  0.00  0.00    +0.008 A 
ATOM      8  C   UNL     1      -3.441  -0.997  24.281  0.00  0.00    +0.037 A 
BRANCH   3   2
ATOM      1  C   UNL     1      -4.865  -0.219  24.587  0.00  0.00    +0.252 C 
ATOM      2  O   UNL     1      -4.463  -0.599  25.199  0.00  0.00    -0.471 OA
ENDBRANCH   3   2
ENDBRANCH   9   6
ENDBRANCH  12  11
TORSDOF 7
ENDMDL
MODEL 7
REMARK VINA RESULT:     -10.0      1.944      3.878
REMARK  Name = 
REMARK  7 active torsions:
REMARK  status: ('A' for Active; 'I' for Inactive)
REMARK    1  A    between atoms: O_2  and  C_3
REMARK    2  A    between atoms: C_6  and  C_9
REMARK    3  A    between atoms: N_11  and  C_12
REMARK    4  A    between atoms: C_16  and  N_20
REMARK    5  A    between atoms: C_24  and  O_25
REMARK    6  A    between atoms: O_25  and  C_26
REMARK    7  A    between atoms: C_29  and  N_32
REMARK                            x       y       z     vdW  Elec       q    Type
REMARK                         _______ _______ _______ _____ _____    ______ ____
ROOT
ATOM     12  C   UNL     1      -5.190   2.198  24.977  0.00  0.00    +0.155 C 
ATOM     13  C   UNL     1      -4.918   2.270  24.202  0.00  0.00    +0.166 C 
ATOM     14  O   UNL     1      -4.546   1.563  23.996  0.00  0.00    -0.350 OA
ATOM     15  C   UNL     1      -4.588   1.054  24.643  0.00  0.00    +0.169 C 
ATOM     16  C   UNL     1      -4.385   0.303  24.917  0.00  0.00    +0.170 C 
ATOM     17  C   UNL     1      -4.657   0.231  25.692  0.00  0.00    +0.169 C 
ATOM     18  O   UNL     1      -5.029   0.938  25.898  0.00  0.00    -0.350 OA
ATOM     19  C   UNL     1      -4.986   1.447  25.250  0.00  0.00    +0.167 C 
ENDROOT
BRANCH  16  20
ATOM     20  N   UNL     1      -3.980  -0.275  24.489  0.00  0.00    -0.180 N 
ATOM     21  N   UNL     1      -4.324  -0.871  24.032  0.00  0.00    -0.040 NA
ATOM     22  N   UNL     1      -3.717  -1.323  23.705  0.00  0.00    -0.020 NA
ATOM     23  N   UNL     1      -2.999  -1.007  23.958  0.00  0.00    -0.071 NA
ATOM     24  C   UNL     1      -3.162  -0.360  24.443  0.00  0.00    +0.343 A 
BRANCH  24  25
ATOM     25  O   UNL     1      -2.603   0.119  24.817  0.00  0.00    -0.421 OA
BRANCH  25  26
ATOM     26  C   UNL     1      -1.837   0.173  24.514  0.00  0.00    +0.149 A 
ATOM     27  C   UNL     1      -1.246  -0.329  24.794  0.00  0.00    +0.039 A 
ATOM     28  C   UNL     1      -0.481  -0.276  24.491  0.00  0.00    +0.022 A 
ATOM     29  C   UNL     1      -0.306   0.281  23.908  0.00  0.00    +0.085 A 
ATOM     30  C   UNL     1      -0.898   0.784  23.627  0.00  0.00    +0.022 A 
ATOM     31  C   UNL     1      -1.663   0.730  23.931  0.00  0.00    +0.039 A 
BRANCH  29  32
ATOM     32  N   UNL     1       0.459   0.336  23.604  0.00  0.00    -0.208 N 
ATOM     33  C   UNL     1       0.992   0.950  23.743  0.00  0.00    +0.202 A 
ATOM     34  N   UNL     1       1.689   0.781  23.333  0.00  0.00    -0.200 NA
ATOM     35  C   UNL     1       1.585   0.062  22.942  0.00  0.00    +0.221 A 
ATOM     36  N   UNL     1       0.825  -0.213  23.109  0.00  0.00    -0.141 NA
ENDBRANCH  29  32
ENDBRANCH  25  26
ENDBRANCH  24  25
ENDBRANCH  16  20
BRANCH  12  11
ATOM      9  C   UNL     1      -5.218   3.483  25.603  0.00  0.00    +0.265 C 
ATOM     10  O   UNL     1      -5.622   4.060  26.030  0.00  0.00    -0.268 OA
ATOM     11  N   UNL     1      -5.595   2.776  25.405  0.00  0.00    -0.198 NA
BRANCH   9   6
ATOM      3  C   UNL     1      -2.871   3.866  24.914  0.00  0.00    +0.139 A 
ATOM      4  C   UNL     1      -3.484   3.987  24.376  0.00  0.00    +0.037 A 
ATOM      5  C   UNL     1      -4.266   3.859  24.605  0.00  0.00    +0.008 A 
ATOM      6  C   UNL     1      -4.435   3.611  25.373  0.00  0.00    +0.055 A 
ATOM      7  C   UNL     1      -3.823   3.489  25.912  0.00  0.00    +0.008 A 
ATOM      8  C   UNL     1      -3.041   3.617  25.683  0.00  0.00    +0.037 A 
BRANCH   3   2
ATOM      1  C   UNL     1      -1.615   4.519  25.110  0.00  0.00    +0.252 C 
ATOM      2  O   UNL     1      -2.088   3.994  24.686  0.00  0.00    -0.471 OA
ENDBRANCH   3   2
ENDBRANCH   9   6
ENDBRANCH  12  11
TORSDOF 7
ENDMDL
MODEL 8
REMARK VINA RESULT:      -9.5      2.609      4.754
REMARK  Name = 
REMARK  7 active torsions:
REMARK  status: ('A' for Active; 'I' for Inactive)
REMARK    1  A    between atoms: O_2  and  C_3
REMARK    2  A    between atoms: C_6  and  C_9
REMARK    3  A    between atoms: N_11  and  C_12
REMARK    4  A    between atoms: C_16  and  N_20
REMARK    5  A    between atoms: C_24  and  O_25
REMARK    6  A    between atoms: O_25  and  C_26
REMARK    7  A    between atoms: C_29  and  N_32
REMARK                            x       y       z     vdW  Elec       q    Type
REMARK                         _______ _______ _______ _____ _____    ______ ____
ROOT
ATOM     12  C   UNL     1      -3.982   1.213  24.855  0.00  0.00    +0.155 C 
ATOM     13  C   UNL     1      -3.568   1.409  25.541  0.00  0.00    +0.166 C 
ATOM     14  O   UNL     1      -2.899   0.928  25.581  0.00  0.00    -0.350 OA
ATOM     15  C   UNL     1      -2.899   0.436  24.920  0.00  0.00    +0.169 C 
ATOM     16  C   UNL     1      -2.486  -0.166  24.535  0.00  0.00    +0.170 C 
ATOM     17  C   UNL     1      -2.900  -0.362  23.849  0.00  0.00    +0.169 C 
ATOM     18  O   UNL     1      -3.569   0.119  23.810  0.00  0.00    -0.350 OA
ATOM     19  C   UNL     1      -3.568   0.612  24.471  0.00  0.00    +0.167 C 
ENDROOT
BRANCH  16  20
ATOM     20  N   UNL     1      -1.782  -0.512  24.792  0.00  0.00    -0.180 N 
ATOM     21  N   UNL     1      -1.708  -1.077  25.389  0.00  0.00    -0.040 NA
ATOM     22  N   UNL     1      -0.909  -1.267  25.463  0.00  0.00    -0.020 NA
ATOM     23  N   UNL     1      -0.489  -0.819  24.912  0.00  0.00    -0.071 NA
ATOM     24  C   UNL     1      -1.028  -0.353  24.498  0.00  0.00    +0.343 A 
BRANCH  24  25
ATOM     25  O   UNL     1      -0.846   0.180  23.895  0.00  0.00    -0.421 OA
BRANCH  25  26
ATOM     26  C   UNL     1      -0.063   0.271  23.647  0.00  0.00    +0.149 A 
ATOM     27  C   UNL     1       0.262  -0.258  23.105  0.00  0.00    +0.039 A 
ATOM     28  C   UNL     1       1.043  -0.167  22.858  0.00  0.00    +0.022 A 
ATOM     29  C   UNL     1       1.500   0.453  23.154  0.00  0.00    +0.085 A 
ATOM     30  C   UNL     1       1.175   0.983  23.696  0.00  0.00    +0.022 A 
ATOM     31  C   UNL     1       0.393   0.892  23.943  0.00  0.00    +0.039 A 
BRANCH  29  32
ATOM     32  N   UNL     1       2.282   0.545  22.907  0.00  0.00    -0.208 N 
ATOM     33  C   UNL     1       2.673   0.076  22.352  0.00  0.00    +0.202 A 
ATOM     34  N   UNL     1       3.443   0.362  22.273  0.00  0.00    -0.200 NA
ATOM     35  C   UNL     1       3.527   1.008  22.780  0.00  0.00    +0.221 A 
ATOM     36  N   UNL     1       2.810   1.121  23.171  0.00  0.00    -0.141 NA
ENDBRANCH  29  32
ENDBRANCH  25  26
ENDBRANCH  24  25
ENDBRANCH  16  20
BRANCH  12  11
ATOM      9  C   UNL     1      -4.736   2.378  24.511  0.00  0.00    +0.265 C 
ATOM     10  O   UNL     1      -5.439   2.723  24.255  0.00  0.00    -0.268 OA
ATOM     11  N   UNL     1      -4.686   1.559  24.598  0.00  0.00    -0.198 NA
BRANCH   9   6
ATOM      3  C   UNL     1      -2.773   3.797  25.020  0.00  0.00    +0.139 A 
ATOM      4  C   UNL     1      -3.314   3.612  25.615  0.00  0.00    +0.037 A 
ATOM      5  C   UNL     1      -3.968   3.139  25.445  0.00  0.00    +0.008 A 
ATOM      6  C   UNL     1      -4.081   2.851  24.681  0.00  0.00    +0.055 A 
ATOM      7  C   UNL     1      -3.541   3.035  24.086  0.00  0.00    +0.008 A 
ATOM      8  C   UNL     1      -2.886   3.508  24.255  0.00  0.00    +0.037 A 
BRANCH   3   2
ATOM      1  C   UNL     1      -1.359   4.012  24.989  0.00  0.00    +0.252 C 
ATOM      2  O   UNL     1      -2.117   4.270  25.189  0.00  0.00    -0.471 OA
ENDBRANCH   3   2
ENDBRANCH   9   6
ENDBRANCH  12  11
TORSDOF 7
ENDMDL
MODEL 9
REMARK VINA RESULT:      -9.3      1.675      3.563
REMARK  Name = 
REMARK  7 active torsions:
REMARK  status: ('A' for Active; 'I' for Inactive)
REMARK    1  A    between atoms: O_2  and  C_3
REMARK    2  A    between atoms: C_6  and  C_9
REMARK    3  A    between atoms: N_11  and  C_12
REMARK    4  A    between atoms: C_16  and  N_20
REMARK    5  A    between atoms: C_24  and  O_25
REMARK    6  A    between atoms: O_25  and  C_26
REMARK    7  A    between atoms: C_29  and  N_32
REMARK                            x       y       z     vdW  Elec       q    Type
REMARK                         _______ _______ _______ _____ _____    ______ ____
ROOT
ATOM     12  C   UNL     1      -3.593   3.934  25.045  0.00  0.00    +0.155 C 
ATOM     13  C   UNL     1      -3.546   3.598  24.293  0.00  0.00    +0.166 C 
ATOM     14  O   UNL     1      -2.803   3.250  24.216  0.00  0.00    -0.350 OA
ATOM     15  C   UNL     1      -2.390   3.370  24.919  0.00  0.00    +0.169 C 
ATOM     16  C   UNL     1      -1.675   3.230  25.306  0.00  0.00    +0.170 C 
ATOM     17  C   UNL     1      -1.722   3.566  26.058  0.00  0.00    +0.169 C 
ATOM     18  O   UNL     1      -2.465   3.914  26.136  0.00  0.00    -0.350 OA
ATOM     19  C   UNL     1      -2.878   3.793  25.431  0.00  0.00    +0.167 C 
ENDROOT
BRANCH  16  20
ATOM     20  N   UNL     1      -1.027   2.824  24.996  0.00  0.00    -0.180 N 
ATOM     21  N   UNL     1      -0.447   3.141  24.502  0.00  0.00    -0.040 NA
ATOM     22  N   UNL     1       0.093   2.543  24.326  0.00  0.00    -0.020 NA
ATOM     23  N   UNL     1      -0.153   1.856  24.710  0.00  0.00    -0.071 NA
ATOM     24  C   UNL     1      -0.845   2.030  25.124  0.00  0.00    +0.343 A 
BRANCH  24  25
ATOM     25  O   UNL     1      -1.280   1.501  25.586  0.00  0.00    -0.421 OA
BRANCH  25  26
ATOM     26  C   UNL     1      -1.351   0.713  25.354  0.00  0.00    +0.149 A 
ATOM     27  C   UNL     1      -1.670   0.527  24.617  0.00  0.00    +0.039 A 
ATOM     28  C   UNL     1      -1.742  -0.261  24.385  0.00  0.00    +0.022 A 
ATOM     29  C   UNL     1      -1.493  -0.864  24.891  0.00  0.00    +0.085 A 
ATOM     30  C   UNL     1      -1.173  -0.678  25.629  0.00  0.00    +0.022 A 
ATOM     31  C   UNL     1      -1.102   0.110  25.860  0.00  0.00    +0.039 A 
BRANCH  29  32
ATOM     32  N   UNL     1      -1.564  -1.653  24.660  0.00  0.00    -0.208 N 
ATOM     33  C   UNL     1      -0.949  -2.139  24.402  0.00  0.00    +0.202 A 
ATOM     34  N   UNL     1      -1.266  -2.881  24.228  0.00  0.00    -0.200 NA
ATOM     35  C   UNL     1      -2.077  -2.853  24.379  0.00  0.00    +0.221 A 
ATOM     36  N   UNL     1      -2.260  -2.094  24.646  0.00  0.00    -0.141 NA
ENDBRANCH  29  32
ENDBRANCH  25  26
ENDBRANCH  24  25
ENDBRANCH  16  20
BRANCH  12  11
ATOM      9  C   UNL     1      -4.958   3.948  25.469  0.00  0.00    +0.265 C 
ATOM     10  O   UNL     1      -5.605   4.353  25.779  0.00  0.00    -0.268 OA
ATOM     11  N   UNL     1      -4.241   4.340  25.355  0.00  0.00    -0.198 NA
BRANCH   9   6
ATOM      3  C   UNL     1      -5.162   1.552  24.880  0.00  0.00    +0.139 A 
ATOM      4  C   UNL     1      -5.194   2.126  24.289  0.00  0.00    +0.037 A 
ATOM      5  C   UNL     1      -5.126   2.925  24.485  0.00  0.00    +0.008 A 
ATOM      6  C   UNL     1      -5.026   3.149  25.272  0.00  0.00    +0.055 A 
ATOM      7  C   UNL     1      -4.994   2.575  25.864  0.00  0.00    +0.008 A 
ATOM      8  C   UNL     1      -5.062   1.776  25.668  0.00  0.00    +0.037 A 
BRANCH   3   2
ATOM      1  C   UNL     1      -4.988   0.174  25.221  0.00  0.00    +0.252 C 
ATOM      2  O   UNL     1      -5.230   0.753  24.685  0.00  0.00    -0.471 OA
ENDBRANCH   3   2
ENDBRANCH   9   6
ENDBRANCH  12  11
TORSDOF 7
ENDMDL
