MODEL 1
REMARK VINA RESULT:     -12.3      0.000      0.000
REMARK  Name = 
REMARK  6 active torsions:
REMARK  status: ('A' for Active; 'I' for Inactive)
REMARK    1  A    between atoms: C_2  and  C_5
REMARK    2  A    between atoms: C_9  and  N_10
REMARK    3  A    between atoms: C_11  and  O_13
REMARK    4  A    between atoms: O_13  and  C_14
REMARK    5  A    between atoms: C_18  and  N_22
REMARK    6  A    between atoms: C_23  and  C_25
REMARK                            x       y       z     vdW  Elec       q    Type
REMARK                         _______ _______ _______ _____ _____    ______ ____
ROOT
ATOM     14  C   UNL     1      -0.523   0.157  24.621  0.00  0.00    +0.229 C 
ATOM     15  C   UNL     1      -0.507   0.468  23.858  0.00  0.00    +0.188 C 
ATOM     16  O   UNL     1      -0.539   1.290  23.917  0.00  0.00    -0.348 OA
ATOM     17  C   UNL     1      -0.575   1.487  24.717  0.00  0.00    +0.168 C 
ATOM     18  C   UNL     1      -0.618   2.116  25.249  0.00  0.00    +0.155 C 
ATOM     19  C   UNL     1      -0.634   1.805  26.012  0.00  0.00    +0.166 C 
ATOM     20  O   UNL     1      -0.601   0.983  25.953  0.00  0.00    -0.348 OA
ATOM     21  C   UNL     1      -0.565   0.786  25.152  0.00  0.00    +0.186 C 
ENDROOT
BRANCH  18  22
ATOM     22  N   UNL     1      -0.640   2.917  25.051  0.00  0.00    -0.198 NA
ATOM     23  C   UNL     1      -1.184   3.417  25.418  0.00  0.00    +0.265 C 
ATOM     24  O   UNL     1      -1.706   3.118  25.983  0.00  0.00    -0.268 OA
BRANCH  23  25
ATOM     25  C   UNL     1      -1.207   4.218  25.220  0.00  0.00    +0.055 A 
ATOM     26  C   UNL     1      -0.559   4.570  24.850  0.00  0.00    +0.005 A 
ATOM     27  C   UNL     1      -0.581   5.371  24.651  0.00  0.00    +0.000 A 
ATOM     28  C   UNL     1      -1.252   5.820  24.825  0.00  0.00    +0.000 A 
ATOM     29  C   UNL     1      -1.899   5.467  25.195  0.00  0.00    +0.000 A 
ATOM     30  C   UNL     1      -1.877   4.667  25.393  0.00  0.00    +0.005 A 
ENDBRANCH  23  25
ENDBRANCH  18  22
BRANCH  14  13
ATOM     13  O   UNL     1      -0.500  -0.644  24.819  0.00  0.00    -0.432 OA
BRANCH  13  11
ATOM     10  N   UNL     1      -1.712  -1.361  25.063  0.00  0.00    -0.142 NA
ATOM     11  C   UNL     1      -1.096  -1.151  24.557  0.00  0.00    +0.425 C 
ATOM     12  O   UNL     1      -1.075  -1.447  23.786  0.00  0.00    -0.224 OA
BRANCH  10   9
ATOM      5  C   UNL     1      -3.633  -2.070  24.307  0.00  0.00    +0.073 A 
ATOM      6  C   UNL     1      -3.499  -2.883  24.277  0.00  0.00    +0.004 A 
ATOM      7  C   UNL     1      -2.768  -3.189  24.509  0.00  0.00    +0.001 A 
ATOM      8  C   UNL     1      -2.173  -2.682  24.771  0.00  0.00    +0.017 A 
ATOM      9  C   UNL     1      -2.308  -1.868  24.801  0.00  0.00    +0.077 A 
ATOM     31  C   UNL     1      -3.037  -1.563  24.569  0.00  0.00    +0.021 A 
BRANCH   5   2
ATOM      1  F   UNL     1      -5.094  -1.458  23.843  0.00  0.00    -0.166 F 
ATOM      2  C   UNL     1      -4.363  -1.764  24.076  0.00  0.00    +0.419 C 
ATOM      3  F   UNL     1      -4.289  -2.141  23.346  0.00  0.00    -0.166 F 
ATOM      4  F   UNL     1      -4.438  -1.386  24.805  0.00  0.00    -0.166 F 
ENDBRANCH   5   2
ENDBRANCH  10   9
ENDBRANCH  13  11
ENDBRANCH  14  13
TORSDOF 6
ENDMDL
MODEL 2
REMARK VINA RESULT:     -12.2      2.213      5.767
REMARK  Name = 
REMARK  6 active torsions:
REMARK  status: ('A' for Active; 'I' for Inactive)
REMARK    1  A    between atoms: C_2  and  C_5
REMARK    2  A    between atoms: C_9  and  N_10
REMARK    3  A    between atoms: C_11  and  O_13
REMARK    4  A    between atoms: O_13  and  C_14
REMARK    5  A    between atoms: C_18  and  N_22
REMARK    6  A    between atoms: C_23  and  C_25
REMARK                            x       y       z     vdW  Elec       q    Type
REMARK                         _______ _______ _______ _____ _____    ______ ____
ROOT
ATOM     14  C   UNL     1      -0.428   1.142  24.447  0.00  0.00    +0.229 C 
ATOM     15  C   UNL     1      -0.546   0.918  23.662  0.00  0.00    +0.188 C 
ATOM     16  O   UNL     1      -0.998   0.228  23.660  0.00  0.00    -0.348 OA
ATOM     17  C   UNL     1      -1.160   0.026  24.442  0.00  0.00    +0.168 C 
ATOM     18  C   UNL     1      -1.540  -0.525  24.925  0.00  0.00    +0.155 C 
ATOM     19  C   UNL     1      -1.422  -0.301  25.710  0.00  0.00    +0.166 C 
ATOM     20  O   UNL     1      -0.969   0.389  25.713  0.00  0.00    -0.348 OA
ATOM     21  C   UNL     1      -0.807   0.591  24.929  0.00  0.00    +0.186 C 
ENDROOT
BRANCH  18  22
ATOM     22  N   UNL     1      -1.963  -1.184  24.667  0.00  0.00    -0.198 NA
ATOM     23  C   UNL     1      -2.749  -1.286  24.898  0.00  0.00    +0.265 C 
ATOM     24  O   UNL     1      -3.111  -0.729  25.387  0.00  0.00    -0.268 OA
BRANCH  23  25
ATOM     25  C   UNL     1      -3.172  -1.946  24.640  0.00  0.00    +0.055 A 
ATOM     26  C   UNL     1      -2.964  -2.699  24.905  0.00  0.00    +0.005 A 
ATOM     27  C   UNL     1      -3.387  -3.359  24.648  0.00  0.00    +0.000 A 
ATOM     28  C   UNL     1      -4.019  -3.265  24.125  0.00  0.00    +0.000 A 
ATOM     29  C   UNL     1      -4.227  -2.512  23.861  0.00  0.00    +0.000 A 
ATOM     30  C   UNL     1      -3.804  -1.852  24.118  0.00  0.00    +0.005 A 
ENDBRANCH  23  25
ENDBRANCH  18  22
BRANCH  14  13
ATOM     13  O   UNL     1      -0.004   1.801  24.705  0.00  0.00    -0.432 OA
BRANCH  13  11
ATOM     10  N   UNL     1      -0.535   2.974  25.327  0.00  0.00    -0.142 NA
ATOM     11  C   UNL     1      -0.336   2.555  24.645  0.00  0.00    +0.425 C 
ATOM     12  O   UNL     1      -0.469   2.888  23.901  0.00  0.00    -0.224 OA
BRANCH  10   9
ATOM      5  C   UNL     1      -1.991   4.598  25.401  0.00  0.00    +0.073 A 
ATOM      6  C   UNL     1      -1.529   5.233  25.146  0.00  0.00    +0.004 A 
ATOM      7  C   UNL     1      -0.736   5.114  24.951  0.00  0.00    +0.001 A 
ATOM      8  C   UNL     1      -0.405   4.361  25.012  0.00  0.00    +0.017 A 
ATOM      9  C   UNL     1      -0.866   3.727  25.267  0.00  0.00    +0.077 A 
ATOM     31  C   UNL     1      -1.659   3.845  25.461  0.00  0.00    +0.021 A 
BRANCH   5   2
ATOM      1  F   UNL     1      -3.576   4.836  25.790  0.00  0.00    -0.166 F 
ATOM      2  C   UNL     1      -2.783   4.717  25.596  0.00  0.00    +0.419 C 
ATOM      3  F   UNL     1      -2.992   4.617  24.805  0.00  0.00    -0.166 F 
ATOM      4  F   UNL     1      -2.575   4.818  26.388  0.00  0.00    -0.166 F 
ENDBRANCH   5   2
ENDBRANCH  10   9
ENDBRANCH  13  11
ENDBRANCH  14  13
TORSDOF 6
ENDMDL
MODEL 3
REMARK VINA RESULT:     -12.0      2.084      2.488
REMARK  Name = 
REMARK  6 active torsions:
REMARK  status: ('A' for Active; 'I' for Inactive)
REMARK    1  A    between atoms: C_2  and  C_5
REMARK    2  A    between atoms: C_9  and  N_10
REMARK    3  A    between atoms: C_11  and  O_13
REMARK    4  A    between atoms: O_13  and  C_14
REMARK    5  A    between atoms: C_18  and  N_22
REMARK    6  A    between atoms: C_23  and  C_25
REMARK                            x       y       z     vdW  Elec       q    Type
REMARK                         _______ _______ _______ _____ _____    ______ ____
ROOT
ATOM     14  C   UNL     1      -3.943   1.090  24.143  0.00  0.00    +0.229 C 
ATOM     15  C   UNL     1      -3.445   1.208  23.496  0.00  0.00    +0.188 C 
ATOM     16  O   UNL     1      -3.067   1.935  23.596  0.00  0.00    -0.348 OA
ATOM     17  C   UNL     1      -3.332   2.265  24.303  0.00  0.00    +0.168 C 
ATOM     18  C   UNL     1      -3.262   2.918  24.804  0.00  0.00    +0.155 C 
ATOM     19  C   UNL     1      -3.761   2.799  25.450  0.00  0.00    +0.166 C 
ATOM     20  O   UNL     1      -4.138   2.073  25.350  0.00  0.00    -0.348 OA
ATOM     21  C   UNL     1      -3.873   1.742  24.641  0.00  0.00    +0.186 C 
ENDROOT
BRANCH  18  22
ATOM     22  N   UNL     1      -2.779   3.575  24.678  0.00  0.00    -0.198 NA
ATOM     23  C   UNL     1      -2.219   3.789  25.245  0.00  0.00    +0.265 C 
ATOM     24  O   UNL     1      -2.143   3.347  25.938  0.00  0.00    -0.268 OA
BRANCH  23  25
ATOM     25  C   UNL     1      -1.736   4.446  25.120  0.00  0.00    +0.055 A 
ATOM     26  C   UNL     1      -2.044   5.207  25.203  0.00  0.00    +0.005 A 
ATOM     27  C   UNL     1      -1.561   5.864  25.078  0.00  0.00    +0.000 A 
ATOM     28  C   UNL     1      -0.769   5.759  24.870  0.00  0.00    +0.000 A 
ATOM     29  C   UNL     1      -0.462   4.999  24.786  0.00  0.00    +0.000 A 
ATOM     30  C   UNL     1      -0.945   4.341  24.911  0.00  0.00    +0.005 A 
ENDBRANCH  23  25
ENDBRANCH  18  22
BRANCH  14  13
ATOM     13  O   UNL     1      -4.427   0.433  24.268  0.00  0.00    -0.432 OA
BRANCH  13  11
ATOM     10  N   UNL     1      -4.007  -0.844  24.753  0.00  0.00    -0.142 NA
ATOM     11  C   UNL     1      -4.137  -0.327  24.125  0.00  0.00    +0.425 C 
ATOM     12  O   UNL     1      -3.978  -0.568  23.351  0.00  0.00    -0.224 OA
BRANCH  10   9
ATOM      5  C   UNL     1      -2.629  -2.530  24.589  0.00  0.00    +0.073 A 
ATOM      6  C   UNL     1      -3.139  -3.122  24.324  0.00  0.00    +0.004 A 
ATOM      7  C   UNL     1      -3.938  -2.955  24.202  0.00  0.00    +0.001 A 
ATOM      8  C   UNL     1      -4.226  -2.195  24.345  0.00  0.00    +0.017 A 
ATOM      9  C   UNL     1      -3.717  -1.603  24.610  0.00  0.00    +0.077 A 
ATOM     31  C   UNL     1      -2.919  -1.770  24.732  0.00  0.00    +0.021 A 
BRANCH   5   2
ATOM      1  F   UNL     1      -1.032  -2.864  24.833  0.00  0.00    -0.166 F 
ATOM      2  C   UNL     1      -1.831  -2.697  24.711  0.00  0.00    +0.419 C 
ATOM      3  F   UNL     1      -1.747  -2.877  23.911  0.00  0.00    -0.166 F 
ATOM      4  F   UNL     1      -1.915  -2.517  25.512  0.00  0.00    -0.166 F 
ENDBRANCH   5   2
ENDBRANCH  10   9
ENDBRANCH  13  11
ENDBRANCH  14  13
TORSDOF 6
ENDMDL
MODEL 4
REMARK VINA RESULT:     -11.8      3.087      6.417
REMARK  Name = 
REMARK  6 active torsions:
REMARK  status: ('A' for Active; 'I' for Inactive)
REMARK    1  A    between atoms: C_2  and  C_5
REMARK    2  A    between atoms: C_9  and  N_10
REMARK    3  A    between atoms: C_11  and  O_13
REMARK    4  A    between atoms: O_13  and  C_14
REMARK    5  A    between atoms: C_18  and  N_22
REMARK    6  A    between atoms: C_23  and  C_25
REMARK                            x       y       z     vdW  Elec       q    Type
REMARK                         _______ _______ _______ _____ _____    ______ ____
ROOT
ATOM     14  C   UNL     1      -4.111   2.342  24.355  0.00  0.00    +0.229 C 
ATOM     15  C   UNL     1      -3.746   2.117  23.651  0.00  0.00    +0.188 C 
ATOM     16  O   UNL     1      -3.766   1.293  23.606  0.00  0.00    -0.348 OA
ATOM     17  C   UNL     1      -4.142   1.010  24.282  0.00  0.00    +0.168 C 
ATOM     18  C   UNL     1      -4.388   0.326  24.673  0.00  0.00    +0.155 C 
ATOM     19  C   UNL     1      -4.753   0.551  25.378  0.00  0.00    +0.166 C 
ATOM     20  O   UNL     1      -4.733   1.374  25.423  0.00  0.00    -0.348 OA
ATOM     21  C   UNL     1      -4.356   1.658  24.746  0.00  0.00    +0.186 C 
ENDROOT
BRANCH  18  22
ATOM     22  N   UNL     1      -4.286  -0.448  24.406  0.00  0.00    -0.198 NA
ATOM     23  C   UNL     1      -3.974  -1.021  24.911  0.00  0.00    +0.265 C 
ATOM     24  O   UNL     1      -3.763  -0.821  25.683  0.00  0.00    -0.268 OA
BRANCH  23  25
ATOM     25  C   UNL     1      -3.872  -1.795  24.643  0.00  0.00    +0.055 A 
ATOM     26  C   UNL     1      -4.276  -2.057  23.973  0.00  0.00    +0.005 A 
ATOM     27  C   UNL     1      -4.174  -2.830  23.705  0.00  0.00    +0.000 A 
ATOM     28  C   UNL     1      -3.668  -3.343  24.109  0.00  0.00    +0.000 A 
ATOM     29  C   UNL     1      -3.265  -3.081  24.778  0.00  0.00    +0.000 A 
ATOM     30  C   UNL     1      -3.366  -2.307  25.046  0.00  0.00    +0.005 A 
ENDBRANCH  23  25
ENDBRANCH  18  22
BRANCH  14  13
ATOM     13  O   UNL     1      -4.213   3.116  24.623  0.00  0.00    -0.432 OA
BRANCH  13  11
ATOM     10  N   UNL     1      -3.085   3.741  25.239  0.00  0.00    -0.142 NA
ATOM     11  C   UNL     1      -3.585   3.650  24.589  0.00  0.00    +0.425 C 
ATOM     12  O   UNL     1      -3.458   4.094  23.905  0.00  0.00    -0.224 OA
BRANCH  10   9
ATOM      5  C   UNL     1      -1.064   4.539  25.030  0.00  0.00    +0.073 A 
ATOM      6  C   UNL     1      -1.203   5.345  25.138  0.00  0.00    +0.004 A 
ATOM      7  C   UNL     1      -1.969   5.617  25.280  0.00  0.00    +0.001 A 
ATOM      8  C   UNL     1      -2.596   5.082  25.313  0.00  0.00    +0.017 A 
ATOM      9  C   UNL     1      -2.458   4.276  25.205  0.00  0.00    +0.077 A 
ATOM     31  C   UNL     1      -1.692   4.005  25.063  0.00  0.00    +0.021 A 
BRANCH   5   2
ATOM      1  F   UNL     1       0.468   3.998  24.746  0.00  0.00    -0.166 F 
ATOM      2  C   UNL     1      -0.298   4.269  24.888  0.00  0.00    +0.419 C 
ATOM      3  F   UNL     1      -0.272   4.707  24.190  0.00  0.00    -0.166 F 
ATOM      4  F   UNL     1      -0.323   3.830  25.586  0.00  0.00    -0.166 F 
ENDBRANCH   5   2
ENDBRANCH  10   9
ENDBRANCH  13  11
ENDBRANCH  14  13
TORSDOF 6
ENDMDL
MODEL 5
REMARK VINA RESULT:     -10.5      3.144      4.796
REMARK  Name = 
REMARK  6 active torsions:
REMARK  status: ('A' for Active; 'I' for Inactive)
REMARK    1  A    between atoms: C_2  and  C_5
REMARK    2  A    between atoms: C_9  and  N_10
REMARK    3  A    between atoms: C_11  and  O_13
REMARK    4  A    between atoms: O_13  and  C_14
REMARK    5  A    between atoms: C_18  and  N_22
REMARK    6  A    between atoms: C_23  and  C_25
REMARK                            x       y       z     vdW  Elec       q    Type
REMARK                         _______ _______ _______ _____ _____    ______ ____
ROOT
ATOM     14  C   UNL     1      -0.905   0.869  23.990  0.00  0.00    +0.229 C 
ATOM     15  C   UNL     1      -0.536   1.456  24.436  0.00  0.00    +0.188 C 
ATOM     16  O   UNL     1       0.278   1.393  24.315  0.00  0.00    -0.348 OA
ATOM     17  C   UNL     1       0.411   0.769  23.794  0.00  0.00    +0.168 C 
ATOM     18  C   UNL     1       0.995   0.343  23.397  0.00  0.00    +0.155 C 
ATOM     19  C   UNL     1       0.626  -0.244  22.950  0.00  0.00    +0.166 C 
ATOM     20  O   UNL     1      -0.188  -0.181  23.072  0.00  0.00    -0.348 OA
ATOM     21  C   UNL     1      -0.321   0.445  23.593  0.00  0.00    +0.186 C 
ENDROOT
BRANCH  18  22
ATOM     22  N   UNL     1       1.808   0.480  23.439  0.00  0.00    -0.198 NA
ATOM     23  C   UNL     1       2.306   0.193  22.847  0.00  0.00    +0.265 C 
ATOM     24  O   UNL     1       1.992  -0.232  22.214  0.00  0.00    -0.268 OA
BRANCH  23  25
ATOM     25  C   UNL     1       3.119   0.330  22.889  0.00  0.00    +0.055 A 
ATOM     26  C   UNL     1       3.429   1.051  22.635  0.00  0.00    +0.005 A 
ATOM     27  C   UNL     1       4.241   1.190  22.677  0.00  0.00    +0.000 A 
ATOM     28  C   UNL     1       4.744   0.605  22.973  0.00  0.00    +0.000 A 
ATOM     29  C   UNL     1       4.433  -0.115  23.227  0.00  0.00    +0.000 A 
ATOM     30  C   UNL     1       3.621  -0.253  23.186  0.00  0.00    +0.005 A 
ENDBRANCH  23  25
ENDBRANCH  18  22
BRANCH  14  13
ATOM     13  O   UNL     1      -1.718   0.732  23.948  0.00  0.00    -0.432 OA
BRANCH  13  11
ATOM     10  N   UNL     1      -2.914   1.497  23.787  0.00  0.00    -0.142 NA
ATOM     11  C   UNL     1      -2.248   1.298  24.230  0.00  0.00    +0.425 C 
ATOM     12  O   UNL     1      -2.110   1.666  24.956  0.00  0.00    -0.224 OA
BRANCH  10   9
ATOM      5  C   UNL     1      -4.660   2.394  24.742  0.00  0.00    +0.073 A 
ATOM      6  C   UNL     1      -4.503   3.196  24.632  0.00  0.00    +0.004 A 
ATOM      7  C   UNL     1      -3.815   3.432  24.240  0.00  0.00    +0.001 A 
ATOM      8  C   UNL     1      -3.286   2.866  23.959  0.00  0.00    +0.017 A 
ATOM      9  C   UNL     1      -3.444   2.063  24.069  0.00  0.00    +0.077 A 
ATOM     31  C   UNL     1      -4.130   1.828  24.460  0.00  0.00    +0.021 A 
BRANCH   5   2
ATOM      1  F   UNL     1      -6.034   1.923  25.524  0.00  0.00    -0.166 F 
ATOM      2  C   UNL     1      -5.346   2.159  25.133  0.00  0.00    +0.419 C 
ATOM      3  F   UNL     1      -5.703   1.995  24.408  0.00  0.00    -0.166 F 
ATOM      4  F   UNL     1      -4.990   2.322  25.859  0.00  0.00    -0.166 F 
ENDBRANCH   5   2
ENDBRANCH  10   9
ENDBRANCH  13  11
ENDBRANCH  14  13
TORSDOF 6
ENDMDL
MODEL 6
REMARK VINA RESULT:     -10.5      2.785      4.335
REMARK  Name = 
REMARK  6 active torsions:
REMARK  status: ('A' for Active; 'I' for Inactive)
REMARK    1  A    between atoms: C_2  and  C_5
REMARK    2  A    between atoms: C_9  and  N_10
REMARK    3  A    between atoms: C_11  and  O_13
REMARK    4  A    between atoms: O_13  and  C_14
REMARK    5  A    between atoms: C_18  and  N_22
REMARK    6  A    between atoms: C_23  and  C_25
REMARK                            x       y       z     vdW  Elec       q    Type
REMARK                         _______ _______ _______ _____ _____    ______ ____
ROOT
ATOM     14  C   UNL     1      -0.564   1.114  23.657  0.00  0.00    +0.229 C 
ATOM     15  C   UNL     1      -0.191   1.548  24.251  0.00  0.00    +0.188 C 
ATOM     16  O   UNL     1       0.614   1.368  24.230  0.00  0.00    -0.348 OA
ATOM     17  C   UNL     1       0.738   0.824  23.623  0.00  0.00    +0.168 C 
ATOM     18  C   UNL     1       1.312   0.375  23.235  0.00  0.00    +0.155 C 
ATOM     19  C   UNL     1       0.938  -0.058  22.641  0.00  0.00    +0.166 C 
ATOM     20  O   UNL     1       0.134   0.122  22.662  0.00  0.00    -0.348 OA
ATOM     21  C   UNL     1       0.010   0.667  23.269  0.00  0.00    +0.186 C 
ENDROOT
BRANCH  18  22
ATOM     22  N   UNL     1       2.118   0.363  23.410  0.00  0.00    -0.198 NA
ATOM     23  C   UNL     1       2.667   0.209  22.814  0.00  0.00    +0.265 C 
ATOM     24  O   UNL     1       2.411   0.067  22.043  0.00  0.00    -0.268 OA
BRANCH  23  25
ATOM     25  C   UNL     1       3.474   0.197  22.989  0.00  0.00    +0.055 A 
ATOM     26  C   UNL     1       3.813  -0.475  23.327  0.00  0.00    +0.005 A 
ATOM     27  C   UNL     1       4.619  -0.488  23.503  0.00  0.00    +0.000 A 
ATOM     28  C   UNL     1       5.086   0.173  23.340  0.00  0.00    +0.000 A 
ATOM     29  C   UNL     1       4.747   0.845  23.002  0.00  0.00    +0.000 A 
ATOM     30  C   UNL     1       3.941   0.857  22.827  0.00  0.00    +0.005 A 
ENDBRANCH  23  25
ENDBRANCH  18  22
BRANCH  14  13
ATOM     13  O   UNL     1      -1.370   1.126  23.482  0.00  0.00    -0.432 OA
BRANCH  13  11
ATOM     10  N   UNL     1      -2.571   0.418  23.794  0.00  0.00    -0.142 NA
ATOM     11  C   UNL     1      -1.918   0.857  24.037  0.00  0.00    +0.425 C 
ATOM     12  O   UNL     1      -1.810   1.029  24.838  0.00  0.00    -0.224 OA
BRANCH  10   9
ATOM      5  C   UNL     1      -3.643  -0.902  25.163  0.00  0.00    +0.073 A 
ATOM      6  C   UNL     1      -4.214  -0.387  25.461  0.00  0.00    +0.004 A 
ATOM      7  C   UNL     1      -4.237   0.397  25.204  0.00  0.00    +0.001 A 
ATOM      8  C   UNL     1      -3.690   0.665  24.649  0.00  0.00    +0.017 A 
ATOM      9  C   UNL     1      -3.119   0.149  24.350  0.00  0.00    +0.077 A 
ATOM     31  C   UNL     1      -3.096  -0.634  24.607  0.00  0.00    +0.021 A 
BRANCH   5   2
ATOM      1  F   UNL     1      -3.597  -2.469  25.677  0.00  0.00    -0.166 F 
ATOM      2  C   UNL     1      -3.620  -1.685  25.420  0.00  0.00    +0.419 C 
ATOM      3  F   UNL     1      -3.273  -1.443  26.127  0.00  0.00    -0.166 F 
ATOM      4  F   UNL     1      -3.967  -1.929  24.712  0.00  0.00    -0.166 F 
ENDBRANCH   5   2
ENDBRANCH  10   9
ENDBRANCH  13  11
ENDBRANCH  14  13
TORSDOF 6
ENDMDL
MODEL 7
REMARK VINA RESULT:     -10.4      4.290      6.227
REMARK  Name = 
REMARK  6 active torsions:
REMARK  status: ('A' for Active; 'I' for Inactive)
REMARK    1  A    between atoms: C_2  and  C_5
REMARK    2  A    between atoms: C_9  and  N_10
REMARK    3  A    between atoms: C_11  and  O_13
REMARK    4  A    between atoms: O_13  and  C_14
REMARK    5  A    between atoms: C_18  and  N_22
REMARK    6  A    between atoms: C_23  and  C_25
REMARK                            x       y       z     vdW  Elec       q    Type
REMARK                         _______ _______ _______ _____ _____    ______ ____
ROOT
ATOM     14  C   UNL     1       1.031   0.435  23.227  0.00  0.00    +0.229 C 
ATOM     15  C   UNL     1       0.917  -0.346  22.988  0.00  0.00    +0.188 C 
ATOM     16  O   UNL     1       0.220  -0.619  23.334  0.00  0.00    -0.348 OA
ATOM     17  C   UNL     1      -0.096  -0.007  23.787  0.00  0.00    +0.168 C 
ATOM     18  C   UNL     1      -0.723   0.203  24.282  0.00  0.00    +0.155 C 
ATOM     19  C   UNL     1      -0.609   0.984  24.521  0.00  0.00    +0.166 C 
ATOM     20  O   UNL     1       0.088   1.257  24.175  0.00  0.00    -0.348 OA
ATOM     21  C   UNL     1       0.405   0.644  23.721  0.00  0.00    +0.186 C 
ENDROOT
BRANCH  18  22
ATOM     22  N   UNL     1      -1.353  -0.284  24.499  0.00  0.00    -0.198 NA
ATOM     23  C   UNL     1      -2.107   0.037  24.597  0.00  0.00    +0.265 C 
ATOM     24  O   UNL     1      -2.231   0.844  24.478  0.00  0.00    -0.268 OA
BRANCH  23  25
ATOM     25  C   UNL     1      -2.737  -0.450  24.814  0.00  0.00    +0.055 A 
ATOM     26  C   UNL     1      -2.752  -0.796  25.562  0.00  0.00    +0.005 A 
ATOM     27  C   UNL     1      -3.382  -1.282  25.780  0.00  0.00    +0.000 A 
ATOM     28  C   UNL     1      -3.997  -1.423  25.247  0.00  0.00    +0.000 A 
ATOM     29  C   UNL     1      -3.981  -1.076  24.499  0.00  0.00    +0.000 A 
ATOM     30  C   UNL     1      -3.352  -0.590  24.281  0.00  0.00    +0.005 A 
ENDBRANCH  23  25
ENDBRANCH  18  22
BRANCH  14  13
ATOM     13  O   UNL     1       1.661   0.922  23.010  0.00  0.00    -0.432 OA
BRANCH  13  11
ATOM     10  N   UNL     1       3.074   0.991  23.217  0.00  0.00    -0.142 NA
ATOM     11  C   UNL     1       2.415   0.601  22.910  0.00  0.00    +0.425 C 
ATOM     12  O   UNL     1       2.509  -0.110  22.501  0.00  0.00    -0.224 OA
BRANCH  10   9
ATOM      5  C   UNL     1       4.959  -0.022  23.647  0.00  0.00    +0.073 A 
ATOM      6  C   UNL     1       5.334   0.029  22.915  0.00  0.00    +0.004 A 
ATOM      7  C   UNL     1       4.956   0.401  22.282  0.00  0.00    +0.001 A 
ATOM      8  C   UNL     1       4.203   0.721  22.384  0.00  0.00    +0.017 A 
ATOM      9  C   UNL     1       3.827   0.670  23.117  0.00  0.00    +0.077 A 
ATOM     31  C   UNL     1       4.205   0.298  23.748  0.00  0.00    +0.021 A 
BRANCH   5   2
ATOM      1  F   UNL     1       5.716  -0.766  24.911  0.00  0.00    -0.166 F 
ATOM      2  C   UNL     1       5.337  -0.394  24.279  0.00  0.00    +0.419 C 
ATOM      3  F   UNL     1       5.116  -1.129  23.979  0.00  0.00    -0.166 F 
ATOM      4  F   UNL     1       5.559   0.342  24.580  0.00  0.00    -0.166 F 
ENDBRANCH   5   2
ENDBRANCH  10   9
ENDBRANCH  13  11
ENDBRANCH  14  13
TORSDOF 6
ENDMDL
