MODEL 1
REMARK VINA RESULT:     -15.1      0.000      0.000
REMARK  Name = 
REMARK  5 active torsions:
REMARK  status: ('A' for Active; 'I' for Inactive)
REMARK    1  A    between atoms: C_2  and  C_3
REMARK    2  A    between atoms: C_11  and  C_12
REMARK    3  A    between atoms: C_12  and  C_13
REMARK    4  A    between atoms: N_15  and  C_16
REMARK    5  A    between atoms: C_29  and  C_31
REMARK                            x       y       z     vdW  Elec       q    Type
REMARK                         _______ _______ _______ _____ _____    ______ ____
ROOT
ATOM      1  C   UNL     1      -2.481  -2.795  24.643  0.00  0.00    +0.005 C 
ATOM      2  C   UNL     1      -2.724  -2.014  24.535  0.00  0.00    +0.059 C 
ATOM      5  C   UNL     1      -3.427  -2.408  24.359  0.00  0.00    +0.154 C 
ATOM      6  O   UNL     1      -3.458  -3.232  24.392  0.00  0.00    -0.223 OA
ATOM      7  C   UNL     1      -4.100  -1.979  24.150  0.00  0.00    +0.033 C 
ATOM      8  C   UNL     1      -4.070  -1.155  24.116  0.00  0.00    +0.003 C 
ATOM      9  C   UNL     1      -3.367  -0.761  24.292  0.00  0.00    +0.006 C 
ATOM     10  C   UNL     1      -4.039  -0.332  24.083  0.00  0.00    +0.000 C 
ATOM     11  C   UNL     1      -3.336   0.063  24.259  0.00  0.00    +0.050 C 
ATOM     22  C   UNL     1      -2.634   0.457  24.435  0.00  0.00    +0.063 A 
ATOM     23  C   UNL     1      -1.961   0.027  24.645  0.00  0.00    +0.023 A 
ATOM     24  C   UNL     1      -1.991  -0.796  24.678  0.00  0.00    +0.034 C 
ATOM     25  C   UNL     1      -2.694  -1.191  24.502  0.00  0.00    +0.010 C 
ATOM     26  S   UNL     1      -1.351   0.564  24.787  0.00  0.00    -0.054 S 
ATOM     27  C   UNL     1      -1.645   1.325  24.667  0.00  0.00    +0.186 A 
ATOM     28  N   UNL     1      -1.222   2.028  24.749  0.00  0.00    -0.148 NA
ATOM     29  C   UNL     1      -1.593   2.751  24.609  0.00  0.00    +0.305 C 
ATOM     30  O   UNL     1      -2.387   2.772  24.386  0.00  0.00    -0.265 OA
ATOM     36  N   UNL     1      -2.438   1.258  24.449  0.00  0.00    -0.227 NA
ENDROOT
BRANCH  29  31
ATOM     31  C   UNL     1      -1.169   3.454  24.691  0.00  0.00    +0.201 A 
ATOM     32  C   UNL     1      -1.403   4.112  25.132  0.00  0.00    +0.046 A 
ATOM     33  C   UNL     1      -0.816   4.688  25.061  0.00  0.00    +0.044 A 
ATOM     34  C   UNL     1      -0.220   4.386  24.576  0.00  0.00    +0.180 A 
ATOM     35  O   UNL     1      -0.439   3.623  24.348  0.00  0.00    -0.446 OA
ENDBRANCH  29  31
BRANCH   2   3
ATOM      3  C   UNL     1      -1.937  -1.891  24.748  0.00  0.00    +0.184 C 
ATOM      4  O   UNL     1      -1.441  -2.537  24.886  0.00  0.00    -0.220 OA
ENDBRANCH   2   3
BRANCH  11  12
ATOM     12  C   UNL     1      -4.009   0.492  24.050  0.00  0.00    +0.093 C 
BRANCH  12  13
ATOM     13  C   UNL     1      -4.425   0.914  24.625  0.00  0.00    +0.242 C 
ATOM     14  O   UNL     1      -4.332   0.725  25.422  0.00  0.00    -0.273 OA
ATOM     15  N   UNL     1      -4.933   1.523  24.402  0.00  0.00    -0.207 NA
BRANCH  15  16
ATOM     16  C   UNL     1      -5.349   1.945  24.976  0.00  0.00    +0.095 C 
ATOM     17  C   UNL     1      -5.150   2.730  25.134  0.00  0.00    +0.022 C 
ATOM     18  C   UNL     1      -5.566   3.152  25.709  0.00  0.00    +0.002 C 
ATOM     19  C   UNL     1      -6.180   2.790  26.124  0.00  0.00    +0.000 C 
ATOM     20  C   UNL     1      -6.378   2.005  25.964  0.00  0.00    +0.002 C 
ATOM     21  C   UNL     1      -5.963   1.583  25.391  0.00  0.00    +0.022 C 
ENDBRANCH  15  16
ENDBRANCH  12  13
ENDBRANCH  11  12
TORSDOF 5
ENDMDL
MODEL 2
REMARK VINA RESULT:     -14.1      1.726      4.158
REMARK  Name = 
REMARK  5 active torsions:
REMARK  status: ('A' for Active; 'I' for Inactive)
REMARK    1  A    between atoms: C_2  and  C_3
REMARK    2  A    between atoms: C_11  and  C_12
REMARK    3  A    between atoms: C_12  and  C_13
REMARK    4  A    between atoms: N_15  and  C_16
REMARK    5  A    between atoms: C_29  and  C_31
REMARK                            x       y       z     vdW  Elec       q    Type
REMARK                         _______ _______ _______ _____ _____    ______ ____
ROOT
ATOM      1  C   UNL     1      -4.645   3.780  25.934  0.00  0.00    +0.005 C 
ATOM      2  C   UNL     1      -4.340   3.155  25.491  0.00  0.00    +0.059 C 
ATOM      5  C   UNL     1      -5.146   2.991  25.434  0.00  0.00    +0.154 C 
ATOM      6  O   UNL     1      -5.695   3.483  25.804  0.00  0.00    -0.223 OA
ATOM      7  C   UNL     1      -5.404   2.333  25.007  0.00  0.00    +0.033 C 
ATOM      8  C   UNL     1      -4.857   1.841  24.637  0.00  0.00    +0.003 C 
ATOM      9  C   UNL     1      -4.051   2.004  24.693  0.00  0.00    +0.006 C 
ATOM     10  C   UNL     1      -4.309   1.348  24.267  0.00  0.00    +0.000 C 
ATOM     11  C   UNL     1      -3.502   1.512  24.323  0.00  0.00    +0.050 C 
ATOM     22  C   UNL     1      -2.696   1.676  24.380  0.00  0.00    +0.063 A 
ATOM     23  C   UNL     1      -2.437   2.334  24.807  0.00  0.00    +0.023 A 
ATOM     24  C   UNL     1      -2.985   2.826  25.177  0.00  0.00    +0.034 C 
ATOM     25  C   UNL     1      -3.792   2.662  25.121  0.00  0.00    +0.010 C 
ATOM     26  S   UNL     1      -1.613   2.355  24.766  0.00  0.00    -0.054 S 
ATOM     27  C   UNL     1      -1.362   1.713  24.314  0.00  0.00    +0.186 A 
ATOM     28  N   UNL     1      -0.580   1.523  24.133  0.00  0.00    -0.148 NA
ATOM     29  C   UNL     1      -0.413   0.859  23.673  0.00  0.00    +0.305 C 
ATOM     30  O   UNL     1      -1.028   0.385  23.394  0.00  0.00    -0.265 OA
ATOM     36  N   UNL     1      -2.031   1.293  24.076  0.00  0.00    -0.227 NA
ENDROOT
BRANCH  29  31
ATOM     31  C   UNL     1       0.369   0.670  23.492  0.00  0.00    +0.201 A 
ATOM     32  C   UNL     1       0.627  -0.022  23.124  0.00  0.00    +0.046 A 
ATOM     33  C   UNL     1       1.449   0.019  23.051  0.00  0.00    +0.044 A 
ATOM     34  C   UNL     1       1.697   0.735  23.375  0.00  0.00    +0.180 A 
ATOM     35  O   UNL     1       1.030   1.138  23.647  0.00  0.00    -0.446 OA
ENDBRANCH  29  31
BRANCH   2   3
ATOM      3  C   UNL     1      -3.640   3.536  25.701  0.00  0.00    +0.184 C 
ATOM      4  O   UNL     1      -3.661   4.190  26.204  0.00  0.00    -0.220 OA
ENDBRANCH   2   3
BRANCH  11  12
ATOM     12  C   UNL     1      -3.760   0.855  23.896  0.00  0.00    +0.093 C 
BRANCH  12  13
ATOM     13  C   UNL     1      -3.706   0.100  24.227  0.00  0.00    +0.242 C 
ATOM     14  O   UNL     1      -3.683   0.011  25.047  0.00  0.00    -0.273 OA
ATOM     15  N   UNL     1      -3.676  -0.563  23.739  0.00  0.00    -0.207 NA
BRANCH  15  16
ATOM     16  C   UNL     1      -3.623  -1.317  24.069  0.00  0.00    +0.095 C 
ATOM     17  C   UNL     1      -4.226  -1.865  23.943  0.00  0.00    +0.022 C 
ATOM     18  C   UNL     1      -4.173  -2.620  24.273  0.00  0.00    +0.002 C 
ATOM     19  C   UNL     1      -3.517  -2.825  24.729  0.00  0.00    +0.000 C 
ATOM     20  C   UNL     1      -2.914  -2.276  24.855  0.00  0.00    +0.002 C 
ATOM     21  C   UNL     1      -2.967  -1.522  24.525  0.00  0.00    +0.022 C 
ENDBRANCH  15  16
ENDBRANCH  12  13
ENDBRANCH  11  12
TORSDOF 5
ENDMDL
MODEL 3
REMARK VINA RESULT:     -13.3      1.344      3.499
REMARK  Name = 
REMARK  5 active torsions:
REMARK  status: ('A' for Active; 'I' for Inactive)
REMARK    1  A    between atoms: C_2  and  C_3
REMARK    2  A    between atoms: C_11  and  C_12
REMARK    3  A    between atoms: C_12  and  C_13
REMARK    4  A    between atoms: N_15  and  C_16
REMARK    5  A    between atoms: C_29  and  C_31
REMARK                            x       y       z     vdW  Elec       q    Type
REMARK                         _______ _______ _______ _____ _____    ______ ____
ROOT
ATOM      1  C   UNL     1      -3.712  -2.928  23.939  0.00  0.00    +0.005 C 
ATOM      2  C   UNL     1      -3.471  -2.212  24.270  0.00  0.00    +0.059 C 
ATOM      5  C   UNL     1      -2.799  -2.668  24.410  0.00  0.00    +0.154 C 
ATOM      6  O   UNL     1      -2.777  -3.456  24.168  0.00  0.00    -0.223 OA
ATOM      7  C   UNL     1      -2.147  -2.335  24.792  0.00  0.00    +0.033 C 
ATOM      8  C   UNL     1      -2.168  -1.547  25.034  0.00  0.00    +0.003 C 
ATOM      9  C   UNL     1      -2.841  -1.091  24.894  0.00  0.00    +0.006 C 
ATOM     10  C   UNL     1      -2.190  -0.759  25.275  0.00  0.00    +0.000 C 
ATOM     11  C   UNL     1      -2.863  -0.302  25.135  0.00  0.00    +0.050 C 
ATOM     22  C   UNL     1      -3.535   0.154  24.995  0.00  0.00    +0.063 A 
ATOM     23  C   UNL     1      -4.187  -0.179  24.613  0.00  0.00    +0.023 A 
ATOM     24  C   UNL     1      -4.166  -0.967  24.371  0.00  0.00    +0.034 C 
ATOM     25  C   UNL     1      -3.493  -1.424  24.511  0.00  0.00    +0.010 C 
ATOM     26  S   UNL     1      -4.770   0.402  24.551  0.00  0.00    -0.054 S 
ATOM     27  C   UNL     1      -4.479   1.093  24.894  0.00  0.00    +0.186 A 
ATOM     28  N   UNL     1      -4.880   1.812  24.953  0.00  0.00    -0.148 NA
ATOM     29  C   UNL     1      -4.516   2.459  25.312  0.00  0.00    +0.305 C 
ATOM     30  O   UNL     1      -3.751   2.388  25.614  0.00  0.00    -0.265 OA
ATOM     36  N   UNL     1      -3.716   0.940  25.168  0.00  0.00    -0.227 NA
ENDROOT
BRANCH  29  31
ATOM     31  C   UNL     1      -4.917   3.177  25.371  0.00  0.00    +0.201 A 
ATOM     32  C   UNL     1      -4.638   3.911  25.115  0.00  0.00    +0.046 A 
ATOM     33  C   UNL     1      -5.216   4.476  25.282  0.00  0.00    +0.044 A 
ATOM     34  C   UNL     1      -5.852   4.091  25.640  0.00  0.00    +0.180 A 
ATOM     35  O   UNL     1      -5.667   3.289  25.695  0.00  0.00    -0.446 OA
ENDBRANCH  29  31
BRANCH   2   3
ATOM      3  C   UNL     1      -4.228  -2.005  24.015  0.00  0.00    +0.184 C 
ATOM      4  O   UNL     1      -4.687  -2.550  23.599  0.00  0.00    -0.220 OA
ENDBRANCH   2   3
BRANCH  11  12
ATOM     12  C   UNL     1      -2.212   0.030  25.517  0.00  0.00    +0.093 C 
BRANCH  12  13
ATOM     13  C   UNL     1      -1.720   0.556  25.113  0.00  0.00    +0.242 C 
ATOM     14  O   UNL     1      -1.778   0.626  24.293  0.00  0.00    -0.273 OA
ATOM     15  N   UNL     1      -1.171   1.009  25.528  0.00  0.00    -0.207 NA
BRANCH  15  16
ATOM     16  C   UNL     1      -0.679   1.534  25.125  0.00  0.00    +0.095 C 
ATOM     17  C   UNL     1      -0.826   2.345  25.161  0.00  0.00    +0.022 C 
ATOM     18  C   UNL     1      -0.334   2.871  24.757  0.00  0.00    +0.002 C 
ATOM     19  C   UNL     1       0.304   2.586  24.318  0.00  0.00    +0.000 C 
ATOM     20  C   UNL     1       0.449   1.774  24.283  0.00  0.00    +0.002 C 
ATOM     21  C   UNL     1      -0.042   1.249  24.685  0.00  0.00    +0.022 C 
ENDBRANCH  15  16
ENDBRANCH  12  13
ENDBRANCH  11  12
TORSDOF 5
ENDMDL
MODEL 4
REMARK VINA RESULT:     -13.3      1.042      4.397
REMARK  Name = 
REMARK  5 active torsions:
REMARK  status: ('A' for Active; 'I' for Inactive)
REMARK    1  A    between atoms: C_2  and  C_3
REMARK    2  A    between atoms: C_11  and  C_12
REMARK    3  A    between atoms: C_12  and  C_13
REMARK    4  A    between atoms: N_15  and  C_16
REMARK    5  A    between atoms: C_29  and  C_31
REMARK                            x       y       z     vdW  Elec       q    Type
REMARK                         _______ _______ _______ _____ _____    ______ ____
ROOT
ATOM      1  C   UNL     1       0.162   3.439  25.591  0.00  0.00    +0.005 C 
ATOM      2  C   UNL     1      -0.527   3.080  25.315  0.00  0.00    +0.059 C 
ATOM      5  C   UNL     1      -0.714   3.872  25.180  0.00  0.00    +0.154 C 
ATOM      6  O   UNL     1      -0.172   4.463  25.377  0.00  0.00    -0.223 OA
ATOM      7  C   UNL     1      -1.443   4.074  24.849  0.00  0.00    +0.033 C 
ATOM      8  C   UNL     1      -1.984   3.484  24.653  0.00  0.00    +0.003 C 
ATOM      9  C   UNL     1      -1.798   2.693  24.787  0.00  0.00    +0.006 C 
ATOM     10  C   UNL     1      -2.525   2.894  24.457  0.00  0.00    +0.000 C 
ATOM     11  C   UNL     1      -2.339   2.102  24.591  0.00  0.00    +0.050 C 
ATOM     22  C   UNL     1      -2.153   1.310  24.725  0.00  0.00    +0.063 A 
ATOM     23  C   UNL     1      -1.424   1.108  25.057  0.00  0.00    +0.023 A 
ATOM     24  C   UNL     1      -0.883   1.698  25.253  0.00  0.00    +0.034 C 
ATOM     25  C   UNL     1      -1.069   2.490  25.119  0.00  0.00    +0.010 C 
ATOM     26  S   UNL     1      -1.395   0.286  25.125  0.00  0.00    -0.054 S 
ATOM     27  C   UNL     1      -2.104  -0.020  24.836  0.00  0.00    +0.186 A 
ATOM     28  N   UNL     1      -2.309  -0.818  24.800  0.00  0.00    -0.148 NA
ATOM     29  C   UNL     1      -3.042  -1.042  24.496  0.00  0.00    +0.305 C 
ATOM     30  O   UNL     1      -3.571  -0.469  24.227  0.00  0.00    -0.265 OA
ATOM     36  N   UNL     1      -2.572   0.613  24.589  0.00  0.00    -0.227 NA
ENDROOT
BRANCH  29  31
ATOM     31  C   UNL     1      -3.247  -1.841  24.460  0.00  0.00    +0.201 A 
ATOM     32  C   UNL     1      -3.934  -2.150  24.123  0.00  0.00    +0.046 A 
ATOM     33  C   UNL     1      -3.913  -2.971  24.210  0.00  0.00    +0.044 A 
ATOM     34  C   UNL     1      -3.214  -3.168  24.600  0.00  0.00    +0.180 A 
ATOM     35  O   UNL     1      -2.802  -2.469  24.755  0.00  0.00    -0.446 OA
ENDBRANCH  29  31
BRANCH   2   3
ATOM      3  C   UNL     1      -0.101   2.413  25.545  0.00  0.00    +0.184 C 
ATOM      4  O   UNL     1       0.615   2.499  25.947  0.00  0.00    -0.220 OA
ENDBRANCH   2   3
BRANCH  11  12
ATOM     12  C   UNL     1      -3.067   2.304  24.260  0.00  0.00    +0.093 C 
BRANCH  12  13
ATOM     13  C   UNL     1      -3.750   2.293  24.725  0.00  0.00    +0.242 C 
ATOM     14  O   UNL     1      -3.689   2.206  25.543  0.00  0.00    -0.273 OA
ATOM     15  N   UNL     1      -4.490   2.369  24.372  0.00  0.00    -0.207 NA
BRANCH  15  16
ATOM     16  C   UNL     1      -5.172   2.359  24.836  0.00  0.00    +0.095 C 
ATOM     17  C   UNL     1      -5.644   1.683  24.858  0.00  0.00    +0.022 C 
ATOM     18  C   UNL     1      -6.327   1.672  25.322  0.00  0.00    +0.002 C 
ATOM     19  C   UNL     1      -6.536   2.336  25.764  0.00  0.00    +0.000 C 
ATOM     20  C   UNL     1      -6.063   3.012  25.741  0.00  0.00    +0.002 C 
ATOM     21  C   UNL     1      -5.382   3.023  25.278  0.00  0.00    +0.022 C 
ENDBRANCH  15  16
ENDBRANCH  12  13
ENDBRANCH  11  12
TORSDOF 5
ENDMDL
MODEL 5
REMARK VINA RESULT:     -13.2      1.615      5.314
REMARK  Name = 
REMARK  5 active torsions:
REMARK  status: ('A' for Active; 'I' for Inactive)
REMARK    1  A    between atoms: C_2  and  C_3
REMARK    2  A    between atoms: C_11  and  C_12
REMARK    3  A    between atoms: C_12  and  C_13
REMARK    4  A    between atoms: N_15  and  C_16
REMARK    5  A    between atoms: C_29  and  C_31
REMARK                            x       y       z     vdW  Elec       q    Type
REMARK                         _______ _______ _______ _____ _____    ______ ____
ROOT
ATOM      1  C   UNL     1      -5.693   3.809  25.748  0.00  0.00    +0.005 C 
ATOM      2  C   UNL     1      -5.164   3.321  25.344  0.00  0.00    +0.059 C 
ATOM      5  C   UNL     1      -4.895   4.059  25.096  0.00  0.00    +0.154 C 
ATOM      6  O   UNL     1      -5.265   4.746  25.364  0.00  0.00    -0.223 OA
ATOM      7  C   UNL     1      -4.254   4.112  24.578  0.00  0.00    +0.033 C 
ATOM      8  C   UNL     1      -3.884   3.426  24.309  0.00  0.00    +0.003 C 
ATOM      9  C   UNL     1      -4.153   2.687  24.558  0.00  0.00    +0.006 C 
ATOM     10  C   UNL     1      -3.513   2.740  24.041  0.00  0.00    +0.000 C 
ATOM     11  C   UNL     1      -3.783   2.001  24.289  0.00  0.00    +0.050 C 
ATOM     22  C   UNL     1      -4.052   1.262  24.538  0.00  0.00    +0.063 A 
ATOM     23  C   UNL     1      -4.693   1.210  25.056  0.00  0.00    +0.023 A 
ATOM     24  C   UNL     1      -5.064   1.895  25.324  0.00  0.00    +0.034 C 
ATOM     25  C   UNL     1      -4.794   2.635  25.076  0.00  0.00    +0.010 C 
ATOM     26  S   UNL     1      -4.835   0.410  25.204  0.00  0.00    -0.054 S 
ATOM     27  C   UNL     1      -4.283  -0.031  24.779  0.00  0.00    +0.186 A 
ATOM     28  N   UNL     1      -4.225  -0.854  24.768  0.00  0.00    -0.148 NA
ATOM     29  C   UNL     1      -3.641  -1.219  24.314  0.00  0.00    +0.305 C 
ATOM     30  O   UNL     1      -3.115  -0.763  23.871  0.00  0.00    -0.265 OA
ATOM     36  N   UNL     1      -3.799   0.495  24.368  0.00  0.00    -0.227 NA
ENDROOT
BRANCH  29  31
ATOM     31  C   UNL     1      -3.583  -2.042  24.303  0.00  0.00    +0.201 A 
ATOM     32  C   UNL     1      -3.013  -2.493  24.693  0.00  0.00    +0.046 A 
ATOM     33  C   UNL     1      -3.162  -3.289  24.531  0.00  0.00    +0.044 A 
ATOM     34  C   UNL     1      -3.824  -3.329  24.040  0.00  0.00    +0.180 A 
ATOM     35  O   UNL     1      -4.084  -2.558  23.899  0.00  0.00    -0.446 OA
ENDBRANCH  29  31
BRANCH   2   3
ATOM      3  C   UNL     1      -5.618   2.752  25.733  0.00  0.00    +0.184 C 
ATOM      4  O   UNL     1      -6.182   2.983  26.289  0.00  0.00    -0.220 OA
ENDBRANCH   2   3
BRANCH  11  12
ATOM     12  C   UNL     1      -3.142   2.053  23.772  0.00  0.00    +0.093 C 
BRANCH  12  13
ATOM     13  C   UNL     1      -2.373   1.956  24.056  0.00  0.00    +0.242 C 
ATOM     14  O   UNL     1      -2.234   1.932  24.868  0.00  0.00    -0.273 OA
ATOM     15  N   UNL     1      -1.745   1.883  23.527  0.00  0.00    -0.207 NA
BRANCH  15  16
ATOM     16  C   UNL     1      -0.976   1.785  23.810  0.00  0.00    +0.095 C 
ATOM     17  C   UNL     1      -0.620   1.042  23.785  0.00  0.00    +0.022 C 
ATOM     18  C   UNL     1       0.150   0.944  24.068  0.00  0.00    +0.002 C 
ATOM     19  C   UNL     1       0.561   1.589  24.376  0.00  0.00    +0.000 C 
ATOM     20  C   UNL     1       0.203   2.333  24.400  0.00  0.00    +0.002 C 
ATOM     21  C   UNL     1      -0.565   2.431  24.118  0.00  0.00    +0.022 C 
ENDBRANCH  15  16
ENDBRANCH  12  13
ENDBRANCH  11  12
TORSDOF 5
ENDMDL
MODEL 6
REMARK VINA RESULT:     -12.7      1.803      5.703
REMARK  Name = 
REMARK  5 active torsions:
REMARK  status: ('A' for Active; 'I' for Inactive)
REMARK    1  A    between atoms: C_2  and  C_3
REMARK    2  A    between atoms: C_11  and  C_12
REMARK    3  A    between atoms: C_12  and  C_13
REMARK    4  A    between atoms: N_15  and  C_16
REMARK    5  A    between atoms: C_29  and  C_31
REMARK                            x       y       z     vdW  Elec       q    Type
REMARK                         _______ _______ _______ _____ _____    ______ ____
ROOT
ATOM      1  C   UNL     1      -2.727   4.704  25.170  0.00  0.00    +0.005 C 
ATOM      2  C   UNL     1      -2.415   3.940  25.144  0.00  0.00    +0.059 C 
ATOM      5  C   UNL     1      -1.733   4.368  25.320  0.00  0.00    +0.154 C 
ATOM      6  O   UNL     1      -1.769   5.188  25.405  0.00  0.00    -0.223 OA
ATOM      7  C   UNL     1      -1.012   3.975  25.412  0.00  0.00    +0.033 C 
ATOM      8  C   UNL     1      -0.975   3.156  25.327  0.00  0.00    +0.003 C 
ATOM      9  C   UNL     1      -1.658   2.729  25.151  0.00  0.00    +0.006 C 
ATOM     10  C   UNL     1      -0.939   2.337  25.243  0.00  0.00    +0.000 C 
ATOM     11  C   UNL     1      -1.622   1.909  25.066  0.00  0.00    +0.050 C 
ATOM     22  C   UNL     1      -2.304   1.481  24.889  0.00  0.00    +0.063 A 
ATOM     23  C   UNL     1      -3.025   1.874  24.797  0.00  0.00    +0.023 A 
ATOM     24  C   UNL     1      -3.062   2.693  24.882  0.00  0.00    +0.034 C 
ATOM     25  C   UNL     1      -2.379   3.121  25.059  0.00  0.00    +0.010 C 
ATOM     26  S   UNL     1      -3.601   1.309  24.625  0.00  0.00    -0.054 S 
ATOM     27  C   UNL     1      -3.238   0.569  24.610  0.00  0.00    +0.186 A 
ATOM     28  N   UNL     1      -3.611  -0.151  24.459  0.00  0.00    -0.148 NA
ATOM     29  C   UNL     1      -3.175  -0.850  24.463  0.00  0.00    +0.305 C 
ATOM     30  O   UNL     1      -2.364  -0.831  24.619  0.00  0.00    -0.265 OA
ATOM     36  N   UNL     1      -2.437   0.675  24.774  0.00  0.00    -0.227 NA
ENDROOT
BRANCH  29  31
ATOM     31  C   UNL     1      -3.548  -1.571  24.312  0.00  0.00    +0.201 A 
ATOM     32  C   UNL     1      -3.340  -2.301  24.635  0.00  0.00    +0.046 A 
ATOM     33  C   UNL     1      -3.858  -2.869  24.334  0.00  0.00    +0.044 A 
ATOM     34  C   UNL     1      -4.385  -2.490  23.826  0.00  0.00    +0.180 A 
ATOM     35  O   UNL     1      -4.193  -1.687  23.812  0.00  0.00    -0.446 OA
ENDBRANCH  29  31
BRANCH   2   3
ATOM      3  C   UNL     1      -3.207   3.778  24.976  0.00  0.00    +0.184 C 
ATOM      4  O   UNL     1      -3.754   4.395  24.929  0.00  0.00    -0.220 OA
ENDBRANCH   2   3
BRANCH  11  12
ATOM     12  C   UNL     1      -0.902   1.516  25.158  0.00  0.00    +0.093 C 
BRANCH  12  13
ATOM     13  C   UNL     1      -0.478   1.270  24.493  0.00  0.00    +0.242 C 
ATOM     14  O   UNL     1      -0.683   1.553  23.746  0.00  0.00    -0.273 OA
ATOM     15  N   UNL     1       0.150   0.743  24.577  0.00  0.00    -0.207 NA
BRANCH  15  16
ATOM     16  C   UNL     1       0.574   0.497  23.914  0.00  0.00    +0.095 C 
ATOM     17  C   UNL     1       1.233   0.926  23.664  0.00  0.00    +0.022 C 
ATOM     18  C   UNL     1       1.657   0.679  23.000  0.00  0.00    +0.002 C 
ATOM     19  C   UNL     1       1.422   0.005  22.587  0.00  0.00    +0.000 C 
ATOM     20  C   UNL     1       0.763  -0.423  22.838  0.00  0.00    +0.002 C 
ATOM     21  C   UNL     1       0.339  -0.178  23.500  0.00  0.00    +0.022 C 
ENDBRANCH  15  16
ENDBRANCH  12  13
ENDBRANCH  11  12
TORSDOF 5
ENDMDL
MODEL 7
REMARK VINA RESULT:     -12.1      1.799      3.766
REMARK  Name = 
REMARK  5 active torsions:
REMARK  status: ('A' for Active; 'I' for Inactive)
REMARK    1  A    between atoms: C_2  and  C_3
REMARK    2  A    between atoms: C_11  and  C_12
REMARK    3  A    between atoms: C_12  and  C_13
REMARK    4  A    between atoms: N_15  and  C_16
REMARK    5  A    between atoms: C_29  and  C_31
REMARK                            x       y       z     vdW  Elec       q    Type
REMARK                         _______ _______ _______ _____ _____    ______ ____
ROOT
ATOM      1  C   UNL     1      -4.326  -1.991  24.171  0.00  0.00    +0.005 C 
ATOM      2  C   UNL     1      -3.665  -1.523  24.324  0.00  0.00    +0.059 C 
ATOM      5  C   UNL     1      -3.313  -2.269  24.312  0.00  0.00    +0.154 C 
ATOM      6  O   UNL     1      -3.772  -2.940  24.174  0.00  0.00    -0.223 OA
ATOM      7  C   UNL     1      -2.500  -2.344  24.439  0.00  0.00    +0.033 C 
ATOM      8  C   UNL     1      -2.041  -1.673  24.577  0.00  0.00    +0.003 C 
ATOM      9  C   UNL     1      -2.393  -0.928  24.589  0.00  0.00    +0.006 C 
ATOM     10  C   UNL     1      -1.582  -1.003  24.715  0.00  0.00    +0.000 C 
ATOM     11  C   UNL     1      -1.933  -0.256  24.727  0.00  0.00    +0.050 C 
ATOM     22  C   UNL     1      -2.285   0.489  24.738  0.00  0.00    +0.063 A 
ATOM     23  C   UNL     1      -3.097   0.565  24.611  0.00  0.00    +0.023 A 
ATOM     24  C   UNL     1      -3.557  -0.106  24.473  0.00  0.00    +0.034 C 
ATOM     25  C   UNL     1      -3.205  -0.853  24.462  0.00  0.00    +0.010 C 
ATOM     26  S   UNL     1      -3.288   1.366  24.654  0.00  0.00    -0.054 S 
ATOM     27  C   UNL     1      -2.595   1.786  24.807  0.00  0.00    +0.186 A 
ATOM     28  N   UNL     1      -2.533   2.604  24.894  0.00  0.00    -0.148 NA
ATOM     29  C   UNL     1      -1.799   2.948  25.046  0.00  0.00    +0.305 C 
ATOM     30  O   UNL     1      -1.127   2.474  25.113  0.00  0.00    -0.265 OA
ATOM     36  N   UNL     1      -1.975   1.245  24.859  0.00  0.00    -0.227 NA
ENDROOT
BRANCH  29  31
ATOM     31  C   UNL     1      -1.737   3.766  25.133  0.00  0.00    +0.201 A 
ATOM     32  C   UNL     1      -1.096   4.231  24.900  0.00  0.00    +0.046 A 
ATOM     33  C   UNL     1      -1.267   5.015  25.090  0.00  0.00    +0.044 A 
ATOM     34  C   UNL     1      -2.014   5.035  25.441  0.00  0.00    +0.180 A 
ATOM     35  O   UNL     1      -2.304   4.263  25.467  0.00  0.00    -0.446 OA
ENDBRANCH  29  31
BRANCH   2   3
ATOM      3  C   UNL     1      -4.246  -0.940  24.282  0.00  0.00    +0.184 C 
ATOM      4  O   UNL     1      -5.027  -1.147  24.113  0.00  0.00    -0.220 OA
ENDBRANCH   2   3
BRANCH  11  12
ATOM     12  C   UNL     1      -1.121  -0.332  24.853  0.00  0.00    +0.093 C 
BRANCH  12  13
ATOM     13  C   UNL     1      -0.590  -0.156  24.246  0.00  0.00    +0.242 C 
ATOM     14  O   UNL     1      -0.872   0.022  23.491  0.00  0.00    -0.273 OA
ATOM     15  N   UNL     1       0.220  -0.158  24.394  0.00  0.00    -0.207 NA
BRANCH  15  16
ATOM     16  C   UNL     1       0.751   0.018  23.787  0.00  0.00    +0.095 C 
ATOM     17  C   UNL     1       1.153   0.738  23.788  0.00  0.00    +0.022 C 
ATOM     18  C   UNL     1       1.684   0.914  23.181  0.00  0.00    +0.002 C 
ATOM     19  C   UNL     1       1.813   0.370  22.574  0.00  0.00    +0.000 C 
ATOM     20  C   UNL     1       1.410  -0.350  22.575  0.00  0.00    +0.002 C 
ATOM     21  C   UNL     1       0.879  -0.526  23.180  0.00  0.00    +0.022 C 
ENDBRANCH  15  16
ENDBRANCH  12  13
ENDBRANCH  11  12
TORSDOF 5
ENDMDL
MODEL 8
REMARK VINA RESULT:     -11.9      2.226      3.407
REMARK  Name = 
REMARK  5 active torsions:
REMARK  status: ('A' for Active; 'I' for Inactive)
REMARK    1  A    between atoms: C_2  and  C_3
REMARK    2  A    between atoms: C_11  and  C_12
REMARK    3  A    between atoms: C_12  and  C_13
REMARK    4  A    between atoms: N_15  and  C_16
REMARK    5  A    between atoms: C_29  and  C_31
REMARK                            x       y       z     vdW  Elec       q    Type
REMARK                         _______ _______ _______ _____ _____    ______ ____
ROOT
ATOM      1  C   UNL     1      -3.597  -1.497  25.615  0.00  0.00    +0.005 C 
ATOM      2  C   UNL     1      -3.158  -0.920  25.222  0.00  0.00    +0.059 C 
ATOM      5  C   UNL     1      -3.881  -0.529  25.291  0.00  0.00    +0.154 C 
ATOM      6  O   UNL     1      -4.518  -0.900  25.661  0.00  0.00    -0.223 OA
ATOM      7  C   UNL     1      -3.967   0.236  24.990  0.00  0.00    +0.033 C 
ATOM      8  C   UNL     1      -3.330   0.607  24.621  0.00  0.00    +0.003 C 
ATOM      9  C   UNL     1      -2.608   0.216  24.552  0.00  0.00    +0.006 C 
ATOM     10  C   UNL     1      -2.694   0.979  24.251  0.00  0.00    +0.000 C 
ATOM     11  C   UNL     1      -1.971   0.588  24.182  0.00  0.00    +0.050 C 
ATOM     22  C   UNL     1      -1.248   0.197  24.113  0.00  0.00    +0.063 A 
ATOM     23  C   UNL     1      -1.162  -0.567  24.414  0.00  0.00    +0.023 A 
ATOM     24  C   UNL     1      -1.798  -0.939  24.783  0.00  0.00    +0.034 C 
ATOM     25  C   UNL     1      -2.522  -0.548  24.853  0.00  0.00    +0.010 C 
ATOM     26  S   UNL     1      -0.388  -0.813  24.266  0.00  0.00    -0.054 S 
ATOM     27  C   UNL     1       0.004  -0.202  23.874  0.00  0.00    +0.186 A 
ATOM     28  N   UNL     1       0.789  -0.214  23.621  0.00  0.00    -0.148 NA
ATOM     29  C   UNL     1       1.106   0.442  23.234  0.00  0.00    +0.305 C 
ATOM     30  O   UNL     1       0.640   1.109  23.100  0.00  0.00    -0.265 OA
ATOM     36  N   UNL     1      -0.528   0.421  23.780  0.00  0.00    -0.227 NA
ENDROOT
BRANCH  29  31
ATOM     31  C   UNL     1       1.891   0.430  22.981  0.00  0.00    +0.201 A 
ATOM     32  C   UNL     1       2.471   0.986  23.172  0.00  0.00    +0.046 A 
ATOM     33  C   UNL     1       3.173   0.761  22.801  0.00  0.00    +0.044 A 
ATOM     34  C   UNL     1       3.027   0.066  22.381  0.00  0.00    +0.180 A 
ATOM     35  O   UNL     1       2.235  -0.138  22.492  0.00  0.00    -0.446 OA
ENDBRANCH  29  31
BRANCH   2   3
ATOM      3  C   UNL     1      -2.588  -1.512  25.290  0.00  0.00    +0.184 C 
ATOM      4  O   UNL     1      -2.803  -2.264  25.552  0.00  0.00    -0.220 OA
ENDBRANCH   2   3
BRANCH  11  12
ATOM     12  C   UNL     1      -2.057   1.351  23.881  0.00  0.00    +0.093 C 
BRANCH  12  13
ATOM     13  C   UNL     1      -1.803   2.001  24.324  0.00  0.00    +0.242 C 
ATOM     14  O   UNL     1      -1.512   1.890  25.088  0.00  0.00    -0.273 OA
ATOM     15  N   UNL     1      -1.842   2.758  24.003  0.00  0.00    -0.207 NA
BRANCH  15  16
ATOM     16  C   UNL     1      -1.589   3.407  24.445  0.00  0.00    +0.095 C 
ATOM     17  C   UNL     1      -2.130   3.828  24.905  0.00  0.00    +0.022 C 
ATOM     18  C   UNL     1      -1.877   4.478  25.347  0.00  0.00    +0.002 C 
ATOM     19  C   UNL     1      -1.084   4.706  25.329  0.00  0.00    +0.000 C 
ATOM     20  C   UNL     1      -0.544   4.284  24.869  0.00  0.00    +0.002 C 
ATOM     21  C   UNL     1      -0.796   3.635  24.427  0.00  0.00    +0.022 C 
ENDBRANCH  15  16
ENDBRANCH  12  13
ENDBRANCH  11  12
TORSDOF 5
ENDMDL
