MODEL 1
REMARK VINA RESULT:      -6.8      0.000      0.000
REMARK  Name = 
REMARK  4 active torsions:
REMARK  status: ('A' for Active; 'I' for Inactive)
REMARK    1  A    between atoms: C_2  and  N_4
REMARK    2  A    between atoms: N_4  and  C_5
REMARK    3  A    between atoms: C_8  and  C_9
REMARK    4  A    between atoms: C_9  and  N_10
REMARK                            x       y       z     vdW  Elec       q    Type
REMARK                         _______ _______ _______ _____ _____    ______ ____
ROOT
ATOM      5  C   UNL     1      -3.758  -0.162  24.449  0.00  0.00    +0.135 C 
ATOM      6  C   UNL     1      -4.365  -0.134  25.006  0.00  0.00    +0.162 C 
ATOM      7  O   UNL     1      -4.564   0.657  25.126  0.00  0.00    -0.350 OA
ATOM      8  C   UNL     1      -4.081   1.118  24.643  0.00  0.00    +0.169 C 
ATOM     14  C   UNL     1      -3.582   0.613  24.224  0.00  0.00    +0.199 C 
ATOM     15  O   UNL     1      -3.009   0.840  23.677  0.00  0.00    -0.219 OA
ENDROOT
BRANCH   5   4
ATOM      4  N   UNL     1      -3.390  -0.844  24.165  0.00  0.00    -0.216 NA
BRANCH   4   2
ATOM      1  C   UNL     1      -3.420  -1.971  25.044  0.00  0.00    +0.019 C 
ATOM      2  C   UNL     1      -3.688  -1.587  24.365  0.00  0.00    +0.073 C 
ATOM      3  C   UNL     1      -4.256  -1.946  23.884  0.00  0.00    +0.019 C 
ENDBRANCH   4   2
ENDBRANCH   5   4
BRANCH   8   9
ATOM      9  C   UNL     1      -4.094   1.942  24.588  0.00  0.00    +0.147 C 
BRANCH   9  10
ATOM     10  N   UNL     1      -4.583   2.380  25.087  0.00  0.00    -0.203 NA
ATOM     11  C   UNL     1      -4.594   3.204  25.034  0.00  0.00    +0.242 C 
ATOM     12  C   UNL     1      -5.083   3.643  25.533  0.00  0.00    +0.096 C 
ATOM     13  O   UNL     1      -4.116   3.588  24.482  0.00  0.00    -0.273 OA
ENDBRANCH   9  10
ENDBRANCH   8   9
TORSDOF 4
ENDMDL
MODEL 2
REMARK VINA RESULT:      -6.7      2.881      4.322
REMARK  Name = 
REMARK  4 active torsions:
REMARK  status: ('A' for Active; 'I' for Inactive)
REMARK    1  A    between atoms: C_2  and  N_4
REMARK    2  A    between atoms: N_4  and  C_5
REMARK    3  A    between atoms: C_8  and  C_9
REMARK    4  A    between atoms: C_9  and  N_10
REMARK                            x       y       z     vdW  Elec       q    Type
REMARK                         _______ _______ _______ _____ _____    ______ ____
ROOT
ATOM      5  C   UNL     1      -2.436   3.989  25.427  0.00  0.00    +0.135 C 
ATOM      6  C   UNL     1      -2.561   3.615  24.703  0.00  0.00    +0.162 C 
ATOM      7  O   UNL     1      -3.326   3.308  24.703  0.00  0.00    -0.350 OA
ATOM      8  C   UNL     1      -3.675   3.491  25.428  0.00  0.00    +0.169 C 
ATOM     14  C   UNL     1      -3.125   3.912  25.876  0.00  0.00    +0.199 C 
ATOM     15  O   UNL     1      -3.242   4.205  26.637  0.00  0.00    -0.219 OA
ENDROOT
BRANCH   5   4
ATOM      4  N   UNL     1      -1.745   4.372  25.662  0.00  0.00    -0.216 NA
BRANCH   4   2
ATOM      1  C   UNL     1      -0.600   3.761  25.064  0.00  0.00    +0.019 C 
ATOM      2  C   UNL     1      -1.100   4.412  25.150  0.00  0.00    +0.073 C 
ATOM      3  C   UNL     1      -0.955   5.104  24.722  0.00  0.00    +0.019 C 
ENDBRANCH   4   2
ENDBRANCH   5   4
BRANCH   8   9
ATOM      9  C   UNL     1      -4.439   3.289  25.664  0.00  0.00    +0.147 C 
BRANCH   9  10
ATOM     10  N   UNL     1      -4.865   2.723  25.241  0.00  0.00    -0.203 NA
ATOM     11  C   UNL     1      -5.595   2.461  25.522  0.00  0.00    +0.242 C 
ATOM     12  C   UNL     1      -6.021   1.894  25.099  0.00  0.00    +0.096 C 
ATOM     13  O   UNL     1      -5.899   2.765  26.227  0.00  0.00    -0.273 OA
ENDBRANCH   9  10
ENDBRANCH   8   9
TORSDOF 4
ENDMDL
MODEL 3
REMARK VINA RESULT:      -6.6      1.086      1.414
REMARK  Name = 
REMARK  4 active torsions:
REMARK  status: ('A' for Active; 'I' for Inactive)
REMARK    1  A    between atoms: C_2  and  N_4
REMARK    2  A    between atoms: N_4  and  C_5
REMARK    3  A    between atoms: C_8  and  C_9
REMARK    4  A    between atoms: C_9  and  N_10
REMARK                            x       y       z     vdW  Elec       q    Type
REMARK                         _______ _______ _______ _____ _____    ______ ____
ROOT
ATOM      5  C   UNL     1      -3.912   0.267  24.646  0.00  0.00    +0.135 C 
ATOM      6  C   UNL     1      -3.110   0.304  24.460  0.00  0.00    +0.162 C 
ATOM      7  O   UNL     1      -2.884   1.096  24.462  0.00  0.00    -0.350 OA
ATOM      8  C   UNL     1      -3.547   1.550  24.650  0.00  0.00    +0.169 C 
ATOM     14  C   UNL     1      -4.182   1.038  24.764  0.00  0.00    +0.199 C 
ATOM     15  O   UNL     1      -4.953   1.257  24.960  0.00  0.00    -0.219 OA
ENDROOT
BRANCH   5   4
ATOM      4  N   UNL     1      -4.365  -0.420  24.705  0.00  0.00    -0.216 NA
BRANCH   4   2
ATOM      1  C   UNL     1      -3.622  -1.514  25.246  0.00  0.00    +0.019 C 
ATOM      2  C   UNL     1      -4.011  -1.159  24.611  0.00  0.00    +0.073 C 
ATOM      3  C   UNL     1      -4.045  -1.542  23.880  0.00  0.00    +0.019 C 
ENDBRANCH   4   2
ENDBRANCH   5   4
BRANCH   8   9
ATOM      9  C   UNL     1      -3.569   2.373  24.712  0.00  0.00    +0.147 C 
BRANCH   9  10
ATOM     10  N   UNL     1      -2.921   2.781  25.019  0.00  0.00    -0.203 NA
ATOM     11  C   UNL     1      -2.917   3.606  25.021  0.00  0.00    +0.242 C 
ATOM     12  C   UNL     1      -2.269   4.015  25.327  0.00  0.00    +0.096 C 
ATOM     13  O   UNL     1      -3.562   4.023  24.717  0.00  0.00    -0.273 OA
ENDBRANCH   9  10
ENDBRANCH   8   9
TORSDOF 4
ENDMDL
MODEL 4
REMARK VINA RESULT:      -6.6      1.081      3.837
REMARK  Name = 
REMARK  4 active torsions:
REMARK  status: ('A' for Active; 'I' for Inactive)
REMARK    1  A    between atoms: C_2  and  N_4
REMARK    2  A    between atoms: N_4  and  C_5
REMARK    3  A    between atoms: C_8  and  C_9
REMARK    4  A    between atoms: C_9  and  N_10
REMARK                            x       y       z     vdW  Elec       q    Type
REMARK                         _______ _______ _______ _____ _____    ______ ____
ROOT
ATOM      5  C   UNL     1      -3.775   1.625  24.777  0.00  0.00    +0.135 C 
ATOM      6  C   UNL     1      -4.563   1.429  24.633  0.00  0.00    +0.162 C 
ATOM      7  O   UNL     1      -4.624   0.607  24.625  0.00  0.00    -0.350 OA
ATOM      8  C   UNL     1      -3.874   0.294  24.765  0.00  0.00    +0.169 C 
ATOM     14  C   UNL     1      -3.349   0.923  24.859  0.00  0.00    +0.199 C 
ATOM     15  O   UNL     1      -2.540   0.861  25.008  0.00  0.00    -0.219 OA
ENDROOT
BRANCH   5   4
ATOM      4  N   UNL     1      -3.467   2.388  24.831  0.00  0.00    -0.216 NA
BRANCH   4   2
ATOM      1  C   UNL     1      -3.989   3.332  23.893  0.00  0.00    +0.019 C 
ATOM      2  C   UNL     1      -3.945   3.039  24.663  0.00  0.00    +0.073 C 
ATOM      3  C   UNL     1      -4.379   3.398  25.267  0.00  0.00    +0.019 C 
ENDBRANCH   4   2
ENDBRANCH   5   4
BRANCH   8   9
ATOM      9  C   UNL     1      -3.682  -0.508  24.804  0.00  0.00    +0.147 C 
BRANCH   9  10
ATOM     10  N   UNL     1      -4.027  -1.040  24.276  0.00  0.00    -0.203 NA
ATOM     11  C   UNL     1      -3.894  -1.850  24.361  0.00  0.00    +0.242 C 
ATOM     12  C   UNL     1      -4.239  -2.383  23.834  0.00  0.00    +0.096 C 
ATOM     13  O   UNL     1      -3.415  -2.127  24.974  0.00  0.00    -0.273 OA
ENDBRANCH   9  10
ENDBRANCH   8   9
TORSDOF 4
ENDMDL
MODEL 5
REMARK VINA RESULT:      -6.4      2.582      3.026
REMARK  Name = 
REMARK  4 active torsions:
REMARK  status: ('A' for Active; 'I' for Inactive)
REMARK    1  A    between atoms: C_2  and  N_4
REMARK    2  A    between atoms: N_4  and  C_5
REMARK    3  A    between atoms: C_8  and  C_9
REMARK    4  A    between atoms: C_9  and  N_10
REMARK                            x       y       z     vdW  Elec       q    Type
REMARK                         _______ _______ _______ _____ _____    ______ ____
ROOT
ATOM      5  C   UNL     1      -2.238  -0.644  24.715  0.00  0.00    +0.135 C 
ATOM      6  C   UNL     1      -2.703  -0.047  25.044  0.00  0.00    +0.162 C 
ATOM      7  O   UNL     1      -2.214   0.597  25.204  0.00  0.00    -0.350 OA
ATOM      8  C   UNL     1      -1.447   0.398  24.974  0.00  0.00    +0.169 C 
ATOM     14  C   UNL     1      -1.461  -0.368  24.672  0.00  0.00    +0.199 C 
ATOM     15  O   UNL     1      -0.814  -0.787  24.379  0.00  0.00    -0.219 OA
ENDROOT
BRANCH   5   4
ATOM      4  N   UNL     1      -2.503  -1.386  24.471  0.00  0.00    -0.216 NA
BRANCH   4   2
ATOM      1  C   UNL     1      -3.878  -1.457  24.087  0.00  0.00    +0.019 C 
ATOM      2  C   UNL     1      -3.278  -1.620  24.629  0.00  0.00    +0.073 C 
ATOM      3  C   UNL     1      -3.454  -2.018  25.331  0.00  0.00    +0.019 C 
ENDBRANCH   4   2
ENDBRANCH   5   4
BRANCH   8   9
ATOM      9  C   UNL     1      -0.781   0.883  25.036  0.00  0.00    +0.147 C 
BRANCH   9  10
ATOM     10  N   UNL     1      -0.768   1.496  25.587  0.00  0.00    -0.203 NA
ATOM     11  C   UNL     1      -0.135   2.026  25.599  0.00  0.00    +0.242 C 
ATOM     12  C   UNL     1      -0.122   2.641  26.150  0.00  0.00    +0.096 C 
ATOM     13  O   UNL     1       0.484   1.943  25.059  0.00  0.00    -0.273 OA
ENDBRANCH   9  10
ENDBRANCH   8   9
TORSDOF 4
ENDMDL
