MODEL 1
REMARK VINA RESULT:     -14.8      0.000      0.000
REMARK  Name = 
REMARK  3 active torsions:
REMARK  status: ('A' for Active; 'I' for Inactive)
REMARK    1  A    between atoms: C_4  and  N_5
REMARK    2  A    between atoms: N_8  and  C_9
REMARK    3  A    between atoms: N_21  and  C_22
REMARK                            x       y       z     vdW  Elec       q    Type
REMARK                         _______ _______ _______ _____ _____    ______ ____
ROOT
ATOM      9  C   UNL     1      -2.087   1.500  23.843  0.00  0.00    +0.131 A 
ATOM     10  C   UNL     1      -1.294   1.723  23.792  0.00  0.00    +0.023 A 
ATOM     11  C   UNL     1      -0.700   1.172  23.943  0.00  0.00    +0.014 A 
ATOM     12  C   UNL     1      -0.898   0.397  24.145  0.00  0.00    +0.041 A 
ATOM     13  C   UNL     1      -0.508  -0.407  24.360  0.00  0.00    +0.058 C 
ATOM     14  C   UNL     1       0.120  -0.708  24.446  0.00  0.00    +0.011 C 
ATOM     15  C   UNL     1      -0.663  -0.925  24.495  0.00  0.00    +0.043 C 
ATOM     16  C   UNL     1      -1.537  -1.373  24.604  0.00  0.00    +0.097 C 
ATOM     17  N   UNL     1      -2.045  -0.733  24.430  0.00  0.00    -0.262 N 
ATOM     18  C   UNL     1      -1.344  -0.854  24.469  0.00  0.00    +0.101 C 
ATOM     19  C   UNL     1      -2.750  -0.319  24.314  0.00  0.00    +0.323 C 
ATOM     20  O   UNL     1      -2.730   0.479  24.105  0.00  0.00    -0.251 OA
ATOM     21  N   UNL     1      -3.474  -0.703  24.408  0.00  0.00    -0.190 NA
ATOM     28  C   UNL     1      -1.080  -0.090  24.271  0.00  0.00    +0.110 C 
ATOM     29  N   UNL     1      -1.691   0.174  24.196  0.00  0.00    -0.298 N 
ATOM     30  C   UNL     1      -2.285   0.725  24.045  0.00  0.00    +0.276 A 
ATOM     31  O   UNL     1      -3.110   0.750  24.030  0.00  0.00    -0.266 OA
ENDROOT
BRANCH  21  22
ATOM     22  C   UNL     1      -3.494  -1.500  24.618  0.00  0.00    +0.097 C 
ATOM     23  C   UNL     1      -3.558  -2.079  24.033  0.00  0.00    +0.022 C 
ATOM     24  C   UNL     1      -3.579  -2.876  24.242  0.00  0.00    +0.002 C 
ATOM     25  C   UNL     1      -3.535  -3.096  25.036  0.00  0.00    +0.000 C 
ATOM     26  C   UNL     1      -3.471  -2.517  25.621  0.00  0.00    +0.002 C 
ATOM     27  C   UNL     1      -3.450  -1.720  25.412  0.00  0.00    +0.022 C 
ENDBRANCH  21  22
BRANCH   9   8
ATOM      5  N   UNL     1      -2.069   2.962  24.608  0.00  0.00    -0.161 NA
ATOM      6  C   UNL     1      -2.672   2.783  24.074  0.00  0.00    +0.348 C 
ATOM      7  O   UNL     1      -3.266   3.336  23.922  0.00  0.00    -0.248 OA
ATOM      8  N   UNL     1      -2.681   2.052  23.692  0.00  0.00    -0.156 NA
BRANCH   5   4
ATOM      1  F   UNL     1      -0.946   5.571  24.934  0.00  0.00    -0.204 F 
ATOM      2  C   UNL     1      -1.499   4.998  25.153  0.00  0.00    +0.141 A 
ATOM      3  C   UNL     1      -1.508   4.267  24.771  0.00  0.00    +0.046 A 
ATOM      4  C   UNL     1      -2.060   3.694  24.990  0.00  0.00    +0.077 A 
ATOM     32  C   UNL     1      -2.604   3.853  25.590  0.00  0.00    +0.017 A 
ATOM     33  C   UNL     1      -2.595   4.584  25.971  0.00  0.00    +0.004 A 
ATOM     34  C   UNL     1      -2.042   5.157  25.752  0.00  0.00    +0.030 A 
ENDBRANCH   5   4
ENDBRANCH   9   8
TORSDOF 3
ENDMDL
MODEL 2
REMARK VINA RESULT:     -14.7      1.438      2.451
REMARK  Name = 
REMARK  3 active torsions:
REMARK  status: ('A' for Active; 'I' for Inactive)
REMARK    1  A    between atoms: C_4  and  N_5
REMARK    2  A    between atoms: N_8  and  C_9
REMARK    3  A    between atoms: N_21  and  C_22
REMARK                            x       y       z     vdW  Elec       q    Type
REMARK                         _______ _______ _______ _____ _____    ______ ____
ROOT
ATOM      9  C   UNL     1      -3.154   2.073  23.815  0.00  0.00    +0.131 A 
ATOM     10  C   UNL     1      -3.688   2.661  24.038  0.00  0.00    +0.023 A 
ATOM     11  C   UNL     1      -4.366   2.462  24.464  0.00  0.00    +0.014 A 
ATOM     12  C   UNL     1      -4.510   1.676  24.668  0.00  0.00    +0.041 A 
ATOM     13  C   UNL     1      -5.125   1.153  25.107  0.00  0.00    +0.058 C 
ATOM     14  C   UNL     1      -5.733   1.194  25.456  0.00  0.00    +0.011 C 
ATOM     15  C   UNL     1      -5.203   0.616  25.234  0.00  0.00    +0.043 C 
ATOM     16  C   UNL     1      -4.692  -0.212  25.060  0.00  0.00    +0.097 C 
ATOM     17  N   UNL     1      -4.048   0.108  24.635  0.00  0.00    -0.262 N 
ATOM     18  C   UNL     1      -4.643   0.345  24.947  0.00  0.00    +0.101 C 
ATOM     19  C   UNL     1      -3.337   0.129  24.216  0.00  0.00    +0.323 C 
ATOM     20  O   UNL     1      -3.045   0.849  23.936  0.00  0.00    -0.251 OA
ATOM     21  N   UNL     1      -2.919  -0.568  24.077  0.00  0.00    -0.190 NA
ATOM     28  C   UNL     1      -4.555   1.154  24.773  0.00  0.00    +0.110 C 
ATOM     29  N   UNL     1      -3.976   1.088  24.444  0.00  0.00    -0.298 N 
ATOM     30  C   UNL     1      -3.298   1.286  24.018  0.00  0.00    +0.276 A 
ATOM     31  O   UNL     1      -2.644   0.903  23.693  0.00  0.00    -0.266 OA
ENDROOT
BRANCH  21  22
ATOM     22  C   UNL     1      -3.211  -1.287  24.356  0.00  0.00    +0.097 C 
ATOM     23  C   UNL     1      -2.997  -1.555  25.106  0.00  0.00    +0.022 C 
ATOM     24  C   UNL     1      -3.288  -2.274  25.386  0.00  0.00    +0.002 C 
ATOM     25  C   UNL     1      -3.794  -2.725  24.916  0.00  0.00    +0.000 C 
ATOM     26  C   UNL     1      -4.008  -2.457  24.166  0.00  0.00    +0.002 C 
ATOM     27  C   UNL     1      -3.717  -1.738  23.886  0.00  0.00    +0.022 C 
ENDBRANCH  21  22
BRANCH   9   8
ATOM      5  N   UNL     1      -2.113   3.209  24.403  0.00  0.00    -0.161 NA
ATOM      6  C   UNL     1      -1.957   2.840  23.682  0.00  0.00    +0.348 C 
ATOM      7  O   UNL     1      -1.278   3.039  23.255  0.00  0.00    -0.248 OA
ATOM      8  N   UNL     1      -2.477   2.272  23.388  0.00  0.00    -0.156 NA
BRANCH   5   4
ATOM      1  F   UNL     1      -1.527   5.931  25.049  0.00  0.00    -0.204 F 
ATOM      2  C   UNL     1      -1.299   5.139  25.020  0.00  0.00    +0.141 A 
ATOM      3  C   UNL     1      -1.819   4.570  24.726  0.00  0.00    +0.046 A 
ATOM      4  C   UNL     1      -1.591   3.778  24.697  0.00  0.00    +0.077 A 
ATOM     32  C   UNL     1      -0.843   3.554  24.961  0.00  0.00    +0.017 A 
ATOM     33  C   UNL     1      -0.322   4.122  25.255  0.00  0.00    +0.004 A 
ATOM     34  C   UNL     1      -0.550   4.915  25.284  0.00  0.00    +0.030 A 
ENDBRANCH   5   4
ENDBRANCH   9   8
TORSDOF 3
ENDMDL
MODEL 3
REMARK VINA RESULT:     -14.6      2.279      5.504
REMARK  Name = 
REMARK  3 active torsions:
REMARK  status: ('A' for Active; 'I' for Inactive)
REMARK    1  A    between atoms: C_4  and  N_5
REMARK    2  A    between atoms: N_8  and  C_9
REMARK    3  A    between atoms: N_21  and  C_22
REMARK                            x       y       z     vdW  Elec       q    Type
REMARK                         _______ _______ _______ _____ _____    ______ ____
ROOT
ATOM      9  C   UNL     1      -3.875   1.094  24.050  0.00  0.00    +0.131 A 
ATOM     10  C   UNL     1      -4.636   0.915  24.315  0.00  0.00    +0.023 A 
ATOM     11  C   UNL     1      -5.031   1.437  24.817  0.00  0.00    +0.014 A 
ATOM     12  C   UNL     1      -4.666   2.137  25.053  0.00  0.00    +0.041 A 
ATOM     13  C   UNL     1      -4.818   2.883  25.569  0.00  0.00    +0.058 C 
ATOM     14  C   UNL     1      -5.304   3.177  25.980  0.00  0.00    +0.011 C 
ATOM     15  C   UNL     1      -4.553   3.351  25.716  0.00  0.00    +0.043 C 
ATOM     16  C   UNL     1      -3.666   3.732  25.509  0.00  0.00    +0.097 C 
ATOM     17  N   UNL     1      -3.369   3.132  25.009  0.00  0.00    -0.262 N 
ATOM     18  C   UNL     1      -3.964   3.265  25.378  0.00  0.00    +0.101 C 
ATOM     19  C   UNL     1      -2.842   2.733  24.515  0.00  0.00    +0.323 C 
ATOM     20  O   UNL     1      -3.054   2.005  24.188  0.00  0.00    -0.251 OA
ATOM     21  N   UNL     1      -2.104   3.060  24.349  0.00  0.00    -0.190 NA
ATOM     28  C   UNL     1      -4.385   2.576  25.176  0.00  0.00    +0.110 C 
ATOM     29  N   UNL     1      -3.905   2.316  24.788  0.00  0.00    -0.298 N 
ATOM     30  C   UNL     1      -3.510   1.794  24.286  0.00  0.00    +0.276 A 
ATOM     31  O   UNL     1      -2.782   1.746  23.902  0.00  0.00    -0.266 OA
ENDROOT
BRANCH  21  22
ATOM     22  C   UNL     1      -1.892   3.787  24.675  0.00  0.00    +0.097 C 
ATOM     23  C   UNL     1      -1.490   3.815  25.395  0.00  0.00    +0.022 C 
ATOM     24  C   UNL     1      -1.278   4.541  25.722  0.00  0.00    +0.002 C 
ATOM     25  C   UNL     1      -1.467   5.242  25.329  0.00  0.00    +0.000 C 
ATOM     26  C   UNL     1      -1.868   5.214  24.609  0.00  0.00    +0.002 C 
ATOM     27  C   UNL     1      -2.081   4.488  24.282  0.00  0.00    +0.022 C 
ENDBRANCH  21  22
BRANCH   9   8
ATOM      5  N   UNL     1      -3.754  -0.503  24.450  0.00  0.00    -0.161 NA
ATOM      6  C   UNL     1      -3.420  -0.227  23.748  0.00  0.00    +0.348 C 
ATOM      7  O   UNL     1      -3.025  -0.749  23.245  0.00  0.00    -0.248 OA
ATOM      8  N   UNL     1      -3.481   0.571  23.548  0.00  0.00    -0.156 NA
BRANCH   5   4
ATOM      1  F   UNL     1      -4.306  -3.247  23.873  0.00  0.00    -0.204 F 
ATOM      2  C   UNL     1      -3.969  -2.673  24.361  0.00  0.00    +0.141 A 
ATOM      3  C   UNL     1      -4.030  -1.875  24.162  0.00  0.00    +0.046 A 
ATOM      4  C   UNL     1      -3.692  -1.301  24.650  0.00  0.00    +0.077 A 
ATOM     32  C   UNL     1      -3.294  -1.526  25.336  0.00  0.00    +0.017 A 
ATOM     33  C   UNL     1      -3.233  -2.324  25.535  0.00  0.00    +0.004 A 
ATOM     34  C   UNL     1      -3.570  -2.898  25.047  0.00  0.00    +0.030 A 
ENDBRANCH   5   4
ENDBRANCH   9   8
TORSDOF 3
ENDMDL
MODEL 4
REMARK VINA RESULT:     -14.4      2.062      5.402
REMARK  Name = 
REMARK  3 active torsions:
REMARK  status: ('A' for Active; 'I' for Inactive)
REMARK    1  A    between atoms: C_4  and  N_5
REMARK    2  A    between atoms: N_8  and  C_9
REMARK    3  A    between atoms: N_21  and  C_22
REMARK                            x       y       z     vdW  Elec       q    Type
REMARK                         _______ _______ _______ _____ _____    ______ ____
ROOT
ATOM      9  C   UNL     1      -3.081   0.798  25.189  0.00  0.00    +0.131 A 
ATOM     10  C   UNL     1      -3.749   0.577  24.758  0.00  0.00    +0.023 A 
ATOM     11  C   UNL     1      -4.097   1.109  24.233  0.00  0.00    +0.014 A 
ATOM     12  C   UNL     1      -3.776   1.864  24.138  0.00  0.00    +0.041 A 
ATOM     13  C   UNL     1      -3.911   2.642  23.669  0.00  0.00    +0.058 C 
ATOM     14  C   UNL     1      -4.338   2.932  23.193  0.00  0.00    +0.011 C 
ATOM     15  C   UNL     1      -3.679   3.147  23.621  0.00  0.00    +0.043 C 
ATOM     16  C   UNL     1      -2.900   3.588  24.039  0.00  0.00    +0.097 C 
ATOM     17  N   UNL     1      -2.638   2.969  24.536  0.00  0.00    -0.262 N 
ATOM     18  C   UNL     1      -3.161   3.082  24.065  0.00  0.00    +0.101 C 
ATOM     19  C   UNL     1      -2.175   2.571  25.091  0.00  0.00    +0.323 C 
ATOM     20  O   UNL     1      -2.361   1.795  25.303  0.00  0.00    -0.251 OA
ATOM     21  N   UNL     1      -1.528   2.948  25.434  0.00  0.00    -0.190 NA
ATOM     28  C   UNL     1      -3.530   2.338  24.115  0.00  0.00    +0.110 C 
ATOM     29  N   UNL     1      -3.109   2.085  24.570  0.00  0.00    -0.298 N 
ATOM     30  C   UNL     1      -2.761   1.553  25.095  0.00  0.00    +0.276 A 
ATOM     31  O   UNL     1      -2.122   1.534  25.615  0.00  0.00    -0.266 OA
ENDROOT
BRANCH  21  22
ATOM     22  C   UNL     1      -1.342   3.723  25.223  0.00  0.00    +0.097 C 
ATOM     23  C   UNL     1      -1.728   4.354  25.587  0.00  0.00    +0.022 C 
ATOM     24  C   UNL     1      -1.543   5.129  25.377  0.00  0.00    +0.002 C 
ATOM     25  C   UNL     1      -0.970   5.274  24.800  0.00  0.00    +0.000 C 
ATOM     26  C   UNL     1      -0.584   4.643  24.435  0.00  0.00    +0.002 C 
ATOM     27  C   UNL     1      -0.769   3.868  24.646  0.00  0.00    +0.022 C 
ENDBRANCH  21  22
BRANCH   9   8
ATOM      5  N   UNL     1      -3.025  -0.808  24.817  0.00  0.00    -0.161 NA
ATOM      6  C   UNL     1      -2.706  -0.538  25.529  0.00  0.00    +0.348 C 
ATOM      7  O   UNL     1      -2.359  -1.071  26.055  0.00  0.00    -0.248 OA
ATOM      8  N   UNL     1      -2.735   0.265  25.714  0.00  0.00    -0.156 NA
BRANCH   5   4
ATOM      1  F   UNL     1      -1.580  -3.073  23.841  0.00  0.00    -0.204 F 
ATOM      2  C   UNL     1      -2.273  -2.744  24.144  0.00  0.00    +0.141 A 
ATOM      3  C   UNL     1      -2.303  -1.941  24.329  0.00  0.00    +0.046 A 
ATOM      4  C   UNL     1      -2.996  -1.612  24.632  0.00  0.00    +0.077 A 
ATOM     32  C   UNL     1      -3.661  -2.087  24.749  0.00  0.00    +0.017 A 
ATOM     33  C   UNL     1      -3.632  -2.890  24.564  0.00  0.00    +0.004 A 
ATOM     34  C   UNL     1      -2.938  -3.219  24.261  0.00  0.00    +0.030 A 
ENDBRANCH   5   4
ENDBRANCH   9   8
TORSDOF 3
ENDMDL
MODEL 5
REMARK VINA RESULT:     -13.8      1.919      4.949
REMARK  Name = 
REMARK  3 active torsions:
REMARK  status: ('A' for Active; 'I' for Inactive)
REMARK    1  A    between atoms: C_4  and  N_5
REMARK    2  A    between atoms: N_8  and  C_9
REMARK    3  A    between atoms: N_21  and  C_22
REMARK                            x       y       z     vdW  Elec       q    Type
REMARK                         _______ _______ _______ _____ _____    ______ ____
ROOT
ATOM      9  C   UNL     1      -1.423  -0.121  25.435  0.00  0.00    +0.131 A 
ATOM     10  C   UNL     1      -0.910  -0.641  25.050  0.00  0.00    +0.023 A 
ATOM     11  C   UNL     1      -0.323  -0.348  24.551  0.00  0.00    +0.014 A 
ATOM     12  C   UNL     1      -0.247   0.465  24.436  0.00  0.00    +0.041 A 
ATOM     13  C   UNL     1       0.263   1.077  23.979  0.00  0.00    +0.058 C 
ATOM     14  C   UNL     1       0.805   1.119  23.534  0.00  0.00    +0.011 C 
ATOM     15  C   UNL     1       0.297   1.630  23.915  0.00  0.00    +0.043 C 
ATOM     16  C   UNL     1      -0.211   2.395  24.279  0.00  0.00    +0.097 C 
ATOM     17  N   UNL     1      -0.761   1.984  24.755  0.00  0.00    -0.262 N 
ATOM     18  C   UNL     1      -0.218   1.827  24.322  0.00  0.00    +0.101 C 
ATOM     19  C   UNL     1      -1.390   1.865  25.276  0.00  0.00    +0.323 C 
ATOM     20  O   UNL     1      -1.601   1.099  25.499  0.00  0.00    -0.251 OA
ATOM     21  N   UNL     1      -1.807   2.511  25.574  0.00  0.00    -0.190 NA
ATOM     28  C   UNL     1      -0.242   0.998  24.397  0.00  0.00    +0.110 C 
ATOM     29  N   UNL     1      -0.760   0.985  24.820  0.00  0.00    -0.298 N 
ATOM     30  C   UNL     1      -1.348   0.692  25.319  0.00  0.00    +0.276 A 
ATOM     31  O   UNL     1      -1.953   0.989  25.794  0.00  0.00    -0.266 OA
ENDROOT
BRANCH  21  22
ATOM     22  C   UNL     1      -1.596   3.277  25.351  0.00  0.00    +0.097 C 
ATOM     23  C   UNL     1      -1.981   3.644  24.721  0.00  0.00    +0.022 C 
ATOM     24  C   UNL     1      -1.771   4.409  24.498  0.00  0.00    +0.002 C 
ATOM     25  C   UNL     1      -1.175   4.809  24.906  0.00  0.00    +0.000 C 
ATOM     26  C   UNL     1      -0.790   4.442  25.536  0.00  0.00    +0.002 C 
ATOM     27  C   UNL     1      -1.000   3.676  25.759  0.00  0.00    +0.022 C 
ENDBRANCH  21  22
BRANCH   9   8
ATOM      5  N   UNL     1      -2.503  -1.235  24.872  0.00  0.00    -0.161 NA
ATOM      6  C   UNL     1      -2.550  -0.972  25.652  0.00  0.00    +0.348 C 
ATOM      7  O   UNL     1      -3.138  -1.266  26.152  0.00  0.00    -0.248 OA
ATOM      8  N   UNL     1      -2.010  -0.415  25.933  0.00  0.00    -0.156 NA
BRANCH   5   4
ATOM      1  F   UNL     1      -4.960  -1.851  23.548  0.00  0.00    -0.204 F 
ATOM      2  C   UNL     1      -4.272  -2.100  23.929  0.00  0.00    +0.141 A 
ATOM      3  C   UNL     1      -3.731  -1.544  24.210  0.00  0.00    +0.046 A 
ATOM      4  C   UNL     1      -3.043  -1.793  24.591  0.00  0.00    +0.077 A 
ATOM     32  C   UNL     1      -2.895  -2.598  24.692  0.00  0.00    +0.017 A 
ATOM     33  C   UNL     1      -3.436  -3.154  24.412  0.00  0.00    +0.004 A 
ATOM     34  C   UNL     1      -4.124  -2.905  24.030  0.00  0.00    +0.030 A 
ENDBRANCH   5   4
ENDBRANCH   9   8
TORSDOF 3
ENDMDL
