MODEL 1
REMARK VINA RESULT:     -16.7      0.000      0.000
REMARK  Name = 
REMARK  3 active torsions:
REMARK  status: ('A' for Active; 'I' for Inactive)
REMARK    1  A    between atoms: O_2  and  C_3
REMARK    2  A    between atoms: C_6  and  C_9
REMARK    3  A    between atoms: C_19  and  C_21
REMARK                            x       y       z     vdW  Elec       q    Type
REMARK                         _______ _______ _______ _____ _____    ______ ____
ROOT
ATOM      9  C   UNL     1      -3.858   0.021  24.462  0.00  0.00    +0.056 A 
ATOM     10  C   UNL     1      -4.557  -0.399  24.085  0.00  0.00    +0.006 A 
ATOM     11  C   UNL     1      -4.474  -1.219  24.048  0.00  0.00    +0.013 A 
ATOM     12  C   UNL     1      -3.793  -1.579  24.342  0.00  0.00    +0.041 A 
ATOM     13  C   UNL     1      -3.412  -2.409  24.447  0.00  0.00    +0.058 C 
ATOM     14  C   UNL     1      -3.533  -3.089  24.324  0.00  0.00    +0.011 C 
ATOM     15  C   UNL     1      -2.944  -2.632  24.651  0.00  0.00    +0.043 C 
ATOM     16  C   UNL     1      -2.135  -2.258  25.077  0.00  0.00    +0.096 C 
ATOM     17  N   UNL     1      -2.330  -1.446  25.060  0.00  0.00    -0.276 N 
ATOM     18  C   UNL     1      -2.624  -2.063  24.860  0.00  0.00    +0.099 C 
ATOM     19  C   UNL     1      -2.119  -0.642  25.237  0.00  0.00    +0.249 C 
ATOM     20  O   UNL     1      -1.335  -0.574  25.622  0.00  0.00    -0.270 OA
ATOM     28  C   UNL     1      -3.333  -1.760  24.546  0.00  0.00    +0.110 C 
ATOM     29  N   UNL     1      -3.194  -1.118  24.674  0.00  0.00    -0.299 N 
ATOM     30  C   UNL     1      -3.276  -0.299  24.712  0.00  0.00    +0.261 A 
ATOM     31  O   UNL     1      -2.400   0.040  25.167  0.00  0.00    -0.267 OA
ENDROOT
BRANCH  19  21
ATOM     21  C   UNL     1      -2.851  -0.120  24.934  0.00  0.00    +0.054 A 
ATOM     22  C   UNL     1      -2.758   0.207  24.183  0.00  0.00    +0.007 A 
ATOM     23  C   UNL     1      -3.358   0.672  23.858  0.00  0.00    +0.030 A 
ATOM     24  C   UNL     1      -4.050   0.809  24.285  0.00  0.00    +0.140 A 
ATOM     25  F   UNL     1      -4.639   1.326  23.846  0.00  0.00    -0.204 F 
ATOM     26  C   UNL     1      -4.143   0.482  25.037  0.00  0.00    +0.030 A 
ATOM     27  C   UNL     1      -3.543   0.016  25.361  0.00  0.00    +0.007 A 
ENDBRANCH  19  21
BRANCH   9   6
ATOM      3  C   UNL     1      -4.232   2.415  25.171  0.00  0.00    +0.139 A 
ATOM      4  C   UNL     1      -4.849   1.881  25.291  0.00  0.00    +0.037 A 
ATOM      5  C   UNL     1      -4.791   0.980  25.057  0.00  0.00    +0.003 A 
ATOM      6  C   UNL     1      -3.740   0.762  24.589  0.00  0.00    +0.005 A 
ATOM      7  C   UNL     1      -3.643   1.419  24.704  0.00  0.00    +0.003 A 
ATOM      8  C   UNL     1      -3.525   2.160  24.831  0.00  0.00    +0.037 A 
BRANCH   3   2
ATOM      1  C   UNL     1      -3.876   3.869  25.799  0.00  0.00    +0.252 C 
ATOM      2  O   UNL     1      -4.346   3.261  25.414  0.00  0.00    -0.471 OA
ENDBRANCH   3   2
ENDBRANCH   9   6
TORSDOF 3
ENDMDL
MODEL 2
REMARK VINA RESULT:     -16.5      1.395      3.707
REMARK  Name = 
REMARK  3 active torsions:
REMARK  status: ('A' for Active; 'I' for Inactive)
REMARK    1  A    between atoms: O_2  and  C_3
REMARK    2  A    between atoms: C_6  and  C_9
REMARK    3  A    between atoms: C_19  and  C_21
REMARK                            x       y       z     vdW  Elec       q    Type
REMARK                         _______ _______ _______ _____ _____    ______ ____
ROOT
ATOM      9  C   UNL     1      -4.176   0.703  24.720  0.00  0.00    +0.056 A 
ATOM     10  C   UNL     1      -5.041   0.723  24.960  0.00  0.00    +0.006 A 
ATOM     11  C   UNL     1      -5.317   1.475  25.158  0.00  0.00    +0.013 A 
ATOM     12  C   UNL     1      -4.807   2.122  25.124  0.00  0.00    +0.041 A 
ATOM     13  C   UNL     1      -4.796   3.030  25.269  0.00  0.00    +0.058 C 
ATOM     14  C   UNL     1      -5.210   3.560  25.468  0.00  0.00    +0.011 C 
ATOM     15  C   UNL     1      -4.435   3.454  25.239  0.00  0.00    +0.043 C 
ATOM     16  C   UNL     1      -3.482   3.528  24.991  0.00  0.00    +0.096 C 
ATOM     17  N   UNL     1      -3.320   2.728  24.816  0.00  0.00    -0.276 N 
ATOM     18  C   UNL     1      -3.875   3.118  25.032  0.00  0.00    +0.099 C 
ATOM     19  C   UNL     1      -2.765   2.134  24.568  0.00  0.00    +0.249 C 
ATOM     20  O   UNL     1      -1.970   2.461  24.404  0.00  0.00    -0.270 OA
ATOM     28  C   UNL     1      -4.438   2.506  25.086  0.00  0.00    +0.110 C 
ATOM     29  N   UNL     1      -4.022   2.018  24.893  0.00  0.00    -0.299 N 
ATOM     30  C   UNL     1      -3.747   1.266  24.695  0.00  0.00    +0.261 A 
ATOM     31  O   UNL     1      -2.743   1.404  24.443  0.00  0.00    -0.267 OA
ENDROOT
BRANCH  19  21
ATOM     21  C   UNL     1      -3.254   1.321  24.569  0.00  0.00    +0.054 A 
ATOM     22  C   UNL     1      -3.553   1.094  23.835  0.00  0.00    +0.007 A 
ATOM     23  C   UNL     1      -3.988   0.396  23.766  0.00  0.00    +0.030 A 
ATOM     24  C   UNL     1      -4.124  -0.074  24.430  0.00  0.00    +0.140 A 
ATOM     25  F   UNL     1      -4.606  -0.810  24.250  0.00  0.00    -0.204 F 
ATOM     26  C   UNL     1      -3.824   0.154  25.164  0.00  0.00    +0.030 A 
ATOM     27  C   UNL     1      -3.388   0.852  25.234  0.00  0.00    +0.007 A 
ENDBRANCH  19  21
BRANCH   9   6
ATOM      3  C   UNL     1      -3.032  -1.548  24.702  0.00  0.00    +0.139 A 
ATOM      4  C   UNL     1      -3.536  -1.382  25.334  0.00  0.00    +0.037 A 
ATOM      5  C   UNL     1      -3.996  -0.574  25.415  0.00  0.00    +0.003 A 
ATOM      6  C   UNL     1      -3.739   0.117  24.506  0.00  0.00    +0.005 A 
ATOM      7  C   UNL     1      -3.354  -0.405  24.322  0.00  0.00    +0.003 A 
ATOM      8  C   UNL     1      -2.917  -0.989  24.107  0.00  0.00    +0.037 A 
BRANCH   3   2
ATOM      1  C   UNL     1      -1.820  -2.617  24.560  0.00  0.00    +0.252 C 
ATOM      2  O   UNL     1      -2.622  -2.335  24.680  0.00  0.00    -0.471 OA
ENDBRANCH   3   2
ENDBRANCH   9   6
TORSDOF 3
ENDMDL
MODEL 3
REMARK VINA RESULT:     -15.9      1.964      4.070
REMARK  Name = 
REMARK  3 active torsions:
REMARK  status: ('A' for Active; 'I' for Inactive)
REMARK    1  A    between atoms: O_2  and  C_3
REMARK    2  A    between atoms: C_6  and  C_9
REMARK    3  A    between atoms: C_19  and  C_21
REMARK                            x       y       z     vdW  Elec       q    Type
REMARK                         _______ _______ _______ _____ _____    ______ ____
ROOT
ATOM      9  C   UNL     1      -3.219   2.376  24.473  0.00  0.00    +0.056 A 
ATOM     10  C   UNL     1      -3.803   3.014  24.717  0.00  0.00    +0.006 A 
ATOM     11  C   UNL     1      -3.448   3.717  24.962  0.00  0.00    +0.013 A 
ATOM     12  C   UNL     1      -2.626   3.784  24.966  0.00  0.00    +0.041 A 
ATOM     13  C   UNL     1      -1.960   4.385  25.167  0.00  0.00    +0.058 C 
ATOM     14  C   UNL     1      -1.861   5.039  25.400  0.00  0.00    +0.011 C 
ATOM     15  C   UNL     1      -1.403   4.409  25.162  0.00  0.00    +0.043 C 
ATOM     16  C   UNL     1      -0.690   3.771  24.915  0.00  0.00    +0.096 C 
ATOM     17  N   UNL     1      -1.158   3.117  24.690  0.00  0.00    -0.276 N 
ATOM     18  C   UNL     1      -1.259   3.780  24.932  0.00  0.00    +0.099 C 
ATOM     19  C   UNL     1      -1.206   2.319  24.403  0.00  0.00    +0.249 C 
ATOM     20  O   UNL     1      -0.418   1.965  24.256  0.00  0.00    -0.270 OA
ATOM     28  C   UNL     1      -2.092   3.775  24.950  0.00  0.00    +0.110 C 
ATOM     29  N   UNL     1      -2.159   3.148  24.726  0.00  0.00    -0.299 N 
ATOM     30  C   UNL     1      -2.514   2.445  24.481  0.00  0.00    +0.261 A 
ATOM     31  O   UNL     1      -1.720   1.813  24.234  0.00  0.00    -0.267 OA
ENDROOT
BRANCH  19  21
ATOM     21  C   UNL     1      -2.133   2.126  24.356  0.00  0.00    +0.054 A 
ATOM     22  C   UNL     1      -2.475   2.238  23.614  0.00  0.00    +0.007 A 
ATOM     23  C   UNL     1      -3.279   2.088  23.504  0.00  0.00    +0.030 A 
ATOM     24  C   UNL     1      -3.740   1.827  24.135  0.00  0.00    +0.140 A 
ATOM     25  F   UNL     1      -4.600   1.693  23.914  0.00  0.00    -0.204 F 
ATOM     26  C   UNL     1      -3.398   1.715  24.878  0.00  0.00    +0.030 A 
ATOM     27  C   UNL     1      -2.594   1.865  24.988  0.00  0.00    +0.007 A 
ENDBRANCH  19  21
BRANCH   9   6
ATOM      3  C   UNL     1      -4.114   0.022  24.293  0.00  0.00    +0.139 A 
ATOM      4  C   UNL     1      -4.379   0.484  24.924  0.00  0.00    +0.037 A 
ATOM      5  C   UNL     1      -4.097   1.362  25.061  0.00  0.00    +0.003 A 
ATOM      6  C   UNL     1      -3.342   1.668  24.221  0.00  0.00    +0.005 A 
ATOM      7  C   UNL     1      -3.455   1.040  24.003  0.00  0.00    +0.003 A 
ATOM      8  C   UNL     1      -3.577   0.333  23.751  0.00  0.00    +0.037 A 
BRANCH   3   2
ATOM      1  C   UNL     1      -4.078  -1.593  24.142  0.00  0.00    +0.252 C 
ATOM      2  O   UNL     1      -4.419  -0.807  24.215  0.00  0.00    -0.471 OA
ENDBRANCH   3   2
ENDBRANCH   9   6
TORSDOF 3
ENDMDL
MODEL 4
REMARK VINA RESULT:     -15.6      1.970      3.716
REMARK  Name = 
REMARK  3 active torsions:
REMARK  status: ('A' for Active; 'I' for Inactive)
REMARK    1  A    between atoms: O_2  and  C_3
REMARK    2  A    between atoms: C_6  and  C_9
REMARK    3  A    between atoms: C_19  and  C_21
REMARK                            x       y       z     vdW  Elec       q    Type
REMARK                         _______ _______ _______ _____ _____    ______ ____
ROOT
ATOM      9  C   UNL     1      -3.479   1.235  24.444  0.00  0.00    +0.056 A 
ATOM     10  C   UNL     1      -3.987   0.518  24.629  0.00  0.00    +0.006 A 
ATOM     11  C   UNL     1      -4.715   0.702  24.970  0.00  0.00    +0.013 A 
ATOM     12  C   UNL     1      -4.917   1.489  25.111  0.00  0.00    +0.041 A 
ATOM     13  C   UNL     1      -5.601   2.000  25.452  0.00  0.00    +0.058 C 
ATOM     14  C   UNL     1      -6.239   1.945  25.738  0.00  0.00    +0.011 C 
ATOM     15  C   UNL     1      -5.718   2.538  25.539  0.00  0.00    +0.043 C 
ATOM     16  C   UNL     1      -5.231   3.382  25.372  0.00  0.00    +0.096 C 
ATOM     17  N   UNL     1      -4.531   3.076  25.036  0.00  0.00    -0.276 N 
ATOM     18  C   UNL     1      -5.143   2.824  25.297  0.00  0.00    +0.099 C 
ATOM     19  C   UNL     1      -3.764   3.215  24.698  0.00  0.00    +0.249 C 
ATOM     20  O   UNL     1      -3.559   4.065  24.659  0.00  0.00    -0.270 OA
ATOM     28  C   UNL     1      -4.999   2.013  25.181  0.00  0.00    +0.110 C 
ATOM     29  N   UNL     1      -4.391   2.092  24.911  0.00  0.00    -0.299 N 
ATOM     30  C   UNL     1      -3.663   1.908  24.570  0.00  0.00    +0.261 A 
ATOM     31  O   UNL     1      -3.196   2.830  24.417  0.00  0.00    -0.267 OA
ENDROOT
BRANCH  19  21
ATOM     21  C   UNL     1      -3.424   2.354  24.490  0.00  0.00    +0.054 A 
ATOM     22  C   UNL     1      -3.538   2.114  23.709  0.00  0.00    +0.007 A 
ATOM     23  C   UNL     1      -3.267   1.374  23.462  0.00  0.00    +0.030 A 
ATOM     24  C   UNL     1      -2.882   0.877  23.994  0.00  0.00    +0.140 A 
ATOM     25  F   UNL     1      -2.626   0.097  23.628  0.00  0.00    -0.204 F 
ATOM     26  C   UNL     1      -2.768   1.117  24.775  0.00  0.00    +0.030 A 
ATOM     27  C   UNL     1      -3.039   1.857  25.023  0.00  0.00    +0.007 A 
ENDBRANCH  19  21
BRANCH   9   6
ATOM      3  C   UNL     1      -1.028   0.827  23.996  0.00  0.00    +0.139 A 
ATOM      4  C   UNL     1      -1.379   0.405  24.613  0.00  0.00    +0.037 A 
ATOM      5  C   UNL     1      -2.278   0.498  24.842  0.00  0.00    +0.003 A 
ATOM      6  C   UNL     1      -2.786   1.280  24.133  0.00  0.00    +0.005 A 
ATOM      7  C   UNL     1      -2.169   1.314  23.863  0.00  0.00    +0.003 A 
ATOM      8  C   UNL     1      -1.476   1.358  23.552  0.00  0.00    +0.037 A 
BRANCH   3   2
ATOM      1  C   UNL     1       0.562   1.140  23.916  0.00  0.00    +0.252 C 
ATOM      2  O   UNL     1      -0.168   0.695  23.825  0.00  0.00    -0.471 OA
ENDBRANCH   3   2
ENDBRANCH   9   6
TORSDOF 3
ENDMDL
