MODEL 1
REMARK VINA RESULT:     -12.1      0.000      0.000
REMARK  Name = 
REMARK  8 active torsions:
REMARK  status: ('A' for Active; 'I' for Inactive)
REMARK    1  A    between atoms: N_2  and  C_3
REMARK    2  A    between atoms: N_2  and  C_10
REMARK    3  A    between atoms: C_3  and  C_4
REMARK    4  A    between atoms: C_13  and  C_14
REMARK    5  A    between atoms: C_17  and  C_18
REMARK    6  A    between atoms: C_18  and  N_19
REMARK    7  A    between atoms: C_20  and  C_22
REMARK    8  A    between atoms: C_25  and  C_28
REMARK                            x       y       z     vdW  Elec       q    Type
REMARK                         _______ _______ _______ _____ _____    ______ ____
ROOT
ATOM     10  C   UNL     1      -2.223   1.803  24.543  0.00  0.00    +0.120 C 
ATOM     11  C   UNL     1      -1.723   2.412  24.295  0.00  0.00    +0.198 C 
ATOM     12  O   UNL     1      -1.961   3.144  24.000  0.00  0.00    -0.219 OA
ATOM     13  C   UNL     1      -0.944   2.159  24.395  0.00  0.00    +0.180 C 
ATOM     16  O   UNL     1      -0.962   1.394  24.704  0.00  0.00    -0.350 OA
ATOM     17  C   UNL     1      -1.753   1.174  24.795  0.00  0.00    +0.154 C 
ENDROOT
BRANCH  10   2
ATOM      1  C   UNL     1      -3.459   1.677  23.839  0.00  0.00    +0.090 C 
ATOM      2  N   UNL     1      -3.048   1.821  24.538  0.00  0.00    -0.265 NA
BRANCH   2   3
ATOM      3  C   UNL     1      -3.460   1.983  25.234  0.00  0.00    +0.099 C 
BRANCH   3   4
ATOM      4  C   UNL     1      -4.266   2.156  25.205  0.00  0.00    -0.006 A 
ATOM      5  C   UNL     1      -4.531   2.919  25.377  0.00  0.00    -0.003 A 
ATOM      6  C   UNL     1      -5.337   3.093  25.347  0.00  0.00    -0.000 A 
ATOM      7  C   UNL     1      -5.878   2.504  25.146  0.00  0.00    -0.000 A 
ATOM      8  C   UNL     1      -5.614   1.742  24.974  0.00  0.00    -0.000 A 
ATOM      9  C   UNL     1      -4.808   1.568  25.004  0.00  0.00    -0.003 A 
ENDBRANCH   3   4
ENDBRANCH   2   3
ENDBRANCH  10   2
BRANCH  13  14
ATOM     14  C   UNL     1      -0.267   2.594  24.217  0.00  0.00    +0.214 C 
ATOM     15  O   UNL     1       0.477   2.242  24.280  0.00  0.00    -0.218 OA
ENDBRANCH  13  14
BRANCH  17  18
ATOM     18  C   UNL     1      -2.025   0.452  25.088  0.00  0.00    +0.146 C 
BRANCH  18  19
ATOM     19  N   UNL     1      -1.587   0.047  25.658  0.00  0.00    -0.199 NA
ATOM     20  C   UNL     1      -1.732  -0.753  25.797  0.00  0.00    +0.265 C 
ATOM     21  O   UNL     1      -1.294  -1.158  26.367  0.00  0.00    -0.268 OA
BRANCH  20  22
ATOM     22  C   UNL     1      -2.315  -1.148  25.367  0.00  0.00    +0.055 A 
ATOM     23  C   UNL     1      -2.143  -1.445  24.616  0.00  0.00    +0.005 A 
ATOM     24  C   UNL     1      -2.726  -1.840  24.186  0.00  0.00    +0.004 A 
ATOM     25  C   UNL     1      -3.480  -1.937  24.506  0.00  0.00    +0.071 A 
ATOM     26  C   UNL     1      -3.652  -1.640  25.256  0.00  0.00    +0.004 A 
ATOM     27  C   UNL     1      -3.069  -1.246  25.687  0.00  0.00    +0.005 A 
BRANCH  25  28
ATOM     28  C   UNL     1      -4.062  -2.332  24.075  0.00  0.00    +0.419 C 
ATOM     29  F   UNL     1      -4.645  -2.726  23.645  0.00  0.00    -0.166 F 
ATOM     30  F   UNL     1      -4.339  -1.610  23.787  0.00  0.00    -0.166 F 
ATOM     31  F   UNL     1      -3.786  -3.054  24.363  0.00  0.00    -0.166 F 
ENDBRANCH  25  28
ENDBRANCH  20  22
ENDBRANCH  18  19
ENDBRANCH  17  18
TORSDOF 8
ENDMDL
MODEL 2
REMARK VINA RESULT:     -12.0      1.834      3.884
REMARK  Name = 
REMARK  8 active torsions:
REMARK  status: ('A' for Active; 'I' for Inactive)
REMARK    1  A    between atoms: N_2  and  C_3
REMARK    2  A    between atoms: N_2  and  C_10
REMARK    3  A    between atoms: C_3  and  C_4
REMARK    4  A    between atoms: C_13  and  C_14
REMARK    5  A    between atoms: C_17  and  C_18
REMARK    6  A    between atoms: C_18  and  N_19
REMARK    7  A    between atoms: C_20  and  C_22
REMARK    8  A    between atoms: C_25  and  C_28
REMARK                            x       y       z     vdW  Elec       q    Type
REMARK                         _______ _______ _______ _____ _____    ______ ____
ROOT
ATOM     10  C   UNL     1      -1.846   1.072  24.955  0.00  0.00    +0.120 C 
ATOM     11  C   UNL     1      -1.077   1.013  25.250  0.00  0.00    +0.198 C 
ATOM     12  O   UNL     1      -0.633   0.321  25.308  0.00  0.00    -0.219 OA
ATOM     13  C   UNL     1      -0.832   1.767  25.476  0.00  0.00    +0.180 C 
ATOM     16  O   UNL     1      -1.449   2.293  25.321  0.00  0.00    -0.350 OA
ATOM     17  C   UNL     1      -2.075   1.863  24.999  0.00  0.00    +0.154 C 
ENDROOT
BRANCH  10   2
ATOM      1  C   UNL     1      -2.294   0.269  23.862  0.00  0.00    +0.090 C 
ATOM      2  N   UNL     1      -2.304   0.449  24.666  0.00  0.00    -0.265 NA
BRANCH   2   3
ATOM      3  C   UNL     1      -2.772   0.008  25.183  0.00  0.00    +0.099 C 
BRANCH   3   4
ATOM      4  C   UNL     1      -3.134  -0.685  24.921  0.00  0.00    -0.006 A 
ATOM      5  C   UNL     1      -2.850  -1.419  25.169  0.00  0.00    -0.003 A 
ATOM      6  C   UNL     1      -3.213  -2.112  24.907  0.00  0.00    -0.000 A 
ATOM      7  C   UNL     1      -3.860  -2.071  24.396  0.00  0.00    -0.000 A 
ATOM      8  C   UNL     1      -4.144  -1.338  24.148  0.00  0.00    -0.000 A 
ATOM      9  C   UNL     1      -3.781  -0.645  24.411  0.00  0.00    -0.003 A 
ENDBRANCH   3   4
ENDBRANCH   2   3
ENDBRANCH  10   2
BRANCH  13  14
ATOM     14  C   UNL     1      -0.099   1.962  25.801  0.00  0.00    +0.214 C 
ATOM     15  O   UNL     1       0.001   2.683  26.191  0.00  0.00    -0.218 OA
ENDBRANCH  13  14
BRANCH  17  18
ATOM     18  C   UNL     1      -2.804   2.171  24.762  0.00  0.00    +0.146 C 
BRANCH  18  19
ATOM     19  N   UNL     1      -2.841   2.913  24.405  0.00  0.00    -0.199 NA
ATOM     20  C   UNL     1      -3.552   3.333  24.399  0.00  0.00    +0.265 C 
ATOM     21  O   UNL     1      -3.589   4.076  24.042  0.00  0.00    -0.268 OA
BRANCH  20  22
ATOM     22  C   UNL     1      -4.224   3.009  24.749  0.00  0.00    +0.055 A 
ATOM     23  C   UNL     1      -4.762   2.581  24.292  0.00  0.00    +0.005 A 
ATOM     24  C   UNL     1      -5.435   2.257  24.643  0.00  0.00    +0.004 A 
ATOM     25  C   UNL     1      -5.570   2.361  25.449  0.00  0.00    +0.071 A 
ATOM     26  C   UNL     1      -5.033   2.789  25.907  0.00  0.00    +0.004 A 
ATOM     27  C   UNL     1      -4.360   3.113  25.557  0.00  0.00    +0.005 A 
BRANCH  25  28
ATOM     28  C   UNL     1      -6.243   2.037  25.800  0.00  0.00    +0.419 C 
ATOM     29  F   UNL     1      -6.916   1.713  26.150  0.00  0.00    -0.166 F 
ATOM     30  F   UNL     1      -6.474   1.727  25.071  0.00  0.00    -0.166 F 
ATOM     31  F   UNL     1      -6.013   2.347  26.529  0.00  0.00    -0.166 F 
ENDBRANCH  25  28
ENDBRANCH  20  22
ENDBRANCH  18  19
ENDBRANCH  17  18
TORSDOF 8
ENDMDL
MODEL 3
REMARK VINA RESULT:     -11.6      1.964      3.766
REMARK  Name = 
REMARK  8 active torsions:
REMARK  status: ('A' for Active; 'I' for Inactive)
REMARK    1  A    between atoms: N_2  and  C_3
REMARK    2  A    between atoms: N_2  and  C_10
REMARK    3  A    between atoms: C_3  and  C_4
REMARK    4  A    between atoms: C_13  and  C_14
REMARK    5  A    between atoms: C_17  and  C_18
REMARK    6  A    between atoms: C_18  and  N_19
REMARK    7  A    between atoms: C_20  and  C_22
REMARK    8  A    between atoms: C_25  and  C_28
REMARK                            x       y       z     vdW  Elec       q    Type
REMARK                         _______ _______ _______ _____ _____    ______ ____
ROOT
ATOM     10  C   UNL     1      -4.241   1.387  24.802  0.00  0.00    +0.120 C 
ATOM     11  C   UNL     1      -4.930   1.750  25.076  0.00  0.00    +0.198 C 
ATOM     12  O   UNL     1      -5.668   1.390  25.156  0.00  0.00    -0.219 OA
ATOM     13  C   UNL     1      -4.750   2.535  25.257  0.00  0.00    +0.180 C 
ATOM     16  O   UNL     1      -3.951   2.658  25.094  0.00  0.00    -0.350 OA
ATOM     17  C   UNL     1      -3.636   1.948  24.813  0.00  0.00    +0.154 C 
ENDROOT
BRANCH  10   2
ATOM      1  C   UNL     1      -4.068   0.426  23.760  0.00  0.00    +0.090 C 
ATOM      2  N   UNL     1      -4.170   0.602  24.559  0.00  0.00    -0.265 NA
BRANCH   2   3
ATOM      3  C   UNL     1      -4.201  -0.006  25.116  0.00  0.00    +0.099 C 
BRANCH   3   4
ATOM      4  C   UNL     1      -4.039  -0.782  24.888  0.00  0.00    -0.006 A 
ATOM      5  C   UNL     1      -3.673  -1.300  25.417  0.00  0.00    -0.003 A 
ATOM      6  C   UNL     1      -3.511  -2.076  25.189  0.00  0.00    -0.000 A 
ATOM      7  C   UNL     1      -3.715  -2.334  24.433  0.00  0.00    -0.000 A 
ATOM      8  C   UNL     1      -4.081  -1.818  23.905  0.00  0.00    -0.000 A 
ATOM      9  C   UNL     1      -4.243  -1.041  24.132  0.00  0.00    -0.003 A 
ENDBRANCH   3   4
ENDBRANCH   2   3
ENDBRANCH  10   2
BRANCH  13  14
ATOM     14  C   UNL     1      -5.278   3.098  25.549  0.00  0.00    +0.214 C 
ATOM     15  O   UNL     1      -5.068   3.896  25.554  0.00  0.00    -0.218 OA
ENDBRANCH  13  14
BRANCH  17  18
ATOM     18  C   UNL     1      -2.854   1.822  24.583  0.00  0.00    +0.146 C 
BRANCH  18  19
ATOM     19  N   UNL     1      -2.377   2.463  24.377  0.00  0.00    -0.199 NA
ATOM     20  C   UNL     1      -1.563   2.359  24.286  0.00  0.00    +0.265 C 
ATOM     21  O   UNL     1      -1.086   2.999  24.080  0.00  0.00    -0.268 OA
BRANCH  20  22
ATOM     22  C   UNL     1      -1.227   1.614  24.401  0.00  0.00    +0.055 A 
ATOM     23  C   UNL     1      -1.094   1.118  23.756  0.00  0.00    +0.005 A 
ATOM     24  C   UNL     1      -0.758   0.372  23.871  0.00  0.00    +0.004 A 
ATOM     25  C   UNL     1      -0.556   0.125  24.631  0.00  0.00    +0.071 A 
ATOM     26  C   UNL     1      -0.689   0.621  25.277  0.00  0.00    +0.004 A 
ATOM     27  C   UNL     1      -1.024   1.366  25.162  0.00  0.00    +0.005 A 
BRANCH  25  28
ATOM     28  C   UNL     1      -0.220  -0.620  24.746  0.00  0.00    +0.419 C 
ATOM     29  F   UNL     1       0.116  -1.364  24.861  0.00  0.00    -0.166 F 
ATOM     30  F   UNL     1      -0.547  -0.650  25.503  0.00  0.00    -0.166 F 
ATOM     31  F   UNL     1       0.107  -0.589  23.990  0.00  0.00    -0.166 F 
ENDBRANCH  25  28
ENDBRANCH  20  22
ENDBRANCH  18  19
ENDBRANCH  17  18
TORSDOF 8
ENDMDL
MODEL 4
REMARK VINA RESULT:     -11.5      1.680      3.303
REMARK  Name = 
REMARK  8 active torsions:
REMARK  status: ('A' for Active; 'I' for Inactive)
REMARK    1  A    between atoms: N_2  and  C_3
REMARK    2  A    between atoms: N_2  and  C_10
REMARK    3  A    between atoms: C_3  and  C_4
REMARK    4  A    between atoms: C_13  and  C_14
REMARK    5  A    between atoms: C_17  and  C_18
REMARK    6  A    between atoms: C_18  and  N_19
REMARK    7  A    between atoms: C_20  and  C_22
REMARK    8  A    between atoms: C_25  and  C_28
REMARK                            x       y       z     vdW  Elec       q    Type
REMARK                         _______ _______ _______ _____ _____    ______ ____
ROOT
ATOM     10  C   UNL     1      -1.979   2.219  24.819  0.00  0.00    +0.120 C 
ATOM     11  C   UNL     1      -1.706   2.932  25.133  0.00  0.00    +0.198 C 
ATOM     12  O   UNL     1      -0.930   3.208  25.107  0.00  0.00    -0.219 OA
ATOM     13  C   UNL     1      -2.348   3.320  25.478  0.00  0.00    +0.180 C 
ATOM     16  O   UNL     1      -3.016   2.847  25.377  0.00  0.00    -0.350 OA
ATOM     17  C   UNL     1      -2.788   2.166  24.970  0.00  0.00    +0.154 C 
ENDROOT
BRANCH  10   2
ATOM      1  C   UNL     1      -1.595   1.566  23.608  0.00  0.00    +0.090 C 
ATOM      2  N   UNL     1      -1.521   1.657  24.424  0.00  0.00    -0.265 NA
BRANCH   2   3
ATOM      3  C   UNL     1      -0.990   1.187  24.846  0.00  0.00    +0.099 C 
BRANCH   3   4
ATOM      4  C   UNL     1      -0.588   0.576  24.465  0.00  0.00    -0.006 A 
ATOM      5  C   UNL     1      -0.566  -0.178  24.803  0.00  0.00    -0.003 A 
ATOM      6  C   UNL     1      -0.164  -0.789  24.421  0.00  0.00    -0.000 A 
ATOM      7  C   UNL     1       0.216  -0.647  23.703  0.00  0.00    -0.000 A 
ATOM      8  C   UNL     1       0.195   0.105  23.366  0.00  0.00    -0.000 A 
ATOM      9  C   UNL     1      -0.208   0.716  23.747  0.00  0.00    -0.003 A 
ENDBRANCH   3   4
ENDBRANCH   2   3
ENDBRANCH  10   2
BRANCH  13  14
ATOM     14  C   UNL     1      -2.325   4.052  25.856  0.00  0.00    +0.214 C 
ATOM     15  O   UNL     1      -2.960   4.295  26.324  0.00  0.00    -0.218 OA
ENDBRANCH  13  14
BRANCH  17  18
ATOM     18  C   UNL     1      -3.282   1.543  24.752  0.00  0.00    +0.146 C 
BRANCH  18  19
ATOM     19  N   UNL     1      -4.087   1.678  24.630  0.00  0.00    -0.199 NA
ATOM     20  C   UNL     1      -4.615   1.043  24.619  0.00  0.00    +0.265 C 
ATOM     21  O   UNL     1      -5.419   1.179  24.497  0.00  0.00    -0.268 OA
BRANCH  20  22
ATOM     22  C   UNL     1      -4.337   0.274  24.729  0.00  0.00    +0.055 A 
ATOM     23  C   UNL     1      -4.193  -0.210  24.077  0.00  0.00    +0.005 A 
ATOM     24  C   UNL     1      -3.916  -0.979  24.188  0.00  0.00    +0.004 A 
ATOM     25  C   UNL     1      -3.783  -1.264  24.950  0.00  0.00    +0.071 A 
ATOM     26  C   UNL     1      -3.927  -0.780  25.603  0.00  0.00    +0.004 A 
ATOM     27  C   UNL     1      -4.204  -0.011  25.492  0.00  0.00    +0.005 A 
BRANCH  25  28
ATOM     28  C   UNL     1      -3.506  -2.033  25.061  0.00  0.00    +0.419 C 
ATOM     29  F   UNL     1      -3.228  -2.802  25.171  0.00  0.00    -0.166 F 
ATOM     30  F   UNL     1      -3.555  -1.933  25.878  0.00  0.00    -0.166 F 
ATOM     31  F   UNL     1      -3.457  -2.132  24.244  0.00  0.00    -0.166 F 
ENDBRANCH  25  28
ENDBRANCH  20  22
ENDBRANCH  18  19
ENDBRANCH  17  18
TORSDOF 8
ENDMDL
MODEL 5
REMARK VINA RESULT:     -11.5      2.587      4.238
REMARK  Name = 
REMARK  8 active torsions:
REMARK  status: ('A' for Active; 'I' for Inactive)
REMARK    1  A    between atoms: N_2  and  C_3
REMARK    2  A    between atoms: N_2  and  C_10
REMARK    3  A    between atoms: C_3  and  C_4
REMARK    4  A    between atoms: C_13  and  C_14
REMARK    5  A    between atoms: C_17  and  C_18
REMARK    6  A    between atoms: C_18  and  N_19
REMARK    7  A    between atoms: C_20  and  C_22
REMARK    8  A    between atoms: C_25  and  C_28
REMARK                            x       y       z     vdW  Elec       q    Type
REMARK                         _______ _______ _______ _____ _____    ______ ____
ROOT
ATOM     10  C   UNL     1      -2.189   0.204  24.540  0.00  0.00    +0.120 C 
ATOM     11  C   UNL     1      -2.289  -0.607  24.661  0.00  0.00    +0.198 C 
ATOM     12  O   UNL     1      -3.005  -1.015  24.641  0.00  0.00    -0.219 OA
ATOM     13  C   UNL     1      -1.546  -0.937  24.805  0.00  0.00    +0.180 C 
ATOM     16  O   UNL     1      -0.987  -0.331  24.772  0.00  0.00    -0.350 OA
ATOM     17  C   UNL     1      -1.385   0.374  24.609  0.00  0.00    +0.154 C 
ENDROOT
BRANCH  10   2
ATOM      1  C   UNL     1      -2.975   0.934  23.598  0.00  0.00    +0.090 C 
ATOM      2  N   UNL     1      -2.788   0.748  24.379  0.00  0.00    -0.265 NA
BRANCH   2   3
ATOM      3  C   UNL     1      -3.199   1.104  24.999  0.00  0.00    +0.099 C 
BRANCH   3   4
ATOM      4  C   UNL     1      -3.924   1.470  24.856  0.00  0.00    -0.006 A 
ATOM      5  C   UNL     1      -4.612   1.172  25.201  0.00  0.00    -0.003 A 
ATOM      6  C   UNL     1      -5.338   1.538  25.058  0.00  0.00    -0.000 A 
ATOM      7  C   UNL     1      -5.375   2.203  24.570  0.00  0.00    -0.000 A 
ATOM      8  C   UNL     1      -4.688   2.501  24.226  0.00  0.00    -0.000 A 
ATOM      9  C   UNL     1      -3.962   2.135  24.369  0.00  0.00    -0.003 A 
ENDBRANCH   3   4
ENDBRANCH   2   3
ENDBRANCH  10   2
BRANCH  13  14
ATOM     14  C   UNL     1      -1.390  -1.733  24.954  0.00  0.00    +0.214 C 
ATOM     15  O   UNL     1      -0.669  -1.956  25.287  0.00  0.00    -0.218 OA
ENDBRANCH  13  14
BRANCH  17  18
ATOM     18  C   UNL     1      -1.038   1.119  24.528  0.00  0.00    +0.146 C 
BRANCH  18  19
ATOM     19  N   UNL     1      -0.239   1.183  24.334  0.00  0.00    -0.199 NA
ATOM     20  C   UNL     1       0.148   1.907  24.413  0.00  0.00    +0.265 C 
ATOM     21  O   UNL     1       0.947   1.971  24.218  0.00  0.00    -0.268 OA
BRANCH  20  22
ATOM     22  C   UNL     1      -0.265   2.568  24.686  0.00  0.00    +0.055 A 
ATOM     23  C   UNL     1      -0.568   3.115  24.149  0.00  0.00    +0.005 A 
ATOM     24  C   UNL     1      -0.981   3.776  24.423  0.00  0.00    +0.004 A 
ATOM     25  C   UNL     1      -1.089   3.888  25.232  0.00  0.00    +0.071 A 
ATOM     26  C   UNL     1      -0.786   3.340  25.769  0.00  0.00    +0.004 A 
ATOM     27  C   UNL     1      -0.373   2.680  25.496  0.00  0.00    +0.005 A 
BRANCH  25  28
ATOM     28  C   UNL     1      -1.502   4.548  25.505  0.00  0.00    +0.419 C 
ATOM     29  F   UNL     1      -1.914   5.208  25.778  0.00  0.00    -0.166 F 
ATOM     30  F   UNL     1      -2.011   4.055  25.927  0.00  0.00    -0.166 F 
ATOM     31  F   UNL     1      -0.992   5.041  25.083  0.00  0.00    -0.166 F 
ENDBRANCH  25  28
ENDBRANCH  20  22
ENDBRANCH  18  19
ENDBRANCH  17  18
TORSDOF 8
ENDMDL
MODEL 6
REMARK VINA RESULT:     -11.3      2.153      3.516
REMARK  Name = 
REMARK  8 active torsions:
REMARK  status: ('A' for Active; 'I' for Inactive)
REMARK    1  A    between atoms: N_2  and  C_3
REMARK    2  A    between atoms: N_2  and  C_10
REMARK    3  A    between atoms: C_3  and  C_4
REMARK    4  A    between atoms: C_13  and  C_14
REMARK    5  A    between atoms: C_17  and  C_18
REMARK    6  A    between atoms: C_18  and  N_19
REMARK    7  A    between atoms: C_20  and  C_22
REMARK    8  A    between atoms: C_25  and  C_28
REMARK                            x       y       z     vdW  Elec       q    Type
REMARK                         _______ _______ _______ _____ _____    ______ ____
ROOT
ATOM     10  C   UNL     1      -4.119   2.412  25.085  0.00  0.00    +0.120 C 
ATOM     11  C   UNL     1      -4.696   2.908  25.406  0.00  0.00    +0.198 C 
ATOM     12  O   UNL     1      -4.628   3.722  25.518  0.00  0.00    -0.219 OA
ATOM     13  C   UNL     1      -5.353   2.445  25.595  0.00  0.00    +0.180 C 
ATOM     16  O   UNL     1      -5.182   1.664  25.391  0.00  0.00    -0.350 OA
ATOM     17  C   UNL     1      -4.419   1.644  25.076  0.00  0.00    +0.154 C 
ENDROOT
BRANCH  10   2
ATOM      1  C   UNL     1      -3.256   2.825  24.024  0.00  0.00    +0.090 C 
ATOM      2  N   UNL     1      -3.373   2.645  24.820  0.00  0.00    -0.265 NA
BRANCH   2   3
ATOM      3  C   UNL     1      -2.745   2.697  25.352  0.00  0.00    +0.099 C 
BRANCH   3   4
ATOM      4  C   UNL     1      -2.058   3.102  25.140  0.00  0.00    -0.006 A 
ATOM      5  C   UNL     1      -1.476   2.723  24.693  0.00  0.00    -0.003 A 
ATOM      6  C   UNL     1      -0.790   3.129  24.481  0.00  0.00    -0.000 A 
ATOM      7  C   UNL     1      -0.684   3.912  24.717  0.00  0.00    -0.000 A 
ATOM      8  C   UNL     1      -1.265   4.291  25.164  0.00  0.00    -0.000 A 
ATOM      9  C   UNL     1      -1.951   3.886  25.375  0.00  0.00    -0.003 A 
ENDBRANCH   3   4
ENDBRANCH   2   3
ENDBRANCH  10   2
BRANCH  13  14
ATOM     14  C   UNL     1      -6.056   2.716  25.929  0.00  0.00    +0.214 C 
ATOM     15  O   UNL     1      -6.381   2.325  26.580  0.00  0.00    -0.218 OA
ENDBRANCH  13  14
BRANCH  17  18
ATOM     18  C   UNL     1      -4.026   0.973  24.799  0.00  0.00    +0.146 C 
BRANCH  18  19
ATOM     19  N   UNL     1      -4.449   0.376  24.419  0.00  0.00    -0.199 NA
ATOM     20  C   UNL     1      -4.136  -0.387  24.376  0.00  0.00    +0.265 C 
ATOM     21  O   UNL     1      -4.558  -0.985  23.996  0.00  0.00    -0.268 OA
BRANCH  20  22
ATOM     22  C   UNL     1      -3.401  -0.551  24.713  0.00  0.00    +0.055 A 
ATOM     23  C   UNL     1      -2.718  -0.516  24.251  0.00  0.00    +0.005 A 
ATOM     24  C   UNL     1      -1.983  -0.680  24.589  0.00  0.00    +0.004 A 
ATOM     25  C   UNL     1      -1.931  -0.879  25.387  0.00  0.00    +0.071 A 
ATOM     26  C   UNL     1      -2.614  -0.914  25.849  0.00  0.00    +0.004 A 
ATOM     27  C   UNL     1      -3.349  -0.750  25.512  0.00  0.00    +0.005 A 
BRANCH  25  28
ATOM     28  C   UNL     1      -1.196  -1.043  25.724  0.00  0.00    +0.419 C 
ATOM     29  F   UNL     1      -0.462  -1.207  26.061  0.00  0.00    -0.166 F 
ATOM     30  F   UNL     1      -1.211  -0.314  26.110  0.00  0.00    -0.166 F 
ATOM     31  F   UNL     1      -1.182  -1.772  25.338  0.00  0.00    -0.166 F 
ENDBRANCH  25  28
ENDBRANCH  20  22
ENDBRANCH  18  19
ENDBRANCH  17  18
TORSDOF 8
ENDMDL
MODEL 7
REMARK VINA RESULT:     -11.2      1.604      3.724
REMARK  Name = 
REMARK  8 active torsions:
REMARK  status: ('A' for Active; 'I' for Inactive)
REMARK    1  A    between atoms: N_2  and  C_3
REMARK    2  A    between atoms: N_2  and  C_10
REMARK    3  A    between atoms: C_3  and  C_4
REMARK    4  A    between atoms: C_13  and  C_14
REMARK    5  A    between atoms: C_17  and  C_18
REMARK    6  A    between atoms: C_18  and  N_19
REMARK    7  A    between atoms: C_20  and  C_22
REMARK    8  A    between atoms: C_25  and  C_28
REMARK                            x       y       z     vdW  Elec       q    Type
REMARK                         _______ _______ _______ _____ _____    ______ ____
ROOT
ATOM     10  C   UNL     1      -1.207   0.710  24.644  0.00  0.00    +0.120 C 
ATOM     11  C   UNL     1      -0.485   0.480  24.317  0.00  0.00    +0.198 C 
ATOM     12  O   UNL     1      -0.195  -0.291  24.277  0.00  0.00    -0.219 OA
ATOM     13  C   UNL     1      -0.103   1.157  24.038  0.00  0.00    +0.180 C 
ATOM     16  O   UNL     1      -0.590   1.805  24.193  0.00  0.00    -0.350 OA
ATOM     17  C   UNL     1      -1.271   1.529  24.567  0.00  0.00    +0.154 C 
ENDROOT
BRANCH  10   2
ATOM      1  C   UNL     1      -1.715   0.025  25.790  0.00  0.00    +0.090 C 
ATOM      2  N   UNL     1      -1.765   0.210  24.988  0.00  0.00    -0.265 NA
BRANCH   2   3
ATOM      3  C   UNL     1      -2.373  -0.106  24.528  0.00  0.00    +0.099 C 
BRANCH   3   4
ATOM      4  C   UNL     1      -2.782  -0.774  24.788  0.00  0.00    -0.006 A 
ATOM      5  C   UNL     1      -3.133  -0.778  25.536  0.00  0.00    -0.003 A 
ATOM      6  C   UNL     1      -3.541  -1.446  25.796  0.00  0.00    -0.000 A 
ATOM      7  C   UNL     1      -3.599  -2.109  25.309  0.00  0.00    -0.000 A 
ATOM      8  C   UNL     1      -3.250  -2.105  24.562  0.00  0.00    -0.000 A 
ATOM      9  C   UNL     1      -2.841  -1.437  24.302  0.00  0.00    -0.003 A 
ENDBRANCH   3   4
ENDBRANCH   2   3
ENDBRANCH  10   2
BRANCH  13  14
ATOM     14  C   UNL     1       0.634   1.180  23.670  0.00  0.00    +0.214 C 
ATOM     15  O   UNL     1       1.199   1.730  23.913  0.00  0.00    -0.218 OA
ENDBRANCH  13  14
BRANCH  17  18
ATOM     18  C   UNL     1      -1.906   1.991  24.821  0.00  0.00    +0.146 C 
BRANCH  18  19
ATOM     19  N   UNL     1      -1.791   2.788  24.998  0.00  0.00    -0.199 NA
ATOM     20  C   UNL     1      -2.440   3.291  25.079  0.00  0.00    +0.265 C 
ATOM     21  O   UNL     1      -2.325   4.088  25.257  0.00  0.00    -0.268 OA
BRANCH  20  22
ATOM     22  C   UNL     1      -3.205   2.996  24.982  0.00  0.00    +0.055 A 
ATOM     23  C   UNL     1      -3.516   2.899  24.225  0.00  0.00    +0.005 A 
ATOM     24  C   UNL     1      -4.281   2.604  24.128  0.00  0.00    +0.004 A 
ATOM     25  C   UNL     1      -4.733   2.407  24.789  0.00  0.00    +0.071 A 
ATOM     26  C   UNL     1      -4.422   2.504  25.547  0.00  0.00    +0.004 A 
ATOM     27  C   UNL     1      -3.658   2.798  25.644  0.00  0.00    +0.005 A 
BRANCH  25  28
ATOM     28  C   UNL     1      -5.498   2.112  24.692  0.00  0.00    +0.419 C 
ATOM     29  F   UNL     1      -6.262   1.817  24.595  0.00  0.00    -0.166 F 
ATOM     30  F   UNL     1      -5.189   1.418  24.370  0.00  0.00    -0.166 F 
ATOM     31  F   UNL     1      -5.806   2.806  25.015  0.00  0.00    -0.166 F 
ENDBRANCH  25  28
ENDBRANCH  20  22
ENDBRANCH  18  19
ENDBRANCH  17  18
TORSDOF 8
ENDMDL
MODEL 8
REMARK VINA RESULT:     -11.1      1.878      2.899
REMARK  Name = 
REMARK  8 active torsions:
REMARK  status: ('A' for Active; 'I' for Inactive)
REMARK    1  A    between atoms: N_2  and  C_3
REMARK    2  A    between atoms: N_2  and  C_10
REMARK    3  A    between atoms: C_3  and  C_4
REMARK    4  A    between atoms: C_13  and  C_14
REMARK    5  A    between atoms: C_17  and  C_18
REMARK    6  A    between atoms: C_18  and  N_19
REMARK    7  A    between atoms: C_20  and  C_22
REMARK    8  A    between atoms: C_25  and  C_28
REMARK                            x       y       z     vdW  Elec       q    Type
REMARK                         _______ _______ _______ _____ _____    ______ ____
ROOT
ATOM     10  C   UNL     1      -0.563   1.177  24.470  0.00  0.00    +0.120 C 
ATOM     11  C   UNL     1       0.165   1.175  24.080  0.00  0.00    +0.198 C 
ATOM     12  O   UNL     1       0.699   1.801  24.047  0.00  0.00    -0.219 OA
ATOM     13  C   UNL     1       0.263   0.434  23.728  0.00  0.00    +0.180 C 
ATOM     16  O   UNL     1      -0.403  -0.020  23.902  0.00  0.00    -0.350 OA
ATOM     17  C   UNL     1      -0.913   0.439  24.360  0.00  0.00    +0.154 C 
ENDROOT
BRANCH  10   2
ATOM      1  C   UNL     1      -0.775   1.850  25.712  0.00  0.00    +0.090 C 
ATOM      2  N   UNL     1      -0.882   1.808  24.896  0.00  0.00    -0.265 NA
BRANCH   2   3
ATOM      3  C   UNL     1      -1.309   2.395  24.504  0.00  0.00    +0.099 C 
BRANCH   3   4
ATOM      4  C   UNL     1      -1.467   3.111  24.881  0.00  0.00    -0.006 A 
ATOM      5  C   UNL     1      -1.008   3.777  24.713  0.00  0.00    -0.003 A 
ATOM      6  C   UNL     1      -1.166   4.493  25.091  0.00  0.00    -0.000 A 
ATOM      7  C   UNL     1      -1.782   4.544  25.637  0.00  0.00    -0.000 A 
ATOM      8  C   UNL     1      -2.240   3.879  25.806  0.00  0.00    -0.000 A 
ATOM      9  C   UNL     1      -2.082   3.163  25.428  0.00  0.00    -0.003 A 
ENDBRANCH   3   4
ENDBRANCH   2   3
ENDBRANCH  10   2
BRANCH  13  14
ATOM     14  C   UNL     1       0.913   0.192  23.283  0.00  0.00    +0.214 C 
ATOM     15  O   UNL     1       0.818  -0.373  22.688  0.00  0.00    -0.218 OA
ENDBRANCH  13  14
BRANCH  17  18
ATOM     18  C   UNL     1      -1.646   0.201  24.656  0.00  0.00    +0.146 C 
BRANCH  18  19
ATOM     19  N   UNL     1      -1.787  -0.596  24.817  0.00  0.00    -0.199 NA
ATOM     20  C   UNL     1      -2.561  -0.868  24.905  0.00  0.00    +0.265 C 
ATOM     21  O   UNL     1      -2.702  -1.665  25.066  0.00  0.00    -0.268 OA
BRANCH  20  22
ATOM     22  C   UNL     1      -3.193  -0.343  24.833  0.00  0.00    +0.055 A 
ATOM     23  C   UNL     1      -3.556  -0.039  25.509  0.00  0.00    +0.005 A 
ATOM     24  C   UNL     1      -4.189   0.486  25.436  0.00  0.00    +0.004 A 
ATOM     25  C   UNL     1      -4.459   0.706  24.689  0.00  0.00    +0.071 A 
ATOM     26  C   UNL     1      -4.096   0.402  24.013  0.00  0.00    +0.004 A 
ATOM     27  C   UNL     1      -3.464  -0.123  24.085  0.00  0.00    +0.005 A 
BRANCH  25  28
ATOM     28  C   UNL     1      -5.091   1.230  24.617  0.00  0.00    +0.419 C 
ATOM     29  F   UNL     1      -5.724   1.755  24.544  0.00  0.00    -0.166 F 
ATOM     30  F   UNL     1      -4.639   1.707  24.118  0.00  0.00    -0.166 F 
ATOM     31  F   UNL     1      -5.544   0.753  25.115  0.00  0.00    -0.166 F 
ENDBRANCH  25  28
ENDBRANCH  20  22
ENDBRANCH  18  19
ENDBRANCH  17  18
TORSDOF 8
ENDMDL
