MODEL 1
REMARK VINA RESULT:     -11.0      0.000      0.000
REMARK  Name = 
REMARK  6 active torsions:
REMARK  status: ('A' for Active; 'I' for Inactive)
REMARK    1  A    between atoms: C_2  and  C_4
REMARK    2  A    between atoms: N_8  and  C_9
REMARK    3  A    between atoms: C_13  and  O_17
REMARK    4  A    between atoms: O_17  and  C_18
REMARK    5  A    between atoms: N_20  and  C_21
REMARK    6  A    between atoms: C_23  and  C_27
REMARK                            x       y       z     vdW  Elec       q    Type
REMARK                         _______ _______ _______ _____ _____    ______ ____
ROOT
ATOM      9  C   UNL     1      -1.545  -0.994  25.084  0.00  0.00    +0.167 C 
ATOM     10  C   UNL     1      -1.542  -0.759  25.874  0.00  0.00    +0.169 C 
ATOM     11  O   UNL     1      -1.138  -0.042  25.924  0.00  0.00    -0.348 OA
ATOM     12  C   UNL     1      -0.891   0.166  25.166  0.00  0.00    +0.187 C 
ATOM     13  C   UNL     1      -0.489   0.737  24.727  0.00  0.00    +0.229 C 
ATOM     14  C   UNL     1      -0.492   0.501  23.936  0.00  0.00    +0.188 C 
ATOM     15  O   UNL     1      -0.896  -0.216  23.886  0.00  0.00    -0.348 OA
ATOM     16  C   UNL     1      -1.143  -0.423  24.646  0.00  0.00    +0.171 C 
ENDROOT
BRANCH   9   8
ATOM      4  C   UNL     1      -2.695  -1.865  24.797  0.00  0.00    +0.161 A 
ATOM      5  N   UNL     1      -2.793  -2.603  24.440  0.00  0.00    -0.113 NA
ATOM      6  N   UNL     1      -2.050  -2.874  24.206  0.00  0.00    -0.023 NA
ATOM      7  N   UNL     1      -1.492  -2.305  24.418  0.00  0.00    -0.043 NA
ATOM      8  N   UNL     1      -1.891  -1.681  24.784  0.00  0.00    -0.214 N 
BRANCH   4   2
ATOM      1  C   UNL     1      -3.749  -0.919  24.615  0.00  0.00    +0.008 C 
ATOM      2  C   UNL     1      -3.295  -1.395  25.112  0.00  0.00    +0.060 C 
ATOM      3  C   UNL     1      -3.440  -1.401  25.924  0.00  0.00    +0.008 C 
ENDBRANCH   4   2
ENDBRANCH   9   8
BRANCH  13  17
ATOM     17  O   UNL     1      -0.143   1.424  25.026  0.00  0.00    -0.432 OA
BRANCH  17  18
ATOM     18  C   UNL     1      -0.518   2.152  24.926  0.00  0.00    +0.425 C 
ATOM     19  O   UNL     1      -0.818   2.363  24.187  0.00  0.00    -0.224 OA
ATOM     20  N   UNL     1      -0.593   2.669  25.563  0.00  0.00    -0.142 NA
BRANCH  20  21
ATOM     21  C   UNL     1      -0.968   3.398  25.463  0.00  0.00    +0.077 A 
ATOM     22  C   UNL     1      -1.742   3.503  25.725  0.00  0.00    +0.027 A 
ATOM     23  C   UNL     1      -2.117   4.231  25.625  0.00  0.00    +0.070 A 
ATOM     24  C   UNL     1      -1.716   4.854  25.261  0.00  0.00    +0.010 A 
ATOM     25  C   UNL     1      -0.941   4.749  24.998  0.00  0.00    +0.002 A 
ATOM     26  C   UNL     1      -0.567   4.020  25.099  0.00  0.00    +0.017 A 
BRANCH  23  27
ATOM     27  C   UNL     1      -2.892   4.336  25.888  0.00  0.00    +0.100 C 
ATOM     28  N   UNL     1      -3.666   4.442  26.150  0.00  0.00    -0.191 NA
ENDBRANCH  23  27
ENDBRANCH  20  21
ENDBRANCH  17  18
ENDBRANCH  13  17
TORSDOF 6
ENDMDL
MODEL 2
REMARK VINA RESULT:     -10.8      1.725      2.441
REMARK  Name = 
REMARK  6 active torsions:
REMARK  status: ('A' for Active; 'I' for Inactive)
REMARK    1  A    between atoms: C_2  and  C_4
REMARK    2  A    between atoms: N_8  and  C_9
REMARK    3  A    between atoms: C_13  and  O_17
REMARK    4  A    between atoms: O_17  and  C_18
REMARK    5  A    between atoms: N_20  and  C_21
REMARK    6  A    between atoms: C_23  and  C_27
REMARK                            x       y       z     vdW  Elec       q    Type
REMARK                         _______ _______ _______ _____ _____    ______ ____
ROOT
ATOM      9  C   UNL     1      -4.072  -0.614  24.569  0.00  0.00    +0.167 C 
ATOM     10  C   UNL     1      -4.329  -0.340  25.303  0.00  0.00    +0.169 C 
ATOM     11  O   UNL     1      -4.265   0.482  25.303  0.00  0.00    -0.348 OA
ATOM     12  C   UNL     1      -3.969   0.716  24.570  0.00  0.00    +0.187 C 
ATOM     13  C   UNL     1      -3.746   1.368  24.116  0.00  0.00    +0.229 C 
ATOM     14  C   UNL     1      -3.489   1.093  23.382  0.00  0.00    +0.188 C 
ATOM     15  O   UNL     1      -3.553   0.271  23.382  0.00  0.00    -0.348 OA
ATOM     16  C   UNL     1      -3.850   0.038  24.116  0.00  0.00    +0.171 C 
ENDROOT
BRANCH   9   8
ATOM      4  C   UNL     1      -3.558  -1.989  24.649  0.00  0.00    +0.161 A 
ATOM      5  N   UNL     1      -3.709  -2.694  24.245  0.00  0.00    -0.113 NA
ATOM      6  N   UNL     1      -4.288  -2.542  23.677  0.00  0.00    -0.023 NA
ATOM      7  N   UNL     1      -4.494  -1.745  23.728  0.00  0.00    -0.043 NA
ATOM      8  N   UNL     1      -4.043  -1.404  24.329  0.00  0.00    -0.214 N 
BRANCH   4   2
ATOM      1  C   UNL     1      -2.215  -1.791  25.094  0.00  0.00    +0.008 C 
ATOM      2  C   UNL     1      -3.017  -1.889  25.263  0.00  0.00    +0.060 C 
ATOM      3  C   UNL     1      -3.277  -1.887  26.045  0.00  0.00    +0.008 C 
ENDBRANCH   4   2
ENDBRANCH   9   8
BRANCH  13  17
ATOM     17  O   UNL     1      -3.775   2.158  24.356  0.00  0.00    -0.432 OA
BRANCH  17  18
ATOM     18  C   UNL     1      -3.077   2.590  24.437  0.00  0.00    +0.425 C 
ATOM     19  O   UNL     1      -2.578   2.693  23.788  0.00  0.00    -0.224 OA
ATOM     20  N   UNL     1      -2.878   2.921  25.165  0.00  0.00    -0.142 NA
BRANCH  20  21
ATOM     21  C   UNL     1      -2.180   3.354  25.246  0.00  0.00    +0.077 A 
ATOM     22  C   UNL     1      -1.493   2.984  25.513  0.00  0.00    +0.027 A 
ATOM     23  C   UNL     1      -0.796   3.416  25.594  0.00  0.00    +0.070 A 
ATOM     24  C   UNL     1      -0.785   4.220  25.407  0.00  0.00    +0.010 A 
ATOM     25  C   UNL     1      -1.473   4.591  25.140  0.00  0.00    +0.002 A 
ATOM     26  C   UNL     1      -2.170   4.157  25.060  0.00  0.00    +0.017 A 
BRANCH  23  27
ATOM     27  C   UNL     1      -0.109   3.045  25.861  0.00  0.00    +0.100 C 
ATOM     28  N   UNL     1       0.577   2.675  26.128  0.00  0.00    -0.191 NA
ENDBRANCH  23  27
ENDBRANCH  20  21
ENDBRANCH  17  18
ENDBRANCH  13  17
TORSDOF 6
ENDMDL
MODEL 3
REMARK VINA RESULT:     -10.7      1.167      5.072
REMARK  Name = 
REMARK  6 active torsions:
REMARK  status: ('A' for Active; 'I' for Inactive)
REMARK    1  A    between atoms: C_2  and  C_4
REMARK    2  A    between atoms: N_8  and  C_9
REMARK    3  A    between atoms: C_13  and  O_17
REMARK    4  A    between atoms: O_17  and  C_18
REMARK    5  A    between atoms: N_20  and  C_21
REMARK    6  A    between atoms: C_23  and  C_27
REMARK                            x       y       z     vdW  Elec       q    Type
REMARK                         _______ _______ _______ _____ _____    ______ ____
ROOT
ATOM      9  C   UNL     1      -0.929   3.202  25.462  0.00  0.00    +0.167 C 
ATOM     10  C   UNL     1      -0.988   2.919  26.234  0.00  0.00    +0.169 C 
ATOM     11  O   UNL     1      -0.829   2.110  26.222  0.00  0.00    -0.348 OA
ATOM     12  C   UNL     1      -0.672   1.893  25.443  0.00  0.00    +0.187 C 
ATOM     13  C   UNL     1      -0.476   1.259  24.953  0.00  0.00    +0.229 C 
ATOM     14  C   UNL     1      -0.417   1.541  24.180  0.00  0.00    +0.188 C 
ATOM     15  O   UNL     1      -0.576   2.350  24.192  0.00  0.00    -0.348 OA
ATOM     16  C   UNL     1      -0.733   2.568  24.973  0.00  0.00    +0.171 C 
ENDROOT
BRANCH   9   8
ATOM      4  C   UNL     1      -1.756   4.399  25.252  0.00  0.00    +0.161 A 
ATOM      5  N   UNL     1      -1.621   5.158  24.957  0.00  0.00    -0.113 NA
ATOM      6  N   UNL     1      -0.826   5.210  24.743  0.00  0.00    -0.023 NA
ATOM      7  N   UNL     1      -0.470   4.484  24.906  0.00  0.00    -0.043 NA
ATOM      8  N   UNL     1      -1.045   3.983  25.221  0.00  0.00    -0.214 N 
BRANCH   4   2
ATOM      1  C   UNL     1      -3.026   3.793  25.001  0.00  0.00    +0.008 C 
ATOM      2  C   UNL     1      -2.477   4.108  25.530  0.00  0.00    +0.060 C 
ATOM      3  C   UNL     1      -2.648   4.133  26.336  0.00  0.00    +0.008 C 
ENDBRANCH   4   2
ENDBRANCH   9   8
BRANCH  13  17
ATOM     17  O   UNL     1      -0.360   0.478  25.194  0.00  0.00    -0.432 OA
BRANCH  17  18
ATOM     18  C   UNL     1      -0.807  -0.129  24.858  0.00  0.00    +0.425 C 
ATOM     19  O   UNL     1      -0.756  -0.278  24.048  0.00  0.00    -0.224 OA
ATOM     20  N   UNL     1      -1.304  -0.586  25.330  0.00  0.00    -0.142 NA
BRANCH  20  21
ATOM     21  C   UNL     1      -1.750  -1.193  24.994  0.00  0.00    +0.077 A 
ATOM     22  C   UNL     1      -2.542  -1.065  24.802  0.00  0.00    +0.027 A 
ATOM     23  C   UNL     1      -2.988  -1.671  24.466  0.00  0.00    +0.070 A 
ATOM     24  C   UNL     1      -2.643  -2.407  24.322  0.00  0.00    +0.010 A 
ATOM     25  C   UNL     1      -1.851  -2.535  24.514  0.00  0.00    +0.002 A 
ATOM     26  C   UNL     1      -1.405  -1.928  24.850  0.00  0.00    +0.017 A 
BRANCH  23  27
ATOM     27  C   UNL     1      -3.781  -1.543  24.273  0.00  0.00    +0.100 C 
ATOM     28  N   UNL     1      -4.572  -1.415  24.081  0.00  0.00    -0.191 NA
ENDBRANCH  23  27
ENDBRANCH  20  21
ENDBRANCH  17  18
ENDBRANCH  13  17
TORSDOF 6
ENDMDL
MODEL 4
REMARK VINA RESULT:     -10.6      1.917      5.608
REMARK  Name = 
REMARK  6 active torsions:
REMARK  status: ('A' for Active; 'I' for Inactive)
REMARK    1  A    between atoms: C_2  and  C_4
REMARK    2  A    between atoms: N_8  and  C_9
REMARK    3  A    between atoms: C_13  and  O_17
REMARK    4  A    between atoms: O_17  and  C_18
REMARK    5  A    between atoms: N_20  and  C_21
REMARK    6  A    between atoms: C_23  and  C_27
REMARK                            x       y       z     vdW  Elec       q    Type
REMARK                         _______ _______ _______ _____ _____    ______ ____
ROOT
ATOM      9  C   UNL     1      -2.565   3.095  24.469  0.00  0.00    +0.167 C 
ATOM     10  C   UNL     1      -2.348   2.805  23.728  0.00  0.00    +0.169 C 
ATOM     11  O   UNL     1      -2.837   2.165  23.551  0.00  0.00    -0.348 OA
ATOM     12  C   UNL     1      -3.357   2.059  24.182  0.00  0.00    +0.187 C 
ATOM     13  C   UNL     1      -3.981   1.599  24.464  0.00  0.00    +0.229 C 
ATOM     14  C   UNL     1      -4.199   1.889  25.205  0.00  0.00    +0.188 C 
ATOM     15  O   UNL     1      -3.709   2.529  25.381  0.00  0.00    -0.348 OA
ATOM     16  C   UNL     1      -3.189   2.634  24.749  0.00  0.00    +0.171 C 
ENDROOT
BRANCH   9   8
ATOM      4  C   UNL     1      -1.432   3.786  25.102  0.00  0.00    +0.161 A 
ATOM      5  N   UNL     1      -1.326   4.517  25.470  0.00  0.00    -0.113 NA
ATOM      6  N   UNL     1      -2.049   4.917  25.456  0.00  0.00    -0.023 NA
ATOM      7  N   UNL     1      -2.600   4.432  25.079  0.00  0.00    -0.043 NA
ATOM      8  N   UNL     1      -2.219   3.734  24.860  0.00  0.00    -0.214 N 
BRANCH   4   2
ATOM      1  C   UNL     1      -0.685   2.676  25.601  0.00  0.00    +0.008 C 
ATOM      2  C   UNL     1      -0.853   3.209  24.994  0.00  0.00    +0.060 C 
ATOM      3  C   UNL     1      -0.442   3.165  24.281  0.00  0.00    +0.008 C 
ENDBRANCH   4   2
ENDBRANCH   9   8
BRANCH  13  17
ATOM     17  O   UNL     1      -4.327   0.960  24.072  0.00  0.00    -0.432 OA
BRANCH  17  18
ATOM     18  C   UNL     1      -4.162   0.189  24.315  0.00  0.00    +0.425 C 
ATOM     19  O   UNL     1      -4.289  -0.032  25.099  0.00  0.00    -0.224 OA
ATOM     20  N   UNL     1      -3.870  -0.360  23.774  0.00  0.00    -0.142 NA
BRANCH  20  21
ATOM     21  C   UNL     1      -3.705  -1.132  24.016  0.00  0.00    +0.077 A 
ATOM     22  C   UNL     1      -2.942  -1.336  24.251  0.00  0.00    +0.027 A 
ATOM     23  C   UNL     1      -2.777  -2.107  24.493  0.00  0.00    +0.070 A 
ATOM     24  C   UNL     1      -3.377  -2.674  24.501  0.00  0.00    +0.010 A 
ATOM     25  C   UNL     1      -4.141  -2.470  24.266  0.00  0.00    +0.002 A 
ATOM     26  C   UNL     1      -4.305  -1.698  24.024  0.00  0.00    +0.017 A 
BRANCH  23  27
ATOM     27  C   UNL     1      -2.013  -2.311  24.728  0.00  0.00    +0.100 C 
ATOM     28  N   UNL     1      -1.249  -2.516  24.963  0.00  0.00    -0.191 NA
ENDBRANCH  23  27
ENDBRANCH  20  21
ENDBRANCH  17  18
ENDBRANCH  13  17
TORSDOF 6
ENDMDL
MODEL 5
REMARK VINA RESULT:      -9.5      2.134      3.010
REMARK  Name = 
REMARK  6 active torsions:
REMARK  status: ('A' for Active; 'I' for Inactive)
REMARK    1  A    between atoms: C_2  and  C_4
REMARK    2  A    between atoms: N_8  and  C_9
REMARK    3  A    between atoms: C_13  and  O_17
REMARK    4  A    between atoms: O_17  and  C_18
REMARK    5  A    between atoms: N_20  and  C_21
REMARK    6  A    between atoms: C_23  and  C_27
REMARK                            x       y       z     vdW  Elec       q    Type
REMARK                         _______ _______ _______ _____ _____    ______ ____
ROOT
ATOM      9  C   UNL     1      -0.580   0.831  24.601  0.00  0.00    +0.167 C 
ATOM     10  C   UNL     1      -0.580   0.908  25.422  0.00  0.00    +0.169 C 
ATOM     11  O   UNL     1      -1.011   1.584  25.613  0.00  0.00    -0.348 OA
ATOM     12  C   UNL     1      -1.277   1.925  24.912  0.00  0.00    +0.187 C 
ATOM     13  C   UNL     1      -1.708   2.554  24.595  0.00  0.00    +0.229 C 
ATOM     14  C   UNL     1      -1.708   2.476  23.774  0.00  0.00    +0.188 C 
ATOM     15  O   UNL     1      -1.277   1.800  23.583  0.00  0.00    -0.348 OA
ATOM     16  C   UNL     1      -1.011   1.459  24.285  0.00  0.00    +0.171 C 
ENDROOT
BRANCH   9   8
ATOM      4  C   UNL     1      -0.359  -0.579  24.245  0.00  0.00    +0.161 A 
ATOM      5  N   UNL     1       0.128  -0.976  23.710  0.00  0.00    -0.113 NA
ATOM      6  N   UNL     1       0.575  -0.413  23.305  0.00  0.00    -0.023 NA
ATOM      7  N   UNL     1       0.365   0.332  23.589  0.00  0.00    -0.043 NA
ATOM      8  N   UNL     1      -0.213   0.230  24.170  0.00  0.00    -0.214 N 
BRANCH   4   2
ATOM      1  C   UNL     1      -1.666  -1.090  24.510  0.00  0.00    +0.008 C 
ATOM      2  C   UNL     1      -0.898  -0.928  24.762  0.00  0.00    +0.060 C 
ATOM      3  C   UNL     1      -0.667  -1.116  25.531  0.00  0.00    +0.008 C 
ENDBRANCH   4   2
ENDBRANCH   9   8
BRANCH  13  17
ATOM     17  O   UNL     1      -2.075   3.155  25.026  0.00  0.00    -0.432 OA
BRANCH  17  18
ATOM     18  C   UNL     1      -2.890   3.269  24.963  0.00  0.00    +0.425 C 
ATOM     19  O   UNL     1      -3.212   3.560  24.262  0.00  0.00    -0.224 OA
ATOM     20  N   UNL     1      -3.382   3.093  25.601  0.00  0.00    -0.142 NA
BRANCH  20  21
ATOM     21  C   UNL     1      -4.196   3.208  25.538  0.00  0.00    +0.077 A 
ATOM     22  C   UNL     1      -4.691   2.571  25.369  0.00  0.00    +0.027 A 
ATOM     23  C   UNL     1      -5.505   2.685  25.306  0.00  0.00    +0.070 A 
ATOM     24  C   UNL     1      -5.825   3.438  25.412  0.00  0.00    +0.010 A 
ATOM     25  C   UNL     1      -5.330   4.077  25.581  0.00  0.00    +0.002 A 
ATOM     26  C   UNL     1      -4.516   3.961  25.644  0.00  0.00    +0.017 A 
BRANCH  23  27
ATOM     27  C   UNL     1      -6.000   2.047  25.137  0.00  0.00    +0.100 C 
ATOM     28  N   UNL     1      -6.495   1.409  24.969  0.00  0.00    -0.191 NA
ENDBRANCH  23  27
ENDBRANCH  20  21
ENDBRANCH  17  18
ENDBRANCH  13  17
TORSDOF 6
ENDMDL
MODEL 6
REMARK VINA RESULT:      -7.7     16.700     18.436
REMARK  Name = 
REMARK  6 active torsions:
REMARK  status: ('A' for Active; 'I' for Inactive)
REMARK    1  A    between atoms: C_2  and  C_4
REMARK    2  A    between atoms: N_8  and  C_9
REMARK    3  A    between atoms: C_13  and  O_17
REMARK    4  A    between atoms: O_17  and  C_18
REMARK    5  A    between atoms: N_20  and  C_21
REMARK    6  A    between atoms: C_23  and  C_27
REMARK                            x       y       z     vdW  Elec       q    Type
REMARK                         _______ _______ _______ _____ _____    ______ ____
ROOT
ATOM      9  C   UNL     1      15.335   6.641  19.834  0.00  0.00    +0.167 C 
ATOM     10  C   UNL     1      14.854   6.463  20.480  0.00  0.00    +0.169 C 
ATOM     11  O   UNL     1      14.129   6.841  20.369  0.00  0.00    -0.348 OA
ATOM     12  C   UNL     1      14.162   7.253  19.656  0.00  0.00    +0.187 C 
ATOM     13  C   UNL     1      13.736   7.741  19.145  0.00  0.00    +0.229 C 
ATOM     14  C   UNL     1      14.217   7.919  18.500  0.00  0.00    +0.188 C 
ATOM     15  O   UNL     1      14.942   7.541  18.610  0.00  0.00    -0.348 OA
ATOM     16  C   UNL     1      14.908   7.129  19.325  0.00  0.00    +0.171 C 
ENDROOT
BRANCH   9   8
ATOM      4  C   UNL     1      16.736   6.469  20.245  0.00  0.00    +0.161 A 
ATOM      5  N   UNL     1      17.405   6.124  19.908  0.00  0.00    -0.113 NA
ATOM      6  N   UNL     1      17.191   5.817  19.172  0.00  0.00    -0.023 NA
ATOM      7  N   UNL     1      16.389   5.974  19.055  0.00  0.00    -0.043 NA
ATOM      8  N   UNL     1      16.108   6.377  19.718  0.00  0.00    -0.214 N 
BRANCH   4   2
ATOM      1  C   UNL     1      17.038   7.589  21.080  0.00  0.00    +0.008 C 
ATOM      2  C   UNL     1      16.701   6.842  20.980  0.00  0.00    +0.060 C 
ATOM      3  C   UNL     1      16.331   6.468  21.615  0.00  0.00    +0.008 C 
ENDBRANCH   4   2
ENDBRANCH   9   8
BRANCH  13  17
ATOM     17  O   UNL     1      12.963   8.005  19.261  0.00  0.00    -0.432 OA
BRANCH  17  18
ATOM     18  C   UNL     1      12.433   8.023  18.628  0.00  0.00    +0.425 C 
ATOM     19  O   UNL     1      12.246   7.326  18.229  0.00  0.00    -0.224 OA
ATOM     20  N   UNL     1      12.092   8.736  18.396  0.00  0.00    -0.142 NA
BRANCH  20  21
ATOM     21  C   UNL     1      11.562   8.754  17.763  0.00  0.00    +0.077 A 
ATOM     22  C   UNL     1      11.841   8.861  16.995  0.00  0.00    +0.027 A 
ATOM     23  C   UNL     1      11.312   8.879  16.363  0.00  0.00    +0.070 A 
ATOM     24  C   UNL     1      10.503   8.789  16.499  0.00  0.00    +0.010 A 
ATOM     25  C   UNL     1      10.224   8.681  17.268  0.00  0.00    +0.002 A 
ATOM     26  C   UNL     1      10.754   8.664  17.900  0.00  0.00    +0.017 A 
BRANCH  23  27
ATOM     27  C   UNL     1      11.591   8.986  15.593  0.00  0.00    +0.100 C 
ATOM     28  N   UNL     1      11.870   9.094  14.825  0.00  0.00    -0.191 NA
ENDBRANCH  23  27
ENDBRANCH  20  21
ENDBRANCH  17  18
ENDBRANCH  13  17
TORSDOF 6
ENDMDL
MODEL 7
REMARK VINA RESULT:      -7.6     16.002     17.864
REMARK  Name = 
REMARK  6 active torsions:
REMARK  status: ('A' for Active; 'I' for Inactive)
REMARK    1  A    between atoms: C_2  and  C_4
REMARK    2  A    between atoms: N_8  and  C_9
REMARK    3  A    between atoms: C_13  and  O_17
REMARK    4  A    between atoms: O_17  and  C_18
REMARK    5  A    between atoms: N_20  and  C_21
REMARK    6  A    between atoms: C_23  and  C_27
REMARK                            x       y       z     vdW  Elec       q    Type
REMARK                         _______ _______ _______ _____ _____    ______ ____
ROOT
ATOM      9  C   UNL     1      15.746   7.143  19.404  0.00  0.00    +0.167 C 
ATOM     10  C   UNL     1      15.848   7.899  19.717  0.00  0.00    +0.169 C 
ATOM     11  O   UNL     1      15.104   8.250  19.782  0.00  0.00    -0.348 OA
ATOM     12  C   UNL     1      14.543   7.711  19.509  0.00  0.00    +0.187 C 
ATOM     13  C   UNL     1      13.737   7.594  19.380  0.00  0.00    +0.229 C 
ATOM     14  C   UNL     1      13.634   6.839  19.066  0.00  0.00    +0.188 C 
ATOM     15  O   UNL     1      14.378   6.488  19.001  0.00  0.00    -0.348 OA
ATOM     16  C   UNL     1      14.940   7.027  19.275  0.00  0.00    +0.171 C 
ENDROOT
BRANCH   9   8
ATOM      4  C   UNL     1      16.920   6.342  19.780  0.00  0.00    +0.161 A 
ATOM      5  N   UNL     1      17.405   5.799  19.391  0.00  0.00    -0.113 NA
ATOM      6  N   UNL     1      17.131   5.721  18.616  0.00  0.00    -0.023 NA
ATOM      7  N   UNL     1      16.475   6.214  18.527  0.00  0.00    -0.043 NA
ATOM      8  N   UNL     1      16.345   6.598  19.246  0.00  0.00    -0.214 N 
BRANCH   4   2
ATOM      1  C   UNL     1      16.666   6.132  21.170  0.00  0.00    +0.008 C 
ATOM      2  C   UNL     1      16.996   6.585  20.564  0.00  0.00    +0.060 C 
ATOM      3  C   UNL     1      17.402   7.280  20.743  0.00  0.00    +0.008 C 
ENDBRANCH   4   2
ENDBRANCH   9   8
BRANCH  13  17
ATOM     17  O   UNL     1      13.137   8.139  19.538  0.00  0.00    -0.432 OA
BRANCH  17  18
ATOM     18  C   UNL     1      12.445   7.894  19.914  0.00  0.00    +0.425 C 
ATOM     19  O   UNL     1      11.821   7.587  19.471  0.00  0.00    -0.224 OA
ATOM     20  N   UNL     1      12.377   7.956  20.734  0.00  0.00    -0.142 NA
BRANCH  20  21
ATOM     21  C   UNL     1      11.685   7.711  21.110  0.00  0.00    +0.077 A 
ATOM     22  C   UNL     1      11.573   6.914  21.290  0.00  0.00    +0.027 A 
ATOM     23  C   UNL     1      10.882   6.669  21.667  0.00  0.00    +0.070 A 
ATOM     24  C   UNL     1      10.301   7.222  21.864  0.00  0.00    +0.010 A 
ATOM     25  C   UNL     1      10.413   8.019  21.684  0.00  0.00    +0.002 A 
ATOM     26  C   UNL     1      11.105   8.263  21.307  0.00  0.00    +0.017 A 
BRANCH  23  27
ATOM     27  C   UNL     1      10.770   5.871  21.847  0.00  0.00    +0.100 C 
ATOM     28  N   UNL     1      10.658   5.075  22.027  0.00  0.00    -0.191 NA
ENDBRANCH  23  27
ENDBRANCH  20  21
ENDBRANCH  17  18
ENDBRANCH  13  17
TORSDOF 6
ENDMDL
