MODEL 1
REMARK VINA RESULT:      -8.7      0.000      0.000
REMARK  Name = 
REMARK  6 active torsions:
REMARK  status: ('A' for Active; 'I' for Inactive)
REMARK    1  A    between atoms: C_2  and  N_3
REMARK    2  A    between atoms: N_6  and  C_7
REMARK    3  A    between atoms: C_7  and  C_8
REMARK    4  A    between atoms: C_12  and  C_13
REMARK    5  A    between atoms: C_13  and  C_14
REMARK    6  A    between atoms: C_24  and  C_25
REMARK                            x       y       z     vdW  Elec       q    Type
REMARK                         _______ _______ _______ _____ _____    ______ ____
ROOT
ATOM      8  C   UNL     1      -1.206   0.724  23.968  0.00  0.00    +0.043 C 
ATOM      9  C   UNL     1      -1.445   1.153  23.304  0.00  0.00    -0.033 C 
ATOM     10  C   UNL     1      -2.173   1.542  23.305  0.00  0.00    -0.048 C 
ATOM     11  C   UNL     1      -2.412   1.971  22.641  0.00  0.00    +0.026 C 
ATOM     12  C   UNL     1      -2.661   1.501  23.967  0.00  0.00    +0.027 C 
ATOM     23  C   UNL     1      -2.423   1.073  24.631  0.00  0.00    +0.005 C 
ATOM     24  C   UNL     1      -1.695   0.684  24.631  0.00  0.00    +0.006 C 
ENDROOT
BRANCH  24  25
ATOM     25  C   UNL     1      -1.457   0.255  25.294  0.00  0.00    +0.000 C 
ATOM     26  C   UNL     1      -1.718  -0.521  25.399  0.00  0.00    +0.000 C 
ATOM     27  C   UNL     1      -0.958   0.602  25.852  0.00  0.00    +0.000 C 
ENDBRANCH  24  25
BRANCH   8   7
ATOM      7  C   UNL     1      -0.478   0.336  23.968  0.00  0.00    +0.121 C 
BRANCH   7   6
ATOM      3  N   UNL     1       1.361   0.354  22.791  0.00  0.00    -0.187 NA
ATOM      4  C   UNL     1       0.755   0.094  23.289  0.00  0.00    +0.339 C 
ATOM      5  O   UNL     1       0.779  -0.668  23.604  0.00  0.00    -0.249 OA
ATOM      6  N   UNL     1       0.127   0.597  23.470  0.00  0.00    -0.187 NA
BRANCH   3   2
ATOM      1  C   UNL     1       2.716   0.168  22.379  0.00  0.00    +0.025 C 
ATOM      2  C   UNL     1       1.989  -0.148  22.610  0.00  0.00    +0.117 C 
ENDBRANCH   3   2
ENDBRANCH   7   6
ENDBRANCH   8   7
BRANCH  12  13
ATOM     13  C   UNL     1      -3.390   1.890  23.967  0.00  0.00    +0.089 C 
BRANCH  13  14
ATOM     14  C   UNL     1      -3.566   2.434  24.561  0.00  0.00    +0.226 C 
ATOM     15  O   UNL     1      -2.998   2.980  24.803  0.00  0.00    -0.275 OA
ATOM     16  N   UNL     1      -4.313   2.433  24.914  0.00  0.00    -0.277 N 
ATOM     17  C   UNL     1      -4.489   2.977  25.508  0.00  0.00    +0.111 C 
ATOM     18  C   UNL     1      -5.235   2.975  25.860  0.00  0.00    +0.094 C 
ATOM     19  N   UNL     1      -5.804   2.429  25.618  0.00  0.00    -0.269 NA
ATOM     20  C   UNL     1      -6.550   2.428  25.971  0.00  0.00    +0.090 C 
ATOM     21  C   UNL     1      -5.627   1.885  25.025  0.00  0.00    +0.094 C 
ATOM     22  C   UNL     1      -4.882   1.886  24.672  0.00  0.00    +0.111 C 
ENDBRANCH  13  14
ENDBRANCH  12  13
TORSDOF 6
ENDMDL
MODEL 2
REMARK VINA RESULT:      -8.4      2.652      4.159
REMARK  Name = 
REMARK  6 active torsions:
REMARK  status: ('A' for Active; 'I' for Inactive)
REMARK    1  A    between atoms: C_2  and  N_3
REMARK    2  A    between atoms: N_6  and  C_7
REMARK    3  A    between atoms: C_7  and  C_8
REMARK    4  A    between atoms: C_12  and  C_13
REMARK    5  A    between atoms: C_13  and  C_14
REMARK    6  A    between atoms: C_24  and  C_25
REMARK                            x       y       z     vdW  Elec       q    Type
REMARK                         _______ _______ _______ _____ _____    ______ ____
ROOT
ATOM      8  C   UNL     1      -2.208   1.877  24.825  0.00  0.00    +0.043 C 
ATOM      9  C   UNL     1      -3.022   2.006  24.884  0.00  0.00    -0.033 C 
ATOM     10  C   UNL     1      -3.542   1.366  24.871  0.00  0.00    -0.048 C 
ATOM     11  C   UNL     1      -4.355   1.494  24.930  0.00  0.00    +0.026 C 
ATOM     12  C   UNL     1      -3.250   0.598  24.799  0.00  0.00    +0.027 C 
ATOM     23  C   UNL     1      -2.437   0.469  24.740  0.00  0.00    +0.005 C 
ATOM     24  C   UNL     1      -1.917   1.110  24.753  0.00  0.00    +0.006 C 
ENDROOT
BRANCH  24  25
ATOM     25  C   UNL     1      -1.104   0.981  24.694  0.00  0.00    +0.000 C 
ATOM     26  C   UNL     1      -0.751   0.907  23.951  0.00  0.00    +0.000 C 
ATOM     27  C   UNL     1      -0.644   0.926  25.376  0.00  0.00    +0.000 C 
ENDBRANCH  24  25
BRANCH   8   7
ATOM      7  C   UNL     1      -1.688   2.517  24.838  0.00  0.00    +0.121 C 
BRANCH   7   6
ATOM      3  N   UNL     1      -1.755   4.678  25.144  0.00  0.00    -0.187 NA
ATOM      4  C   UNL     1      -1.480   3.927  24.939  0.00  0.00    +0.339 C 
ATOM      5  O   UNL     1      -0.721   3.837  24.628  0.00  0.00    -0.249 OA
ATOM      6  N   UNL     1      -1.964   3.268  25.044  0.00  0.00    -0.187 NA
BRANCH   3   2
ATOM      1  C   UNL     1      -1.603   6.093  25.020  0.00  0.00    +0.025 C 
ATOM      2  C   UNL     1      -1.271   5.337  25.039  0.00  0.00    +0.117 C 
ENDBRANCH   3   2
ENDBRANCH   7   6
ENDBRANCH   8   7
BRANCH  12  13
ATOM     13  C   UNL     1      -3.771  -0.042  24.786  0.00  0.00    +0.089 C 
BRANCH  13  14
ATOM     14  C   UNL     1      -3.584  -0.734  25.194  0.00  0.00    +0.226 C 
ATOM     15  O   UNL     1      -3.279  -0.692  25.959  0.00  0.00    -0.275 OA
ATOM     16  N   UNL     1      -3.701  -1.469  24.836  0.00  0.00    -0.277 N 
ATOM     17  C   UNL     1      -3.514  -2.160  25.245  0.00  0.00    +0.111 C 
ATOM     18  C   UNL     1      -3.632  -2.894  24.887  0.00  0.00    +0.094 C 
ATOM     19  N   UNL     1      -3.936  -2.936  24.122  0.00  0.00    -0.269 NA
ATOM     20  C   UNL     1      -4.054  -3.671  23.765  0.00  0.00    +0.090 C 
ATOM     21  C   UNL     1      -4.123  -2.244  23.714  0.00  0.00    +0.094 C 
ATOM     22  C   UNL     1      -4.006  -1.511  24.071  0.00  0.00    +0.111 C 
ENDBRANCH  13  14
ENDBRANCH  12  13
TORSDOF 6
ENDMDL
MODEL 3
REMARK VINA RESULT:      -8.3      2.581      4.547
REMARK  Name = 
REMARK  6 active torsions:
REMARK  status: ('A' for Active; 'I' for Inactive)
REMARK    1  A    between atoms: C_2  and  N_3
REMARK    2  A    between atoms: N_6  and  C_7
REMARK    3  A    between atoms: C_7  and  C_8
REMARK    4  A    between atoms: C_12  and  C_13
REMARK    5  A    between atoms: C_13  and  C_14
REMARK    6  A    between atoms: C_24  and  C_25
REMARK                            x       y       z     vdW  Elec       q    Type
REMARK                         _______ _______ _______ _____ _____    ______ ____
ROOT
ATOM      8  C   UNL     1      -3.264   2.337  25.034  0.00  0.00    +0.043 C 
ATOM      9  C   UNL     1      -2.564   1.899  25.036  0.00  0.00    -0.033 C 
ATOM     10  C   UNL     1      -2.594   1.075  25.020  0.00  0.00    -0.048 C 
ATOM     11  C   UNL     1      -1.895   0.636  25.022  0.00  0.00    +0.026 C 
ATOM     12  C   UNL     1      -3.322   0.689  25.002  0.00  0.00    +0.027 C 
ATOM     23  C   UNL     1      -4.022   1.127  25.001  0.00  0.00    +0.005 C 
ATOM     24  C   UNL     1      -3.992   1.952  25.017  0.00  0.00    +0.006 C 
ENDROOT
BRANCH  24  25
ATOM     25  C   UNL     1      -4.691   2.389  25.015  0.00  0.00    +0.000 C 
ATOM     26  C   UNL     1      -4.983   2.696  24.306  0.00  0.00    +0.000 C 
ATOM     27  C   UNL     1      -5.098   2.520  25.720  0.00  0.00    +0.000 C 
ENDBRANCH  24  25
BRANCH   8   7
ATOM      7  C   UNL     1      -3.233   3.162  25.050  0.00  0.00    +0.121 C 
BRANCH   7   6
ATOM      3  N   UNL     1      -1.664   4.654  24.771  0.00  0.00    -0.187 NA
ATOM      4  C   UNL     1      -2.319   4.259  25.082  0.00  0.00    +0.339 C 
ATOM      5  O   UNL     1      -2.714   4.569  25.737  0.00  0.00    -0.249 OA
ATOM      6  N   UNL     1      -2.578   3.556  24.739  0.00  0.00    -0.187 NA
BRANCH   3   2
ATOM      1  C   UNL     1      -0.738   5.741  24.816  0.00  0.00    +0.025 C 
ATOM      2  C   UNL     1      -1.405   5.357  25.114  0.00  0.00    +0.117 C 
ENDBRANCH   3   2
ENDBRANCH   7   6
ENDBRANCH   8   7
BRANCH  12  13
ATOM     13  C   UNL     1      -3.352  -0.136  24.986  0.00  0.00    +0.089 C 
BRANCH  13  14
ATOM     14  C   UNL     1      -3.705  -0.523  24.349  0.00  0.00    +0.226 C 
ATOM     15  O   UNL     1      -4.019  -0.087  23.724  0.00  0.00    -0.275 OA
ATOM     16  N   UNL     1      -3.744  -1.347  24.338  0.00  0.00    -0.277 N 
ATOM     17  C   UNL     1      -4.097  -1.734  23.700  0.00  0.00    +0.111 C 
ATOM     18  C   UNL     1      -4.135  -2.558  23.689  0.00  0.00    +0.094 C 
ATOM     19  N   UNL     1      -3.821  -2.995  24.315  0.00  0.00    -0.269 NA
ATOM     20  C   UNL     1      -3.860  -3.819  24.303  0.00  0.00    +0.090 C 
ATOM     21  C   UNL     1      -3.469  -2.607  24.952  0.00  0.00    +0.094 C 
ATOM     22  C   UNL     1      -3.430  -1.784  24.963  0.00  0.00    +0.111 C 
ENDBRANCH  13  14
ENDBRANCH  12  13
TORSDOF 6
ENDMDL
MODEL 4
REMARK VINA RESULT:      -7.8      0.937      5.680
REMARK  Name = 
REMARK  6 active torsions:
REMARK  status: ('A' for Active; 'I' for Inactive)
REMARK    1  A    between atoms: C_2  and  N_3
REMARK    2  A    between atoms: N_6  and  C_7
REMARK    3  A    between atoms: C_7  and  C_8
REMARK    4  A    between atoms: C_12  and  C_13
REMARK    5  A    between atoms: C_13  and  C_14
REMARK    6  A    between atoms: C_24  and  C_25
REMARK                            x       y       z     vdW  Elec       q    Type
REMARK                         _______ _______ _______ _____ _____    ______ ____
ROOT
ATOM      8  C   UNL     1      -2.917   1.312  24.256  0.00  0.00    +0.043 C 
ATOM      9  C   UNL     1      -2.703   0.692  24.758  0.00  0.00    -0.033 C 
ATOM     10  C   UNL     1      -1.954   0.352  24.697  0.00  0.00    -0.048 C 
ATOM     11  C   UNL     1      -1.741  -0.268  25.199  0.00  0.00    +0.026 C 
ATOM     12  C   UNL     1      -1.419   0.631  24.136  0.00  0.00    +0.027 C 
ATOM     23  C   UNL     1      -1.631   1.250  23.635  0.00  0.00    +0.005 C 
ATOM     24  C   UNL     1      -2.381   1.591  23.695  0.00  0.00    +0.006 C 
ENDROOT
BRANCH  24  25
ATOM     25  C   UNL     1      -2.594   2.210  23.193  0.00  0.00    +0.000 C 
ATOM     26  C   UNL     1      -2.845   2.049  22.423  0.00  0.00    +0.000 C 
ATOM     27  C   UNL     1      -2.557   2.989  23.460  0.00  0.00    +0.000 C 
ENDBRANCH  24  25
BRANCH   8   7
ATOM      7  C   UNL     1      -3.666   1.651  24.316  0.00  0.00    +0.121 C 
BRANCH   7   6
ATOM      3  N   UNL     1      -5.389   1.616  25.657  0.00  0.00    -0.187 NA
ATOM      4  C   UNL     1      -4.903   1.801  25.016  0.00  0.00    +0.339 C 
ATOM      5  O   UNL     1      -5.169   2.321  24.433  0.00  0.00    -0.249 OA
ATOM      6  N   UNL     1      -4.152   1.466  24.958  0.00  0.00    -0.187 NA
BRANCH   3   2
ATOM      1  C   UNL     1      -6.554   1.916  26.429  0.00  0.00    +0.025 C 
ATOM      2  C   UNL     1      -6.140   1.951  25.715  0.00  0.00    +0.117 C 
ENDBRANCH   3   2
ENDBRANCH   7   6
ENDBRANCH   8   7
BRANCH  12  13
ATOM     13  C   UNL     1      -0.669   0.291  24.076  0.00  0.00    +0.089 C 
BRANCH  13  14
ATOM     14  C   UNL     1       0.003   0.768  24.106  0.00  0.00    +0.226 C 
ATOM     15  O   UNL     1       0.014   1.435  24.590  0.00  0.00    -0.275 OA
ATOM     16  N   UNL     1       0.665   0.577  23.651  0.00  0.00    -0.277 N 
ATOM     17  C   UNL     1       1.337   1.054  23.681  0.00  0.00    +0.111 C 
ATOM     18  C   UNL     1       1.998   0.862  23.227  0.00  0.00    +0.094 C 
ATOM     19  N   UNL     1       1.987   0.194  22.742  0.00  0.00    -0.269 NA
ATOM     20  C   UNL     1       2.649   0.004  22.288  0.00  0.00    +0.090 C 
ATOM     21  C   UNL     1       1.315  -0.282  22.713  0.00  0.00    +0.094 C 
ATOM     22  C   UNL     1       0.654  -0.091  23.167  0.00  0.00    +0.111 C 
ENDBRANCH  13  14
ENDBRANCH  12  13
TORSDOF 6
ENDMDL
MODEL 5
REMARK VINA RESULT:      -7.6      1.184      5.670
REMARK  Name = 
REMARK  6 active torsions:
REMARK  status: ('A' for Active; 'I' for Inactive)
REMARK    1  A    between atoms: C_2  and  N_3
REMARK    2  A    between atoms: N_6  and  C_7
REMARK    3  A    between atoms: C_7  and  C_8
REMARK    4  A    between atoms: C_12  and  C_13
REMARK    5  A    between atoms: C_13  and  C_14
REMARK    6  A    between atoms: C_24  and  C_25
REMARK                            x       y       z     vdW  Elec       q    Type
REMARK                         _______ _______ _______ _____ _____    ______ ____
ROOT
ATOM      8  C   UNL     1      -2.138   0.486  24.581  0.00  0.00    +0.043 C 
ATOM      9  C   UNL     1      -1.940   1.170  24.163  0.00  0.00    -0.033 C 
ATOM     10  C   UNL     1      -1.167   1.284  23.901  0.00  0.00    -0.048 C 
ATOM     11  C   UNL     1      -0.969   1.968  23.484  0.00  0.00    +0.026 C 
ATOM     12  C   UNL     1      -0.591   0.714  24.055  0.00  0.00    +0.027 C 
ATOM     23  C   UNL     1      -0.788   0.030  24.472  0.00  0.00    +0.005 C 
ATOM     24  C   UNL     1      -1.563  -0.083  24.735  0.00  0.00    +0.006 C 
ENDROOT
BRANCH  24  25
ATOM     25  C   UNL     1      -1.760  -0.767  25.152  0.00  0.00    +0.000 C 
ATOM     26  C   UNL     1      -1.635  -0.803  25.967  0.00  0.00    +0.000 C 
ATOM     27  C   UNL     1      -2.082  -1.415  24.755  0.00  0.00    +0.000 C 
ENDBRANCH  24  25
BRANCH   8   7
ATOM      7  C   UNL     1      -2.912   0.373  24.843  0.00  0.00    +0.121 C 
BRANCH   7   6
ATOM      3  N   UNL     1      -4.726   1.565  25.078  0.00  0.00    -0.187 NA
ATOM      4  C   UNL     1      -4.228   0.915  24.973  0.00  0.00    +0.339 C 
ATOM      5  O   UNL     1      -4.547   0.159  24.892  0.00  0.00    -0.249 OA
ATOM      6  N   UNL     1      -3.411   1.023  24.948  0.00  0.00    -0.187 NA
BRANCH   3   2
ATOM      1  C   UNL     1      -6.038   2.092  25.288  0.00  0.00    +0.025 C 
ATOM      2  C   UNL     1      -5.544   1.457  25.102  0.00  0.00    +0.117 C 
ENDBRANCH   3   2
ENDBRANCH   7   6
ENDBRANCH   8   7
BRANCH  12  13
ATOM     13  C   UNL     1       0.183   0.828  23.792  0.00  0.00    +0.089 C 
BRANCH  13  14
ATOM     14  C   UNL     1       0.516   0.301  23.251  0.00  0.00    +0.226 C 
ATOM     15  O   UNL     1       0.048  -0.279  22.900  0.00  0.00    -0.275 OA
ATOM     16  N   UNL     1       1.317   0.357  23.062  0.00  0.00    -0.277 N 
ATOM     17  C   UNL     1       1.650  -0.170  22.521  0.00  0.00    +0.111 C 
ATOM     18  C   UNL     1       2.451  -0.114  22.331  0.00  0.00    +0.094 C 
ATOM     19  N   UNL     1       2.919   0.468  22.683  0.00  0.00    -0.269 NA
ATOM     20  C   UNL     1       3.720   0.522  22.493  0.00  0.00    +0.090 C 
ATOM     21  C   UNL     1       2.586   0.993  23.224  0.00  0.00    +0.094 C 
ATOM     22  C   UNL     1       1.785   0.938  23.413  0.00  0.00    +0.111 C 
ENDBRANCH  13  14
ENDBRANCH  12  13
TORSDOF 6
ENDMDL
MODEL 6
REMARK VINA RESULT:      -7.4      2.727      4.154
REMARK  Name = 
REMARK  6 active torsions:
REMARK  status: ('A' for Active; 'I' for Inactive)
REMARK    1  A    between atoms: C_2  and  N_3
REMARK    2  A    between atoms: N_6  and  C_7
REMARK    3  A    between atoms: C_7  and  C_8
REMARK    4  A    between atoms: C_12  and  C_13
REMARK    5  A    between atoms: C_13  and  C_14
REMARK    6  A    between atoms: C_24  and  C_25
REMARK                            x       y       z     vdW  Elec       q    Type
REMARK                         _______ _______ _______ _____ _____    ______ ____
ROOT
ATOM      8  C   UNL     1      -3.100   0.504  24.748  0.00  0.00    +0.043 C 
ATOM      9  C   UNL     1      -2.332   0.348  25.007  0.00  0.00    -0.033 C 
ATOM     10  C   UNL     1      -1.831   0.971  25.210  0.00  0.00    -0.048 C 
ATOM     11  C   UNL     1      -1.062   0.814  25.468  0.00  0.00    +0.026 C 
ATOM     12  C   UNL     1      -2.096   1.749  25.154  0.00  0.00    +0.027 C 
ATOM     23  C   UNL     1      -2.864   1.906  24.896  0.00  0.00    +0.005 C 
ATOM     24  C   UNL     1      -3.366   1.282  24.693  0.00  0.00    +0.006 C 
ENDROOT
BRANCH  24  25
ATOM     25  C   UNL     1      -4.134   1.439  24.435  0.00  0.00    +0.000 C 
ATOM     26  C   UNL     1      -4.769   1.356  24.956  0.00  0.00    +0.000 C 
ATOM     27  C   UNL     1      -4.267   1.679  23.657  0.00  0.00    +0.000 C 
ENDBRANCH  24  25
BRANCH   8   7
ATOM      7  C   UNL     1      -3.601  -0.119  24.546  0.00  0.00    +0.121 C 
BRANCH   7   6
ATOM      3  N   UNL     1      -3.556  -2.301  24.574  0.00  0.00    -0.187 NA
ATOM      4  C   UNL     1      -3.755  -1.528  24.365  0.00  0.00    +0.339 C 
ATOM      5  O   UNL     1      -4.304  -1.391  23.765  0.00  0.00    -0.249 OA
ATOM      6  N   UNL     1      -3.403  -0.892  24.755  0.00  0.00    -0.187 NA
BRANCH   3   2
ATOM      1  C   UNL     1      -3.567  -3.688  24.228  0.00  0.00    +0.025 C 
ATOM      2  C   UNL     1      -3.908  -2.937  24.183  0.00  0.00    +0.117 C 
ENDBRANCH   3   2
ENDBRANCH   7   6
ENDBRANCH   8   7
BRANCH  12  13
ATOM     13  C   UNL     1      -1.594   2.372  25.358  0.00  0.00    +0.089 C 
BRANCH  13  14
ATOM     14  C   UNL     1      -1.912   3.093  25.604  0.00  0.00    +0.226 C 
ATOM     15  O   UNL     1      -2.558   3.105  26.116  0.00  0.00    -0.275 OA
ATOM     16  N   UNL     1      -1.581   3.801  25.339  0.00  0.00    -0.277 N 
ATOM     17  C   UNL     1      -1.898   4.521  25.585  0.00  0.00    +0.111 C 
ATOM     18  C   UNL     1      -1.568   5.229  25.320  0.00  0.00    +0.094 C 
ATOM     19  N   UNL     1      -0.921   5.216  24.808  0.00  0.00    -0.269 NA
ATOM     20  C   UNL     1      -0.591   5.924  24.543  0.00  0.00    +0.090 C 
ATOM     21  C   UNL     1      -0.604   4.496  24.562  0.00  0.00    +0.094 C 
ATOM     22  C   UNL     1      -0.934   3.788  24.827  0.00  0.00    +0.111 C 
ENDBRANCH  13  14
ENDBRANCH  12  13
TORSDOF 6
ENDMDL
