MODEL 1
REMARK VINA RESULT:      -8.5      0.000      0.000
REMARK  Name = 
REMARK  7 active torsions:
REMARK  status: ('A' for Active; 'I' for Inactive)
REMARK    1  A    between atoms: O_2  and  C_3
REMARK    2  A    between atoms: C_6  and  N_7
REMARK    3  A    between atoms: N_10  and  C_11
REMARK    4  A    between atoms: C_15  and  N_19
REMARK    5  A    between atoms: C_23  and  O_24
REMARK    6  A    between atoms: O_24  and  C_25
REMARK    7  A    between atoms: C_28  and  N_31
REMARK                            x       y       z     vdW  Elec       q    Type
REMARK                         _______ _______ _______ _____ _____    ______ ____
ROOT
ATOM     11  C   UNL     1       0.268   0.019  23.625  0.00  0.00    +0.156 C 
ATOM     12  C   UNL     1       0.275   0.541  24.264  0.00  0.00    +0.166 C 
ATOM     13  O   UNL     1      -0.363   0.353  24.752  0.00  0.00    -0.350 OA
ATOM     14  C   UNL     1      -0.765  -0.283  24.415  0.00  0.00    +0.169 C 
ATOM     15  C   UNL     1      -1.407  -0.792  24.507  0.00  0.00    +0.170 C 
ATOM     16  C   UNL     1      -1.414  -1.314  23.868  0.00  0.00    +0.169 C 
ATOM     17  O   UNL     1      -0.775  -1.126  23.380  0.00  0.00    -0.350 OA
ATOM     18  C   UNL     1      -0.374  -0.489  23.718  0.00  0.00    +0.167 C 
ENDROOT
BRANCH  15  19
ATOM     19  N   UNL     1      -1.948  -0.782  25.130  0.00  0.00    -0.180 N 
ATOM     20  N   UNL     1      -1.876  -1.193  25.842  0.00  0.00    -0.040 NA
ATOM     21  N   UNL     1      -2.540  -1.024  26.302  0.00  0.00    -0.020 NA
ATOM     22  N   UNL     1      -3.021  -0.509  25.875  0.00  0.00    -0.071 NA
ATOM     23  C   UNL     1      -2.656  -0.359  25.151  0.00  0.00    +0.343 A 
BRANCH  23  24
ATOM     24  O   UNL     1      -2.947   0.128  24.552  0.00  0.00    -0.421 OA
BRANCH  24  25
ATOM     25  C   UNL     1      -3.463   0.745  24.736  0.00  0.00    +0.149 A 
ATOM     26  C   UNL     1      -3.167   1.499  24.889  0.00  0.00    +0.039 A 
ATOM     27  C   UNL     1      -3.682   2.116  25.073  0.00  0.00    +0.022 A 
ATOM     28  C   UNL     1      -4.496   1.978  25.105  0.00  0.00    +0.085 A 
ATOM     29  C   UNL     1      -4.793   1.223  24.953  0.00  0.00    +0.022 A 
ATOM     30  C   UNL     1      -4.276   0.607  24.768  0.00  0.00    +0.039 A 
BRANCH  28  31
ATOM     31  N   UNL     1      -5.012   2.594  25.290  0.00  0.00    -0.208 N 
ATOM     32  C   UNL     1      -5.710   2.527  25.725  0.00  0.00    +0.202 A 
ATOM     33  N   UNL     1      -6.052   3.277  25.776  0.00  0.00    -0.200 NA
ATOM     34  C   UNL     1      -5.565   3.806  25.373  0.00  0.00    +0.221 A 
ATOM     35  N   UNL     1      -4.922   3.384  25.073  0.00  0.00    -0.141 NA
ENDBRANCH  28  31
ENDBRANCH  24  25
ENDBRANCH  23  24
ENDBRANCH  15  19
BRANCH  11  10
ATOM      7  N   UNL     1       2.156   0.090  22.532  0.00  0.00    -0.161 NA
ATOM      8  C   UNL     1       1.615   0.100  23.154  0.00  0.00    +0.344 C 
ATOM      9  O   UNL     1       1.879   0.202  23.929  0.00  0.00    -0.249 OA
ATOM     10  N   UNL     1       0.809   0.009  23.002  0.00  0.00    -0.184 NA
BRANCH   7   6
ATOM      3  C   UNL     1       4.573   0.365  22.986  0.00  0.00    +0.139 A 
ATOM      4  C   UNL     1       4.128   1.006  22.718  0.00  0.00    +0.038 A 
ATOM      5  C   UNL     1       3.323   0.914  22.567  0.00  0.00    +0.020 A 
ATOM      6  C   UNL     1       2.962   0.181  22.683  0.00  0.00    +0.075 A 
ATOM     36  C   UNL     1       3.407  -0.459  22.950  0.00  0.00    +0.020 A 
ATOM     37  C   UNL     1       4.213  -0.368  23.102  0.00  0.00    +0.038 A 
BRANCH   3   2
ATOM      1  C   UNL     1       5.713   0.122  23.813  0.00  0.00    +0.252 C 
ATOM      2  O   UNL     1       5.379   0.457  23.137  0.00  0.00    -0.471 OA
ENDBRANCH   3   2
ENDBRANCH   7   6
ENDBRANCH  11  10
TORSDOF 7
ENDMDL
MODEL 2
REMARK VINA RESULT:      -7.4      1.794      2.217
REMARK  Name = 
REMARK  7 active torsions:
REMARK  status: ('A' for Active; 'I' for Inactive)
REMARK    1  A    between atoms: O_2  and  C_3
REMARK    2  A    between atoms: C_6  and  N_7
REMARK    3  A    between atoms: N_10  and  C_11
REMARK    4  A    between atoms: C_15  and  N_19
REMARK    5  A    between atoms: C_23  and  O_24
REMARK    6  A    between atoms: O_24  and  C_25
REMARK    7  A    between atoms: C_28  and  N_31
REMARK                            x       y       z     vdW  Elec       q    Type
REMARK                         _______ _______ _______ _____ _____    ______ ____
ROOT
ATOM     11  C   UNL     1       0.422   1.120  23.827  0.00  0.00    +0.156 C 
ATOM     12  C   UNL     1       0.215   0.711  24.512  0.00  0.00    +0.166 C 
ATOM     13  O   UNL     1      -0.247   1.212  24.977  0.00  0.00    -0.350 OA
ATOM     14  C   UNL     1      -0.326   1.929  24.580  0.00  0.00    +0.169 C 
ATOM     15  C   UNL     1      -0.660   2.683  24.620  0.00  0.00    +0.170 C 
ATOM     16  C   UNL     1      -0.453   3.091  23.934  0.00  0.00    +0.169 C 
ATOM     17  O   UNL     1       0.009   2.591  23.469  0.00  0.00    -0.350 OA
ATOM     18  C   UNL     1       0.088   1.873  23.868  0.00  0.00    +0.167 C 
ENDROOT
BRANCH  15  19
ATOM     19  N   UNL     1      -1.120   2.976  25.239  0.00  0.00    -0.180 N 
ATOM     20  N   UNL     1      -0.844   3.215  25.979  0.00  0.00    -0.040 NA
ATOM     21  N   UNL     1      -1.490   3.468  26.424  0.00  0.00    -0.020 NA
ATOM     22  N   UNL     1      -2.167   3.385  25.960  0.00  0.00    -0.071 NA
ATOM     23  C   UNL     1      -1.938   3.081  25.228  0.00  0.00    +0.343 A 
BRANCH  23  24
ATOM     24  O   UNL     1      -2.440   2.911  24.595  0.00  0.00    -0.421 OA
BRANCH  24  25
ATOM     25  C   UNL     1      -3.228   2.709  24.735  0.00  0.00    +0.149 A 
ATOM     26  C   UNL     1      -3.800   3.300  24.798  0.00  0.00    +0.039 A 
ATOM     27  C   UNL     1      -4.587   3.098  24.938  0.00  0.00    +0.022 A 
ATOM     28  C   UNL     1      -4.802   2.305  25.016  0.00  0.00    +0.085 A 
ATOM     29  C   UNL     1      -4.230   1.714  24.954  0.00  0.00    +0.022 A 
ATOM     30  C   UNL     1      -3.442   1.917  24.813  0.00  0.00    +0.039 A 
BRANCH  28  31
ATOM     31  N   UNL     1      -5.590   2.102  25.157  0.00  0.00    -0.208 N 
ATOM     32  C   UNL     1      -5.980   2.151  25.882  0.00  0.00    +0.202 A 
ATOM     33  N   UNL     1      -6.757   1.894  25.771  0.00  0.00    -0.200 NA
ATOM     34  C   UNL     1      -6.845   1.687  24.978  0.00  0.00    +0.221 A 
ATOM     35  N   UNL     1      -6.124   1.816  24.598  0.00  0.00    -0.141 NA
ENDBRANCH  28  31
ENDBRANCH  24  25
ENDBRANCH  23  24
ENDBRANCH  15  19
BRANCH  11  10
ATOM      7  N   UNL     1       2.157   0.442  22.688  0.00  0.00    -0.161 NA
ATOM      8  C   UNL     1       1.696   0.735  23.306  0.00  0.00    +0.344 C 
ATOM      9  O   UNL     1       2.049   0.936  24.025  0.00  0.00    -0.249 OA
ATOM     10  N   UNL     1       0.882   0.827  23.207  0.00  0.00    -0.184 NA
BRANCH   7   6
ATOM      3  C   UNL     1       4.598   0.166  22.984  0.00  0.00    +0.139 A 
ATOM      4  C   UNL     1       4.292   0.891  22.736  0.00  0.00    +0.038 A 
ATOM      5  C   UNL     1       3.478   0.982  22.638  0.00  0.00    +0.020 A 
ATOM      6  C   UNL     1       2.971   0.350  22.787  0.00  0.00    +0.075 A 
ATOM     36  C   UNL     1       3.277  -0.375  23.034  0.00  0.00    +0.020 A 
ATOM     37  C   UNL     1       4.091  -0.467  23.133  0.00  0.00    +0.038 A 
BRANCH   3   2
ATOM      1  C   UNL     1       5.737   0.059  23.841  0.00  0.00    +0.252 C 
ATOM      2  O   UNL     1       5.412   0.074  23.082  0.00  0.00    -0.471 OA
ENDBRANCH   3   2
ENDBRANCH   7   6
ENDBRANCH  11  10
TORSDOF 7
ENDMDL
MODEL 3
REMARK VINA RESULT:      -6.7      2.903      4.736
REMARK  Name = 
REMARK  7 active torsions:
REMARK  status: ('A' for Active; 'I' for Inactive)
REMARK    1  A    between atoms: O_2  and  C_3
REMARK    2  A    between atoms: C_6  and  N_7
REMARK    3  A    between atoms: N_10  and  C_11
REMARK    4  A    between atoms: C_15  and  N_19
REMARK    5  A    between atoms: C_23  and  O_24
REMARK    6  A    between atoms: O_24  and  C_25
REMARK    7  A    between atoms: C_28  and  N_31
REMARK                            x       y       z     vdW  Elec       q    Type
REMARK                         _______ _______ _______ _____ _____    ______ ____
ROOT
ATOM     11  C   UNL     1      -0.581   0.987  24.457  0.00  0.00    +0.156 C 
ATOM     12  C   UNL     1      -0.921   1.295  23.772  0.00  0.00    +0.166 C 
ATOM     13  O   UNL     1      -0.956   2.115  23.851  0.00  0.00    -0.350 OA
ATOM     14  C   UNL     1      -0.638   2.314  24.585  0.00  0.00    +0.169 C 
ATOM     15  C   UNL     1      -0.462   2.944  25.088  0.00  0.00    +0.170 C 
ATOM     16  C   UNL     1      -0.122   2.637  25.774  0.00  0.00    +0.169 C 
ATOM     17  O   UNL     1      -0.088   1.817  25.694  0.00  0.00    -0.350 OA
ATOM     18  C   UNL     1      -0.406   1.617  24.960  0.00  0.00    +0.167 C 
ENDROOT
BRANCH  15  19
ATOM     19  N   UNL     1      -0.603   3.742  24.932  0.00  0.00    -0.180 N 
ATOM     20  N   UNL     1      -0.244   4.192  24.340  0.00  0.00    -0.040 NA
ATOM     21  N   UNL     1      -0.546   4.958  24.383  0.00  0.00    -0.020 NA
ATOM     22  N   UNL     1      -1.091   4.983  25.002  0.00  0.00    -0.071 NA
ATOM     23  C   UNL     1      -1.126   4.231  25.341  0.00  0.00    +0.343 A 
BRANCH  23  24
ATOM     24  O   UNL     1      -1.601   4.009  25.978  0.00  0.00    -0.421 OA
BRANCH  24  25
ATOM     25  C   UNL     1      -2.420   3.964  25.886  0.00  0.00    +0.149 A 
ATOM     26  C   UNL     1      -2.776   4.267  25.207  0.00  0.00    +0.039 A 
ATOM     27  C   UNL     1      -3.594   4.223  25.115  0.00  0.00    +0.022 A 
ATOM     28  C   UNL     1      -4.057   3.874  25.702  0.00  0.00    +0.085 A 
ATOM     29  C   UNL     1      -3.701   3.570  26.382  0.00  0.00    +0.022 A 
ATOM     30  C   UNL     1      -2.882   3.615  26.473  0.00  0.00    +0.039 A 
BRANCH  28  31
ATOM     31  N   UNL     1      -4.876   3.829  25.611  0.00  0.00    -0.208 N 
ATOM     32  C   UNL     1      -5.309   3.144  25.458  0.00  0.00    +0.202 A 
ATOM     33  N   UNL     1      -6.106   3.351  25.409  0.00  0.00    -0.200 NA
ATOM     34  C   UNL     1      -6.165   4.165  25.532  0.00  0.00    +0.221 A 
ATOM     35  N   UNL     1      -5.405   4.460  25.656  0.00  0.00    -0.141 NA
ENDBRANCH  28  31
ENDBRANCH  24  25
ENDBRANCH  23  24
ENDBRANCH  15  19
BRANCH  11  10
ATOM      7  N   UNL     1      -0.924  -1.149  24.745  0.00  0.00    -0.161 NA
ATOM      8  C   UNL     1      -1.064  -0.352  24.590  0.00  0.00    +0.344 C 
ATOM      9  O   UNL     1      -1.827  -0.094  24.411  0.00  0.00    -0.249 OA
ATOM     10  N   UNL     1      -0.441   0.189  24.613  0.00  0.00    -0.184 NA
BRANCH   7   6
ATOM      3  C   UNL     1      -2.792  -2.772  24.676  0.00  0.00    +0.139 A 
ATOM      4  C   UNL     1      -2.776  -2.185  25.257  0.00  0.00    +0.038 A 
ATOM      5  C   UNL     1      -2.153  -1.645  25.279  0.00  0.00    +0.020 A 
ATOM      6  C   UNL     1      -1.546  -1.690  24.722  0.00  0.00    +0.075 A 
ATOM     36  C   UNL     1      -1.563  -2.276  24.142  0.00  0.00    +0.020 A 
ATOM     37  C   UNL     1      -2.185  -2.817  24.119  0.00  0.00    +0.038 A 
BRANCH   3   2
ATOM      1  C   UNL     1      -4.063  -3.174  24.161  0.00  0.00    +0.252 C 
ATOM      2  O   UNL     1      -3.415  -3.312  24.654  0.00  0.00    -0.471 OA
ENDBRANCH   3   2
ENDBRANCH   7   6
ENDBRANCH  11  10
TORSDOF 7
ENDMDL
MODEL 4
REMARK VINA RESULT:      -6.6      1.587      7.079
REMARK  Name = 
REMARK  7 active torsions:
REMARK  status: ('A' for Active; 'I' for Inactive)
REMARK    1  A    between atoms: O_2  and  C_3
REMARK    2  A    between atoms: C_6  and  N_7
REMARK    3  A    between atoms: N_10  and  C_11
REMARK    4  A    between atoms: C_15  and  N_19
REMARK    5  A    between atoms: C_23  and  O_24
REMARK    6  A    between atoms: O_24  and  C_25
REMARK    7  A    between atoms: C_28  and  N_31
REMARK                            x       y       z     vdW  Elec       q    Type
REMARK                         _______ _______ _______ _____ _____    ______ ____
ROOT
ATOM     11  C   UNL     1      -3.433  -0.065  25.079  0.00  0.00    +0.156 C 
ATOM     12  C   UNL     1      -2.995   0.117  25.754  0.00  0.00    +0.166 C 
ATOM     13  O   UNL     1      -2.264  -0.259  25.692  0.00  0.00    -0.350 OA
ATOM     14  C   UNL     1      -2.249  -0.673  24.979  0.00  0.00    +0.169 C 
ATOM     15  C   UNL     1      -1.788  -1.161  24.500  0.00  0.00    +0.170 C 
ATOM     16  C   UNL     1      -2.226  -1.343  23.824  0.00  0.00    +0.169 C 
ATOM     17  O   UNL     1      -2.957  -0.967  23.887  0.00  0.00    -0.350 OA
ATOM     18  C   UNL     1      -2.972  -0.553  24.600  0.00  0.00    +0.167 C 
ENDROOT
BRANCH  15  19
ATOM     19  N   UNL     1      -1.023  -1.422  24.667  0.00  0.00    -0.180 N 
ATOM     20  N   UNL     1      -0.819  -2.018  25.200  0.00  0.00    -0.040 NA
ATOM     21  N   UNL     1       0.002  -2.097  25.192  0.00  0.00    -0.020 NA
ATOM     22  N   UNL     1       0.305  -1.550  24.654  0.00  0.00    -0.071 NA
ATOM     23  C   UNL     1      -0.328  -1.134  24.329  0.00  0.00    +0.343 A 
BRANCH  23  24
ATOM     24  O   UNL     1      -0.276  -0.533  23.765  0.00  0.00    -0.421 OA
BRANCH  24  25
ATOM     25  C   UNL     1       0.464  -0.276  23.504  0.00  0.00    +0.149 A 
ATOM     26  C   UNL     1       0.863  -0.696  22.918  0.00  0.00    +0.039 A 
ATOM     27  C   UNL     1       1.602  -0.439  22.657  0.00  0.00    +0.022 A 
ATOM     28  C   UNL     1       1.942   0.239  22.983  0.00  0.00    +0.085 A 
ATOM     29  C   UNL     1       1.543   0.659  23.571  0.00  0.00    +0.022 A 
ATOM     30  C   UNL     1       0.803   0.401  23.831  0.00  0.00    +0.039 A 
BRANCH  28  31
ATOM     31  N   UNL     1       2.681   0.497  22.723  0.00  0.00    -0.208 N 
ATOM     32  C   UNL     1       3.065   0.252  22.035  0.00  0.00    +0.202 A 
ATOM     33  N   UNL     1       3.788   0.648  21.990  0.00  0.00    -0.200 NA
ATOM     34  C   UNL     1       3.850   1.137  22.652  0.00  0.00    +0.221 A 
ATOM     35  N   UNL     1       3.167   1.043  23.104  0.00  0.00    -0.141 NA
ENDBRANCH  28  31
ENDBRANCH  24  25
ENDBRANCH  23  24
ENDBRANCH  15  19
BRANCH  11  10
ATOM      7  N   UNL     1      -5.193   1.220  24.957  0.00  0.00    -0.161 NA
ATOM      8  C   UNL     1      -4.429   0.959  25.123  0.00  0.00    +0.344 C 
ATOM      9  O   UNL     1      -3.894   1.461  25.502  0.00  0.00    -0.249 OA
ATOM     10  N   UNL     1      -4.198   0.196  24.912  0.00  0.00    -0.184 NA
BRANCH   7   6
ATOM      3  C   UNL     1      -5.888   3.509  25.591  0.00  0.00    +0.139 A 
ATOM      4  C   UNL     1      -6.194   2.858  25.996  0.00  0.00    +0.038 A 
ATOM      5  C   UNL     1      -5.962   2.095  25.784  0.00  0.00    +0.020 A 
ATOM      6  C   UNL     1      -5.425   1.983  25.168  0.00  0.00    +0.075 A 
ATOM     36  C   UNL     1      -5.119   2.634  24.764  0.00  0.00    +0.020 A 
ATOM     37  C   UNL     1      -5.350   3.397  24.976  0.00  0.00    +0.038 A 
BRANCH   3   2
ATOM      1  C   UNL     1      -5.810   4.923  25.401  0.00  0.00    +0.252 C 
ATOM      2  O   UNL     1      -6.119   4.272  25.803  0.00  0.00    -0.471 OA
ENDBRANCH   3   2
ENDBRANCH   7   6
ENDBRANCH  11  10
TORSDOF 7
ENDMDL
MODEL 5
REMARK VINA RESULT:      -6.1     16.407     17.520
REMARK  Name = 
REMARK  7 active torsions:
REMARK  status: ('A' for Active; 'I' for Inactive)
REMARK    1  A    between atoms: O_2  and  C_3
REMARK    2  A    between atoms: C_6  and  N_7
REMARK    3  A    between atoms: N_10  and  C_11
REMARK    4  A    between atoms: C_15  and  N_19
REMARK    5  A    between atoms: C_23  and  O_24
REMARK    6  A    between atoms: O_24  and  C_25
REMARK    7  A    between atoms: C_28  and  N_31
REMARK                            x       y       z     vdW  Elec       q    Type
REMARK                         _______ _______ _______ _____ _____    ______ ____
ROOT
ATOM     11  C   UNL     1      -6.423  -9.637  10.013  0.00  0.00    +0.156 C 
ATOM     12  C   UNL     1      -6.543  -8.848  10.224  0.00  0.00    +0.166 C 
ATOM     13  O   UNL     1      -7.326  -8.768  10.469  0.00  0.00    -0.350 OA
ATOM     14  C   UNL     1      -7.690  -9.505  10.410  0.00  0.00    +0.169 C 
ATOM     15  C   UNL     1      -8.399  -9.912  10.524  0.00  0.00    +0.170 C 
ATOM     16  C   UNL     1      -8.278 -10.700  10.313  0.00  0.00    +0.169 C 
ATOM     17  O   UNL     1      -7.495 -10.781  10.068  0.00  0.00    -0.350 OA
ATOM     18  C   UNL     1      -7.131 -10.042  10.128  0.00  0.00    +0.167 C 
ENDROOT
BRANCH  15  19
ATOM     19  N   UNL     1      -9.105  -9.586  10.801  0.00  0.00    -0.180 N 
ATOM     20  N   UNL     1      -9.616  -9.100  10.373  0.00  0.00    -0.040 NA
ATOM     21  N   UNL     1     -10.250  -8.903  10.862  0.00  0.00    -0.020 NA
ATOM     22  N   UNL     1     -10.132  -9.268  11.592  0.00  0.00    -0.071 NA
ATOM     23  C   UNL     1      -9.424  -9.690  11.554  0.00  0.00    +0.343 A 
BRANCH  23  24
ATOM     24  O   UNL     1      -9.093 -10.138  12.164  0.00  0.00    -0.421 OA
BRANCH  24  25
ATOM     25  C   UNL     1      -9.382 -10.064  12.933  0.00  0.00    +0.149 A 
ATOM     26  C   UNL     1     -10.046 -10.493  13.167  0.00  0.00    +0.039 A 
ATOM     27  C   UNL     1     -10.335 -10.420  13.936  0.00  0.00    +0.022 A 
ATOM     28  C   UNL     1      -9.959  -9.917  14.472  0.00  0.00    +0.085 A 
ATOM     29  C   UNL     1      -9.294  -9.487  14.238  0.00  0.00    +0.022 A 
ATOM     30  C   UNL     1      -9.006  -9.561  13.468  0.00  0.00    +0.039 A 
BRANCH  28  31
ATOM     31  N   UNL     1     -10.247  -9.843  15.241  0.00  0.00    -0.208 N 
ATOM     32  C   UNL     1     -10.384  -9.135  15.641  0.00  0.00    +0.202 A 
ATOM     33  N   UNL     1     -10.671  -9.317  16.393  0.00  0.00    -0.200 NA
ATOM     34  C   UNL     1     -10.711 -10.139  16.457  0.00  0.00    +0.221 A 
ATOM     35  N   UNL     1     -10.449 -10.463  15.745  0.00  0.00    -0.141 NA
ENDBRANCH  28  31
ENDBRANCH  24  25
ENDBRANCH  23  24
ENDBRANCH  15  19
BRANCH  11  10
ATOM      7  N   UNL     1      -4.308 -10.159   9.872  0.00  0.00    -0.161 NA
ATOM      8  C   UNL     1      -5.013  -9.835  10.149  0.00  0.00    +0.344 C 
ATOM      9  O   UNL     1      -5.017  -9.381  10.839  0.00  0.00    -0.249 OA
ATOM     10  N   UNL     1      -5.717  -9.962   9.736  0.00  0.00    -0.184 NA
BRANCH   7   6
ATOM      3  C   UNL     1      -2.199  -9.778  11.110  0.00  0.00    +0.139 A 
ATOM      4  C   UNL     1      -2.654 -10.449  11.266  0.00  0.00    +0.038 A 
ATOM      5  C   UNL     1      -3.357 -10.575  10.854  0.00  0.00    +0.020 A 
ATOM      6  C   UNL     1      -3.605 -10.032  10.284  0.00  0.00    +0.075 A 
ATOM     36  C   UNL     1      -3.150  -9.362  10.128  0.00  0.00    +0.020 A 
ATOM     37  C   UNL     1      -2.447  -9.235  10.541  0.00  0.00    +0.038 A 
BRANCH   3   2
ATOM      1  C   UNL     1      -0.963  -9.076  11.264  0.00  0.00    +0.252 C 
ATOM      2  O   UNL     1      -1.496  -9.652  11.523  0.00  0.00    -0.471 OA
ENDBRANCH   3   2
ENDBRANCH   7   6
ENDBRANCH  11  10
TORSDOF 7
ENDMDL
MODEL 6
REMARK VINA RESULT:      -6.0      1.608      7.672
REMARK  Name = 
REMARK  7 active torsions:
REMARK  status: ('A' for Active; 'I' for Inactive)
REMARK    1  A    between atoms: O_2  and  C_3
REMARK    2  A    between atoms: C_6  and  N_7
REMARK    3  A    between atoms: N_10  and  C_11
REMARK    4  A    between atoms: C_15  and  N_19
REMARK    5  A    between atoms: C_23  and  O_24
REMARK    6  A    between atoms: O_24  and  C_25
REMARK    7  A    between atoms: C_28  and  N_31
REMARK                            x       y       z     vdW  Elec       q    Type
REMARK                         _______ _______ _______ _____ _____    ______ ____
ROOT
ATOM     11  C   UNL     1      -1.047   1.050  24.070  0.00  0.00    +0.156 C 
ATOM     12  C   UNL     1      -0.970   1.559  23.425  0.00  0.00    +0.166 C 
ATOM     13  O   UNL     1      -0.401   1.244  22.919  0.00  0.00    -0.350 OA
ATOM     14  C   UNL     1      -0.125   0.541  23.251  0.00  0.00    +0.169 C 
ATOM     15  C   UNL     1       0.397  -0.089  23.144  0.00  0.00    +0.170 C 
ATOM     16  C   UNL     1       0.320  -0.597  23.788  0.00  0.00    +0.169 C 
ATOM     17  O   UNL     1      -0.250  -0.282  24.294  0.00  0.00    -0.350 OA
ATOM     18  C   UNL     1      -0.525   0.422  23.962  0.00  0.00    +0.167 C 
ENDROOT
BRANCH  15  19
ATOM     19  N   UNL     1       0.907  -0.191  22.503  0.00  0.00    -0.180 N 
ATOM     20  N   UNL     1       0.716  -0.546  21.783  0.00  0.00    -0.040 NA
ATOM     21  N   UNL     1       1.389  -0.531  21.305  0.00  0.00    -0.020 NA
ATOM     22  N   UNL     1       1.995  -0.168  21.730  0.00  0.00    -0.071 NA
ATOM     23  C   UNL     1       1.697   0.042  22.470  0.00  0.00    +0.343 A 
BRANCH  23  24
ATOM     24  O   UNL     1       2.117   0.420  23.072  0.00  0.00    -0.421 OA
BRANCH  24  25
ATOM     25  C   UNL     1       2.934   0.322  23.130  0.00  0.00    +0.149 A 
ATOM     26  C   UNL     1       3.440   0.930  22.898  0.00  0.00    +0.039 A 
ATOM     27  C   UNL     1       4.257   0.832  22.956  0.00  0.00    +0.022 A 
ATOM     28  C   UNL     1       4.568   0.125  23.246  0.00  0.00    +0.085 A 
ATOM     29  C   UNL     1       4.062  -0.485  23.477  0.00  0.00    +0.022 A 
ATOM     30  C   UNL     1       3.245  -0.385  23.419  0.00  0.00    +0.039 A 
BRANCH  28  31
ATOM     31  N   UNL     1       5.385   0.025  23.304  0.00  0.00    -0.208 N 
ATOM     32  C   UNL     1       5.848   0.199  23.964  0.00  0.00    +0.202 A 
ATOM     33  N   UNL     1       6.632   0.016  23.781  0.00  0.00    -0.200 NA
ATOM     34  C   UNL     1       6.652  -0.270  23.008  0.00  0.00    +0.221 A 
ATOM     35  N   UNL     1       5.882  -0.265  22.713  0.00  0.00    -0.141 NA
ENDBRANCH  28  31
ENDBRANCH  24  25
ENDBRANCH  23  24
ENDBRANCH  15  19
BRANCH  11  10
ATOM      7  N   UNL     1      -2.866   1.419  25.220  0.00  0.00    -0.161 NA
ATOM      8  C   UNL     1      -2.356   1.316  24.581  0.00  0.00    +0.344 C 
ATOM      9  O   UNL     1      -2.644   1.376  23.809  0.00  0.00    -0.249 OA
ATOM     10  N   UNL     1      -1.557   1.153  24.711  0.00  0.00    -0.184 NA
BRANCH   7   6
ATOM      3  C   UNL     1      -5.261   1.906  24.831  0.00  0.00    +0.139 A 
ATOM      4  C   UNL     1      -5.001   1.124  24.876  0.00  0.00    +0.038 A 
ATOM      5  C   UNL     1      -4.202   0.962  25.006  0.00  0.00    +0.020 A 
ATOM      6  C   UNL     1      -3.664   1.581  25.091  0.00  0.00    +0.075 A 
ATOM     36  C   UNL     1      -3.924   2.363  25.046  0.00  0.00    +0.020 A 
ATOM     37  C   UNL     1      -4.722   2.525  24.916  0.00  0.00    +0.038 A 
BRANCH   3   2
ATOM      1  C   UNL     1      -6.600   1.999  25.321  0.00  0.00    +0.252 C 
ATOM      2  O   UNL     1      -6.059   2.068  24.701  0.00  0.00    -0.471 OA
ENDBRANCH   3   2
ENDBRANCH   7   6
ENDBRANCH  11  10
TORSDOF 7
ENDMDL
MODEL 7
REMARK VINA RESULT:      -5.9     14.858     16.130
REMARK  Name = 
REMARK  7 active torsions:
REMARK  status: ('A' for Active; 'I' for Inactive)
REMARK    1  A    between atoms: O_2  and  C_3
REMARK    2  A    between atoms: C_6  and  N_7
REMARK    3  A    between atoms: N_10  and  C_11
REMARK    4  A    between atoms: C_15  and  N_19
REMARK    5  A    between atoms: C_23  and  O_24
REMARK    6  A    between atoms: O_24  and  C_25
REMARK    7  A    between atoms: C_28  and  N_31
REMARK                            x       y       z     vdW  Elec       q    Type
REMARK                         _______ _______ _______ _____ _____    ______ ____
ROOT
ATOM     11  C   UNL     1      -6.575  -9.619  11.838  0.00  0.00    +0.156 C 
ATOM     12  C   UNL     1      -6.619  -8.827  12.062  0.00  0.00    +0.166 C 
ATOM     13  O   UNL     1      -7.261  -8.742  12.572  0.00  0.00    -0.350 OA
ATOM     14  C   UNL     1      -7.615  -9.481  12.663  0.00  0.00    +0.169 C 
ATOM     15  C   UNL     1      -8.230  -9.887  13.034  0.00  0.00    +0.170 C 
ATOM     16  C   UNL     1      -8.186 -10.679  12.809  0.00  0.00    +0.169 C 
ATOM     17  O   UNL     1      -7.544 -10.764  12.299  0.00  0.00    -0.350 OA
ATOM     18  C   UNL     1      -7.190 -10.024  12.209  0.00  0.00    +0.167 C 
ENDROOT
BRANCH  15  19
ATOM     19  N   UNL     1      -8.791  -9.557  13.541  0.00  0.00    -0.180 N 
ATOM     20  N   UNL     1      -9.459  -9.128  13.314  0.00  0.00    -0.040 NA
ATOM     21  N   UNL     1      -9.863  -8.905  13.997  0.00  0.00    -0.020 NA
ATOM     22  N   UNL     1      -9.446  -9.195  14.646  0.00  0.00    -0.071 NA
ATOM     23  C   UNL     1      -8.784  -9.599  14.365  0.00  0.00    +0.343 A 
BRANCH  23  24
ATOM     24  O   UNL     1      -8.214  -9.977  14.826  0.00  0.00    -0.421 OA
BRANCH  24  25
ATOM     25  C   UNL     1      -8.332 -10.063  15.639  0.00  0.00    +0.149 A 
ATOM     26  C   UNL     1      -8.000  -9.521  16.164  0.00  0.00    +0.039 A 
ATOM     27  C   UNL     1      -8.118  -9.606  16.975  0.00  0.00    +0.022 A 
ATOM     28  C   UNL     1      -8.567 -10.236  17.262  0.00  0.00    +0.085 A 
ATOM     29  C   UNL     1      -8.899 -10.780  16.737  0.00  0.00    +0.022 A 
ATOM     30  C   UNL     1      -8.781 -10.693  15.925  0.00  0.00    +0.039 A 
BRANCH  28  31
ATOM     31  N   UNL     1      -8.686 -10.323  18.074  0.00  0.00    -0.208 N 
ATOM     32  C   UNL     1      -8.214 -10.765  18.587  0.00  0.00    +0.202 A 
ATOM     33  N   UNL     1      -8.532 -10.699  19.346  0.00  0.00    -0.200 NA
ATOM     34  C   UNL     1      -9.200 -10.218  19.301  0.00  0.00    +0.221 A 
ATOM     35  N   UNL     1      -9.295  -9.986  18.515  0.00  0.00    -0.141 NA
ENDBRANCH  28  31
ENDBRANCH  24  25
ENDBRANCH  23  24
ENDBRANCH  15  19
BRANCH  11  10
ATOM      7  N   UNL     1      -4.652 -10.248  11.018  0.00  0.00    -0.161 NA
ATOM      8  C   UNL     1      -5.213  -9.919  11.525  0.00  0.00    +0.344 C 
ATOM      9  O   UNL     1      -4.973  -9.558  12.228  0.00  0.00    -0.249 OA
ATOM     10  N   UNL     1      -6.014  -9.949  11.330  0.00  0.00    -0.184 NA
BRANCH   7   6
ATOM      3  C   UNL     1      -2.248 -10.157  11.602  0.00  0.00    +0.139 A 
ATOM      4  C   UNL     1      -2.517  -9.806  10.905  0.00  0.00    +0.038 A 
ATOM      5  C   UNL     1      -3.319  -9.837  10.711  0.00  0.00    +0.020 A 
ATOM      6  C   UNL     1      -3.851 -10.218  11.213  0.00  0.00    +0.075 A 
ATOM     36  C   UNL     1      -3.582 -10.568  11.909  0.00  0.00    +0.020 A 
ATOM     37  C   UNL     1      -2.780 -10.538  12.104  0.00  0.00    +0.038 A 
BRANCH   3   2
ATOM      1  C   UNL     1      -1.217  -9.958  12.570  0.00  0.00    +0.252 C 
ATOM      2  O   UNL     1      -1.447 -10.126  11.796  0.00  0.00    -0.471 OA
ENDBRANCH   3   2
ENDBRANCH   7   6
ENDBRANCH  11  10
TORSDOF 7
ENDMDL
MODEL 8
REMARK VINA RESULT:      -5.8      2.647      6.196
REMARK  Name = 
REMARK  7 active torsions:
REMARK  status: ('A' for Active; 'I' for Inactive)
REMARK    1  A    between atoms: O_2  and  C_3
REMARK    2  A    between atoms: C_6  and  N_7
REMARK    3  A    between atoms: N_10  and  C_11
REMARK    4  A    between atoms: C_15  and  N_19
REMARK    5  A    between atoms: C_23  and  O_24
REMARK    6  A    between atoms: O_24  and  C_25
REMARK    7  A    between atoms: C_28  and  N_31
REMARK                            x       y       z     vdW  Elec       q    Type
REMARK                         _______ _______ _______ _____ _____    ______ ____
ROOT
ATOM     11  C   UNL     1      -1.446   2.550  23.903  0.00  0.00    +0.156 C 
ATOM     12  C   UNL     1      -1.663   2.166  23.207  0.00  0.00    +0.166 C 
ATOM     13  O   UNL     1      -1.179   1.503  23.121  0.00  0.00    -0.350 OA
ATOM     14  C   UNL     1      -0.665   1.477  23.764  0.00  0.00    +0.169 C 
ATOM     15  C   UNL     1      -0.048   1.052  24.110  0.00  0.00    +0.170 C 
ATOM     16  C   UNL     1       0.169   1.437  24.807  0.00  0.00    +0.169 C 
ATOM     17  O   UNL     1      -0.314   2.099  24.892  0.00  0.00    -0.350 OA
ATOM     18  C   UNL     1      -0.830   2.125  24.248  0.00  0.00    +0.167 C 
ENDROOT
BRANCH  15  19
ATOM     19  N   UNL     1       0.293   0.363  23.811  0.00  0.00    -0.180 N 
ATOM     20  N   UNL     1       0.780   0.311  23.146  0.00  0.00    -0.040 NA
ATOM     21  N   UNL     1       0.994  -0.480  23.048  0.00  0.00    -0.020 NA
ATOM     22  N   UNL     1       0.640  -0.916  23.652  0.00  0.00    -0.071 NA
ATOM     23  C   UNL     1       0.207  -0.396  24.123  0.00  0.00    +0.343 A 
BRANCH  23  24
ATOM     24  O   UNL     1      -0.235  -0.599  24.790  0.00  0.00    -0.421 OA
BRANCH  24  25
ATOM     25  C   UNL     1      -0.904  -1.076  24.712  0.00  0.00    +0.149 A 
ATOM     26  C   UNL     1      -0.892  -1.722  24.200  0.00  0.00    +0.039 A 
ATOM     27  C   UNL     1      -1.560  -2.199  24.122  0.00  0.00    +0.022 A 
ATOM     28  C   UNL     1      -2.241  -2.029  24.557  0.00  0.00    +0.085 A 
ATOM     29  C   UNL     1      -2.253  -1.383  25.069  0.00  0.00    +0.022 A 
ATOM     30  C   UNL     1      -1.584  -0.906  25.147  0.00  0.00    +0.039 A 
BRANCH  28  31
ATOM     31  N   UNL     1      -2.910  -2.506  24.480  0.00  0.00    -0.208 N 
ATOM     32  C   UNL     1      -3.625  -2.284  24.132  0.00  0.00    +0.202 A 
ATOM     33  N   UNL     1      -4.140  -2.928  24.173  0.00  0.00    -0.200 NA
ATOM     34  C   UNL     1      -3.742  -3.547  24.547  0.00  0.00    +0.221 A 
ATOM     35  N   UNL     1      -2.983  -3.286  24.736  0.00  0.00    -0.141 NA
ENDBRANCH  28  31
ENDBRANCH  24  25
ENDBRANCH  23  24
ENDBRANCH  15  19
BRANCH  11  10
ATOM      7  N   UNL     1      -2.904   3.918  24.780  0.00  0.00    -0.161 NA
ATOM      8  C   UNL     1      -2.564   3.229  24.481  0.00  0.00    +0.344 C 
ATOM      9  O   UNL     1      -2.999   2.528  24.459  0.00  0.00    -0.249 OA
ATOM     10  N   UNL     1      -1.787   3.240  24.203  0.00  0.00    -0.184 NA
BRANCH   7   6
ATOM      3  C   UNL     1      -5.234   3.886  25.615  0.00  0.00    +0.139 A 
ATOM      4  C   UNL     1      -4.609   3.725  26.129  0.00  0.00    +0.038 A 
ATOM      5  C   UNL     1      -3.833   3.735  25.851  0.00  0.00    +0.020 A 
ATOM      6  C   UNL     1      -3.681   3.907  25.058  0.00  0.00    +0.075 A 
ATOM     36  C   UNL     1      -4.305   4.069  24.545  0.00  0.00    +0.020 A 
ATOM     37  C   UNL     1      -5.082   4.059  24.823  0.00  0.00    +0.038 A 
BRANCH   3   2
ATOM      1  C   UNL     1      -6.410   3.158  25.972  0.00  0.00    +0.252 C 
ATOM      2  O   UNL     1      -6.010   3.876  25.894  0.00  0.00    -0.471 OA
ENDBRANCH   3   2
ENDBRANCH   7   6
ENDBRANCH  11  10
TORSDOF 7
ENDMDL
MODEL 9
REMARK VINA RESULT:      -5.7     16.529     17.700
REMARK  Name = 
REMARK  7 active torsions:
REMARK  status: ('A' for Active; 'I' for Inactive)
REMARK    1  A    between atoms: O_2  and  C_3
REMARK    2  A    between atoms: C_6  and  N_7
REMARK    3  A    between atoms: N_10  and  C_11
REMARK    4  A    between atoms: C_15  and  N_19
REMARK    5  A    between atoms: C_23  and  O_24
REMARK    6  A    between atoms: O_24  and  C_25
REMARK    7  A    between atoms: C_28  and  N_31
REMARK                            x       y       z     vdW  Elec       q    Type
REMARK                         _______ _______ _______ _____ _____    ______ ____
ROOT
ATOM     11  C   UNL     1      -4.612  -8.801   9.692  0.00  0.00    +0.156 C 
ATOM     12  C   UNL     1      -4.863  -8.104  10.055  0.00  0.00    +0.166 C 
ATOM     13  O   UNL     1      -5.668  -8.014   9.903  0.00  0.00    -0.350 OA
ATOM     14  C   UNL     1      -5.915  -8.653   9.446  0.00  0.00    +0.169 C 
ATOM     15  C   UNL     1      -6.565  -8.994   9.068  0.00  0.00    +0.170 C 
ATOM     16  C   UNL     1      -6.314  -9.690   8.704  0.00  0.00    +0.169 C 
ATOM     17  O   UNL     1      -5.509  -9.781   8.857  0.00  0.00    -0.350 OA
ATOM     18  C   UNL     1      -5.262  -9.140   9.315  0.00  0.00    +0.167 C 
ENDROOT
BRANCH  15  19
ATOM     19  N   UNL     1      -7.332  -8.690   9.057  0.00  0.00    -0.180 N 
ATOM     20  N   UNL     1      -7.584  -8.021   8.643  0.00  0.00    -0.040 NA
ATOM     21  N   UNL     1      -8.389  -7.920   8.788  0.00  0.00    -0.020 NA
ATOM     22  N   UNL     1      -8.636  -8.525   9.291  0.00  0.00    -0.071 NA
ATOM     23  C   UNL     1      -7.983  -9.001   9.457  0.00  0.00    +0.343 A 
BRANCH  23  24
ATOM     24  O   UNL     1      -7.981  -9.672   9.939  0.00  0.00    -0.421 OA
BRANCH  24  25
ATOM     25  C   UNL     1      -8.433  -9.685  10.629  0.00  0.00    +0.149 A 
ATOM     26  C   UNL     1      -8.064  -9.647  11.365  0.00  0.00    +0.039 A 
ATOM     27  C   UNL     1      -8.515  -9.661  12.055  0.00  0.00    +0.022 A 
ATOM     28  C   UNL     1      -9.338  -9.711  12.008  0.00  0.00    +0.085 A 
ATOM     29  C   UNL     1      -9.708  -9.748  11.271  0.00  0.00    +0.022 A 
ATOM     30  C   UNL     1      -9.255  -9.735  10.582  0.00  0.00    +0.039 A 
BRANCH  28  31
ATOM     31  N   UNL     1      -9.791  -9.724  12.698  0.00  0.00    -0.208 N 
ATOM     32  C   UNL     1      -9.695 -10.246  13.330  0.00  0.00    +0.202 A 
ATOM     33  N   UNL     1     -10.264 -10.063  13.900  0.00  0.00    -0.200 NA
ATOM     34  C   UNL     1     -10.710  -9.429  13.619  0.00  0.00    +0.221 A 
ATOM     35  N   UNL     1     -10.418  -9.220  12.876  0.00  0.00    -0.141 NA
ENDBRANCH  28  31
ENDBRANCH  24  25
ENDBRANCH  23  24
ENDBRANCH  15  19
BRANCH  11  10
ATOM      7  N   UNL     1      -2.745  -9.663  10.425  0.00  0.00    -0.161 NA
ATOM      8  C   UNL     1      -3.512  -9.360  10.413  0.00  0.00    +0.344 C 
ATOM      9  O   UNL     1      -3.947  -9.311  11.113  0.00  0.00    -0.249 OA
ATOM     10  N   UNL     1      -3.844  -9.104   9.703  0.00  0.00    -0.184 NA
BRANCH   7   6
ATOM      3  C   UNL     1      -1.748 -10.430  12.557  0.00  0.00    +0.139 A 
ATOM      4  C   UNL     1      -2.493 -10.703  12.327  0.00  0.00    +0.038 A 
ATOM      5  C   UNL     1      -2.824 -10.447  11.617  0.00  0.00    +0.020 A 
ATOM      6  C   UNL     1      -2.413  -9.919  11.136  0.00  0.00    +0.075 A 
ATOM     36  C   UNL     1      -1.669  -9.646  11.365  0.00  0.00    +0.020 A 
ATOM     37  C   UNL     1      -1.337  -9.901  12.076  0.00  0.00    +0.038 A 
BRANCH   3   2
ATOM      1  C   UNL     1      -1.824 -10.573  13.976  0.00  0.00    +0.252 C 
ATOM      2  O   UNL     1      -1.417 -10.686  13.267  0.00  0.00    -0.471 OA
ENDBRANCH   3   2
ENDBRANCH   7   6
ENDBRANCH  11  10
TORSDOF 7
ENDMDL
MODEL 10
REMARK VINA RESULT:      -5.4     17.229     18.209
REMARK  Name = 
REMARK  7 active torsions:
REMARK  status: ('A' for Active; 'I' for Inactive)
REMARK    1  A    between atoms: O_2  and  C_3
REMARK    2  A    between atoms: C_6  and  N_7
REMARK    3  A    between atoms: N_10  and  C_11
REMARK    4  A    between atoms: C_15  and  N_19
REMARK    5  A    between atoms: C_23  and  O_24
REMARK    6  A    between atoms: O_24  and  C_25
REMARK    7  A    between atoms: C_28  and  N_31
REMARK                            x       y       z     vdW  Elec       q    Type
REMARK                         _______ _______ _______ _____ _____    ______ ____
ROOT
ATOM     11  C   UNL     1      -4.794 -10.670  10.324  0.00  0.00    +0.156 C 
ATOM     12  C   UNL     1      -4.640 -10.693   9.515  0.00  0.00    +0.166 C 
ATOM     13  O   UNL     1      -5.351 -10.565   9.117  0.00  0.00    -0.350 OA
ATOM     14  C   UNL     1      -5.944 -10.462   9.680  0.00  0.00    +0.169 C 
ATOM     15  C   UNL     1      -6.750 -10.320   9.784  0.00  0.00    +0.170 C 
ATOM     16  C   UNL     1      -6.904 -10.296  10.594  0.00  0.00    +0.169 C 
ATOM     17  O   UNL     1      -6.193 -10.425  10.991  0.00  0.00    -0.350 OA
ATOM     18  C   UNL     1      -5.599 -10.527  10.427  0.00  0.00    +0.167 C 
ENDROOT
BRANCH  15  19
ATOM     19  N   UNL     1      -7.305 -10.218   9.182  0.00  0.00    -0.180 N 
ATOM     20  N   UNL     1      -7.516 -10.780   8.615  0.00  0.00    -0.040 NA
ATOM     21  N   UNL     1      -8.088 -10.446   8.124  0.00  0.00    -0.020 NA
ATOM     22  N   UNL     1      -8.231  -9.677   8.387  0.00  0.00    -0.071 NA
ATOM     23  C   UNL     1      -7.748  -9.537   9.040  0.00  0.00    +0.343 A 
BRANCH  23  24
ATOM     24  O   UNL     1      -7.713  -8.836   9.476  0.00  0.00    -0.421 OA
BRANCH  24  25
ATOM     25  C   UNL     1      -8.176  -8.189   9.255  0.00  0.00    +0.149 A 
ATOM     26  C   UNL     1      -7.838  -7.565   8.836  0.00  0.00    +0.039 A 
ATOM     27  C   UNL     1      -8.300  -6.919   8.615  0.00  0.00    +0.022 A 
ATOM     28  C   UNL     1      -9.101  -6.897   8.814  0.00  0.00    +0.085 A 
ATOM     29  C   UNL     1      -9.439  -7.522   9.234  0.00  0.00    +0.022 A 
ATOM     30  C   UNL     1      -8.976  -8.168   9.454  0.00  0.00    +0.039 A 
BRANCH  28  31
ATOM     31  N   UNL     1      -9.564  -6.251   8.594  0.00  0.00    -0.208 N 
ATOM     32  C   UNL     1     -10.387  -6.244   8.530  0.00  0.00    +0.202 A 
ATOM     33  N   UNL     1     -10.619  -5.487   8.295  0.00  0.00    -0.200 NA
ATOM     34  C   UNL     1      -9.939  -5.027   8.215  0.00  0.00    +0.221 A 
ATOM     35  N   UNL     1      -9.287  -5.499   8.399  0.00  0.00    -0.141 NA
ENDBRANCH  28  31
ENDBRANCH  24  25
ENDBRANCH  23  24
ENDBRANCH  15  19
BRANCH  11  10
ATOM      7  N   UNL     1      -2.968 -10.464  11.503  0.00  0.00    -0.161 NA
ATOM      8  C   UNL     1      -3.522 -10.363  10.901  0.00  0.00    +0.344 C 
ATOM      9  O   UNL     1      -3.362  -9.852  10.273  0.00  0.00    -0.249 OA
ATOM     10  N   UNL     1      -4.239 -10.772  10.927  0.00  0.00    -0.184 NA
BRANCH   7   6
ATOM      3  C   UNL     1      -0.819  -9.238  11.427  0.00  0.00    +0.139 A 
ATOM      4  C   UNL     1      -0.883  -9.931  11.871  0.00  0.00    +0.038 A 
ATOM      5  C   UNL     1      -1.600 -10.339  11.896  0.00  0.00    +0.020 A 
ATOM      6  C   UNL     1      -2.251 -10.055  11.477  0.00  0.00    +0.075 A 
ATOM     36  C   UNL     1      -2.187  -9.363  11.034  0.00  0.00    +0.020 A 
ATOM     37  C   UNL     1      -1.470  -8.954  11.009  0.00  0.00    +0.038 A 
BRANCH   3   2
ATOM      1  C   UNL     1       0.251  -8.661  10.676  0.00  0.00    +0.252 C 
ATOM      2  O   UNL     1      -0.102  -8.830  11.402  0.00  0.00    -0.471 OA
ENDBRANCH   3   2
ENDBRANCH   7   6
ENDBRANCH  11  10
TORSDOF 7
ENDMDL
