MODEL 1
REMARK VINA RESULT:     -12.9      0.000      0.000
REMARK  Name = 
REMARK  6 active torsions:
REMARK  status: ('A' for Active; 'I' for Inactive)
REMARK    1  A    between atoms: C_2  and  N_3
REMARK    2  A    between atoms: N_3  and  C_4
REMARK    3  A    between atoms: C_6  and  C_8
REMARK    4  A    between atoms: C_8  and  C_9
REMARK    5  A    between atoms: C_14  and  C_16
REMARK    6  A    between atoms: C_27  and  C_29
REMARK                            x       y       z     vdW  Elec       q    Type
REMARK                         _______ _______ _______ _____ _____    ______ ____
ROOT
ATOM      9  C   UNL     1      -3.798   0.952  24.574  0.00  0.00    +0.050 C 
ATOM     10  C   UNL     1      -3.034   1.254  24.487  0.00  0.00    +0.063 A 
ATOM     11  C   UNL     1      -2.881   2.045  24.665  0.00  0.00    +0.023 A 
ATOM     12  C   UNL     1      -3.491   2.534  24.929  0.00  0.00    +0.034 C 
ATOM     13  C   UNL     1      -4.254   2.232  25.016  0.00  0.00    +0.010 C 
ATOM     14  C   UNL     1      -4.863   2.721  25.280  0.00  0.00    +0.059 C 
ATOM     15  C   UNL     1      -4.236   3.257  25.286  0.00  0.00    +0.005 C 
ATOM     18  C   UNL     1      -5.626   2.420  25.367  0.00  0.00    +0.154 C 
ATOM     19  O   UNL     1      -6.236   2.908  25.631  0.00  0.00    -0.223 OA
ATOM     20  C   UNL     1      -5.779   1.629  25.190  0.00  0.00    +0.033 C 
ATOM     21  C   UNL     1      -5.169   1.139  24.925  0.00  0.00    +0.003 C 
ATOM     22  C   UNL     1      -4.407   1.441  24.839  0.00  0.00    +0.006 C 
ATOM     23  C   UNL     1      -4.560   0.650  24.661  0.00  0.00    +0.000 C 
ATOM     24  S   UNL     1      -2.080   2.187  24.527  0.00  0.00    -0.054 S 
ATOM     25  C   UNL     1      -1.739   1.484  24.264  0.00  0.00    +0.185 A 
ATOM     26  N   UNL     1      -0.946   1.376  24.061  0.00  0.00    -0.150 NA
ATOM     27  C   UNL     1      -0.683   0.636  23.806  0.00  0.00    +0.277 C 
ATOM     28  O   UNL     1      -1.212   0.006  23.754  0.00  0.00    -0.267 OA
ATOM     34  N   UNL     1      -2.328   0.907  24.240  0.00  0.00    -0.227 NA
ENDROOT
BRANCH  27  29
ATOM     29  C   UNL     1       0.110   0.528  23.603  0.00  0.00    +0.085 A 
ATOM     30  C   UNL     1       0.718   1.073  23.718  0.00  0.00    +0.012 A 
ATOM     31  C   UNL     1       1.418   0.738  23.436  0.00  0.00    +0.008 A 
ATOM     32  C   UNL     1       1.241  -0.014  23.147  0.00  0.00    +0.036 A 
ATOM     33  S   UNL     1       0.433  -0.144  23.251  0.00  0.00    -0.082 S 
ENDBRANCH  27  29
BRANCH  14  16
ATOM     16  C   UNL     1      -5.255   3.396  25.546  0.00  0.00    +0.184 C 
ATOM     17  O   UNL     1      -4.903   4.138  25.465  0.00  0.00    -0.220 OA
ENDBRANCH  14  16
BRANCH   9   8
ATOM      8  C   UNL     1      -3.951   0.162  24.397  0.00  0.00    +0.091 C 
BRANCH   8   6
ATOM      3  N   UNL     1      -3.800  -1.221  24.726  0.00  0.00    -0.280 N 
ATOM      6  C   UNL     1      -3.776  -0.426  24.948  0.00  0.00    +0.226 C 
ATOM      7  O   UNL     1      -3.576  -0.220  25.721  0.00  0.00    -0.275 OA
BRANCH   3   2
ATOM      1  C   UNL     1      -3.142  -2.442  25.064  0.00  0.00    +0.023 C 
ATOM      2  C   UNL     1      -3.625  -1.808  25.277  0.00  0.00    +0.093 C 
ENDBRANCH   3   2
BRANCH   3   4
ATOM      4  C   UNL     1      -4.000  -1.427  23.953  0.00  0.00    +0.093 C 
ATOM      5  C   UNL     1      -4.311  -2.174  23.792  0.00  0.00    +0.023 C 
ENDBRANCH   3   4
ENDBRANCH   8   6
ENDBRANCH   9   8
TORSDOF 6
ENDMDL
MODEL 2
REMARK VINA RESULT:     -12.9      1.794      3.926
REMARK  Name = 
REMARK  6 active torsions:
REMARK  status: ('A' for Active; 'I' for Inactive)
REMARK    1  A    between atoms: C_2  and  N_3
REMARK    2  A    between atoms: N_3  and  C_4
REMARK    3  A    between atoms: C_6  and  C_8
REMARK    4  A    between atoms: C_8  and  C_9
REMARK    5  A    between atoms: C_14  and  C_16
REMARK    6  A    between atoms: C_27  and  C_29
REMARK                            x       y       z     vdW  Elec       q    Type
REMARK                         _______ _______ _______ _____ _____    ______ ____
ROOT
ATOM      9  C   UNL     1      -3.600   0.262  24.573  0.00  0.00    +0.050 C 
ATOM     10  C   UNL     1      -2.907   0.703  24.655  0.00  0.00    +0.063 A 
ATOM     11  C   UNL     1      -2.175   0.322  24.679  0.00  0.00    +0.023 A 
ATOM     12  C   UNL     1      -2.137  -0.500  24.621  0.00  0.00    +0.034 C 
ATOM     13  C   UNL     1      -2.829  -0.941  24.539  0.00  0.00    +0.010 C 
ATOM     14  C   UNL     1      -2.790  -1.762  24.481  0.00  0.00    +0.059 C 
ATOM     15  C   UNL     1      -1.987  -1.586  24.551  0.00  0.00    +0.005 C 
ATOM     18  C   UNL     1      -3.482  -2.204  24.399  0.00  0.00    +0.154 C 
ATOM     19  O   UNL     1      -3.443  -3.027  24.341  0.00  0.00    -0.223 OA
ATOM     20  C   UNL     1      -4.213  -1.823  24.376  0.00  0.00    +0.033 C 
ATOM     21  C   UNL     1      -4.253  -1.001  24.434  0.00  0.00    +0.003 C 
ATOM     22  C   UNL     1      -3.560  -0.560  24.516  0.00  0.00    +0.006 C 
ATOM     23  C   UNL     1      -4.291  -0.179  24.492  0.00  0.00    +0.000 C 
ATOM     24  S   UNL     1      -1.590   0.898  24.763  0.00  0.00    -0.054 S 
ATOM     25  C   UNL     1      -1.960   1.634  24.791  0.00  0.00    +0.185 A 
ATOM     26  N   UNL     1      -1.583   2.363  24.872  0.00  0.00    -0.150 NA
ATOM     27  C   UNL     1      -2.028   3.059  24.892  0.00  0.00    +0.277 C 
ATOM     28  O   UNL     1      -2.850   3.023  24.831  0.00  0.00    -0.267 OA
ATOM     34  N   UNL     1      -2.774   1.515  24.725  0.00  0.00    -0.227 NA
ENDROOT
BRANCH  27  29
ATOM     29  C   UNL     1      -1.651   3.788  24.973  0.00  0.00    +0.085 A 
ATOM     30  C   UNL     1      -0.875   3.960  24.752  0.00  0.00    +0.012 A 
ATOM     31  C   UNL     1      -0.728   4.752  24.931  0.00  0.00    +0.008 A 
ATOM     32  C   UNL     1      -1.413   5.069  25.263  0.00  0.00    +0.036 A 
ATOM     33  S   UNL     1      -1.983   4.473  25.289  0.00  0.00    -0.082 S 
ENDBRANCH  27  29
BRANCH  14  16
ATOM     16  C   UNL     1      -2.472  -2.524  24.448  0.00  0.00    +0.184 C 
ATOM     17  O   UNL     1      -1.655  -2.630  24.435  0.00  0.00    -0.220 OA
ENDBRANCH  14  16
BRANCH   9   8
ATOM      8  C   UNL     1      -4.330   0.642  24.550  0.00  0.00    +0.091 C 
BRANCH   8   6
ATOM      3  N   UNL     1      -5.338   1.391  25.233  0.00  0.00    -0.280 N 
ATOM      6  C   UNL     1      -4.704   0.863  25.251  0.00  0.00    +0.226 C 
ATOM      7  O   UNL     1      -4.442   0.556  25.971  0.00  0.00    -0.275 OA
BRANCH   3   2
ATOM      1  C   UNL     1      -5.830   2.409  26.105  0.00  0.00    +0.023 C 
ATOM      2  C   UNL     1      -5.711   1.611  25.934  0.00  0.00    +0.093 C 
ENDBRANCH   3   2
BRANCH   3   4
ATOM      4  C   UNL     1      -5.599   1.697  24.513  0.00  0.00    +0.093 C 
ATOM      5  C   UNL     1      -6.375   1.965  24.435  0.00  0.00    +0.023 C 
ENDBRANCH   3   4
ENDBRANCH   8   6
ENDBRANCH   9   8
TORSDOF 6
ENDMDL
MODEL 3
REMARK VINA RESULT:     -12.6      1.871      3.849
REMARK  Name = 
REMARK  6 active torsions:
REMARK  status: ('A' for Active; 'I' for Inactive)
REMARK    1  A    between atoms: C_2  and  N_3
REMARK    2  A    between atoms: N_3  and  C_4
REMARK    3  A    between atoms: C_6  and  C_8
REMARK    4  A    between atoms: C_8  and  C_9
REMARK    5  A    between atoms: C_14  and  C_16
REMARK    6  A    between atoms: C_27  and  C_29
REMARK                            x       y       z     vdW  Elec       q    Type
REMARK                         _______ _______ _______ _____ _____    ______ ____
ROOT
ATOM      9  C   UNL     1      -3.121   2.524  25.258  0.00  0.00    +0.050 C 
ATOM     10  C   UNL     1      -2.819   1.799  25.005  0.00  0.00    +0.063 A 
ATOM     11  C   UNL     1      -2.043   1.748  24.731  0.00  0.00    +0.023 A 
ATOM     12  C   UNL     1      -1.568   2.423  24.709  0.00  0.00    +0.034 C 
ATOM     13  C   UNL     1      -1.869   3.147  24.962  0.00  0.00    +0.010 C 
ATOM     14  C   UNL     1      -1.395   3.821  24.941  0.00  0.00    +0.059 C 
ATOM     15  C   UNL     1      -0.864   3.263  24.645  0.00  0.00    +0.005 C 
ATOM     18  C   UNL     1      -1.696   4.547  25.193  0.00  0.00    +0.154 C 
ATOM     19  O   UNL     1      -1.221   5.221  25.172  0.00  0.00    -0.223 OA
ATOM     20  C   UNL     1      -2.472   4.597  25.468  0.00  0.00    +0.033 C 
ATOM     21  C   UNL     1      -2.948   3.923  25.489  0.00  0.00    +0.003 C 
ATOM     22  C   UNL     1      -2.646   3.198  25.236  0.00  0.00    +0.006 C 
ATOM     23  C   UNL     1      -3.422   3.249  25.510  0.00  0.00    +0.000 C 
ATOM     24  S   UNL     1      -1.898   0.963  24.519  0.00  0.00    -0.054 S 
ATOM     25  C   UNL     1      -2.584   0.530  24.662  0.00  0.00    +0.185 A 
ATOM     26  N   UNL     1      -2.685  -0.278  24.528  0.00  0.00    -0.150 NA
ATOM     27  C   UNL     1      -3.408  -0.638  24.699  0.00  0.00    +0.277 C 
ATOM     28  O   UNL     1      -4.029  -0.189  25.003  0.00  0.00    -0.267 OA
ATOM     34  N   UNL     1      -3.154   1.046  24.962  0.00  0.00    -0.227 NA
ENDROOT
BRANCH  27  29
ATOM     29  C   UNL     1      -3.508  -1.446  24.565  0.00  0.00    +0.085 A 
ATOM     30  C   UNL     1      -3.973  -1.786  23.976  0.00  0.00    +0.012 A 
ATOM     31  C   UNL     1      -3.914  -2.606  24.043  0.00  0.00    +0.008 A 
ATOM     32  C   UNL     1      -3.411  -2.773  24.675  0.00  0.00    +0.036 A 
ATOM     33  S   UNL     1      -3.160  -2.056  24.998  0.00  0.00    -0.082 S 
ENDBRANCH  27  29
BRANCH  14  16
ATOM     16  C   UNL     1      -0.736   4.302  24.817  0.00  0.00    +0.184 C 
ATOM     17  O   UNL     1      -0.144   4.065  24.294  0.00  0.00    -0.220 OA
ENDBRANCH  14  16
BRANCH   9   8
ATOM      8  C   UNL     1      -3.897   2.575  25.532  0.00  0.00    +0.091 C 
BRANCH   8   6
ATOM      3  N   UNL     1      -5.296   2.470  25.259  0.00  0.00    -0.280 N 
ATOM      6  C   UNL     1      -4.523   2.593  24.996  0.00  0.00    +0.226 C 
ATOM      7  O   UNL     1      -4.377   2.735  24.196  0.00  0.00    -0.275 OA
BRANCH   3   2
ATOM      1  C   UNL     1      -6.483   1.884  24.723  0.00  0.00    +0.023 C 
ATOM      2  C   UNL     1      -5.922   2.488  24.723  0.00  0.00    +0.093 C 
ENDBRANCH   3   2
BRANCH   3   4
ATOM      4  C   UNL     1      -5.441   2.329  26.058  0.00  0.00    +0.093 C 
ATOM      5  C   UNL     1      -6.213   2.355  26.349  0.00  0.00    +0.023 C 
ENDBRANCH   3   4
ENDBRANCH   8   6
ENDBRANCH   9   8
TORSDOF 6
ENDMDL
MODEL 4
REMARK VINA RESULT:     -12.2      1.665      4.990
REMARK  Name = 
REMARK  6 active torsions:
REMARK  status: ('A' for Active; 'I' for Inactive)
REMARK    1  A    between atoms: C_2  and  N_3
REMARK    2  A    between atoms: N_3  and  C_4
REMARK    3  A    between atoms: C_6  and  C_8
REMARK    4  A    between atoms: C_8  and  C_9
REMARK    5  A    between atoms: C_14  and  C_16
REMARK    6  A    between atoms: C_27  and  C_29
REMARK                            x       y       z     vdW  Elec       q    Type
REMARK                         _______ _______ _______ _____ _____    ______ ____
ROOT
ATOM      9  C   UNL     1      -2.390  -0.048  25.005  0.00  0.00    +0.050 C 
ATOM     10  C   UNL     1      -3.136   0.304  24.966  0.00  0.00    +0.063 A 
ATOM     11  C   UNL     1      -3.795  -0.147  24.758  0.00  0.00    +0.023 A 
ATOM     12  C   UNL     1      -3.708  -0.950  24.588  0.00  0.00    +0.034 C 
ATOM     13  C   UNL     1      -2.964  -1.301  24.626  0.00  0.00    +0.010 C 
ATOM     14  C   UNL     1      -2.877  -2.103  24.456  0.00  0.00    +0.059 C 
ATOM     15  C   UNL     1      -3.690  -2.020  24.345  0.00  0.00    +0.005 C 
ATOM     18  C   UNL     1      -2.132  -2.456  24.494  0.00  0.00    +0.154 C 
ATOM     19  O   UNL     1      -2.045  -3.259  24.324  0.00  0.00    -0.223 OA
ATOM     20  C   UNL     1      -1.473  -2.006  24.703  0.00  0.00    +0.033 C 
ATOM     21  C   UNL     1      -1.560  -1.202  24.873  0.00  0.00    +0.003 C 
ATOM     22  C   UNL     1      -2.305  -0.851  24.835  0.00  0.00    +0.006 C 
ATOM     23  C   UNL     1      -1.646  -0.400  25.043  0.00  0.00    +0.000 C 
ATOM     24  S   UNL     1      -4.455   0.348  24.766  0.00  0.00    -0.054 S 
ATOM     25  C   UNL     1      -4.204   1.104  24.979  0.00  0.00    +0.185 A 
ATOM     26  N   UNL     1      -4.684   1.770  25.055  0.00  0.00    -0.150 NA
ATOM     27  C   UNL     1      -4.354   2.495  25.274  0.00  0.00    +0.277 C 
ATOM     28  O   UNL     1      -3.543   2.551  25.416  0.00  0.00    -0.267 OA
ATOM     34  N   UNL     1      -3.389   1.077  25.103  0.00  0.00    -0.227 NA
ENDROOT
BRANCH  27  29
ATOM     29  C   UNL     1      -4.834   3.161  25.350  0.00  0.00    +0.085 A 
ATOM     30  C   UNL     1      -5.600   3.175  25.654  0.00  0.00    +0.012 A 
ATOM     31  C   UNL     1      -5.872   3.953  25.628  0.00  0.00    +0.008 A 
ATOM     32  C   UNL     1      -5.274   4.421  25.306  0.00  0.00    +0.036 A 
ATOM     33  S   UNL     1      -4.632   3.931  25.135  0.00  0.00    -0.082 S 
ENDBRANCH  27  29
BRANCH  14  16
ATOM     16  C   UNL     1      -3.073  -2.878  24.248  0.00  0.00    +0.184 C 
ATOM     17  O   UNL     1      -3.864  -3.108  24.212  0.00  0.00    -0.220 OA
ENDBRANCH  14  16
BRANCH   9   8
ATOM      8  C   UNL     1      -1.732   0.402  25.213  0.00  0.00    +0.091 C 
BRANCH   8   6
ATOM      3  N   UNL     1      -0.787   1.421  24.882  0.00  0.00    -0.280 N 
ATOM      6  C   UNL     1      -1.361   0.876  24.650  0.00  0.00    +0.226 C 
ATOM      7  O   UNL     1      -1.566   0.806  23.854  0.00  0.00    -0.275 OA
BRANCH   3   2
ATOM      1  C   UNL     1       0.405   1.883  24.245  0.00  0.00    +0.023 C 
ATOM      2  C   UNL     1      -0.417   1.895  24.318  0.00  0.00    +0.093 C 
ENDBRANCH   3   2
BRANCH   3   4
ATOM      4  C   UNL     1      -0.583   1.491  25.677  0.00  0.00    +0.093 C 
ATOM      5  C   UNL     1      -0.245   2.190  25.958  0.00  0.00    +0.023 C 
ENDBRANCH   3   4
ENDBRANCH   8   6
ENDBRANCH   9   8
TORSDOF 6
ENDMDL
MODEL 5
REMARK VINA RESULT:     -11.5      1.354      3.392
REMARK  Name = 
REMARK  6 active torsions:
REMARK  status: ('A' for Active; 'I' for Inactive)
REMARK    1  A    between atoms: C_2  and  N_3
REMARK    2  A    between atoms: N_3  and  C_4
REMARK    3  A    between atoms: C_6  and  C_8
REMARK    4  A    between atoms: C_8  and  C_9
REMARK    5  A    between atoms: C_14  and  C_16
REMARK    6  A    between atoms: C_27  and  C_29
REMARK                            x       y       z     vdW  Elec       q    Type
REMARK                         _______ _______ _______ _____ _____    ______ ____
ROOT
ATOM      9  C   UNL     1      -3.319   1.992  24.687  0.00  0.00    +0.050 C 
ATOM     10  C   UNL     1      -3.732   1.280  24.753  0.00  0.00    +0.063 A 
ATOM     11  C   UNL     1      -4.520   1.281  24.997  0.00  0.00    +0.023 A 
ATOM     12  C   UNL     1      -4.895   1.994  25.175  0.00  0.00    +0.034 C 
ATOM     13  C   UNL     1      -4.483   2.705  25.109  0.00  0.00    +0.010 C 
ATOM     14  C   UNL     1      -4.859   3.417  25.287  0.00  0.00    +0.059 C 
ATOM     15  C   UNL     1      -5.476   2.890  25.432  0.00  0.00    +0.005 C 
ATOM     18  C   UNL     1      -4.447   4.129  25.221  0.00  0.00    +0.154 C 
ATOM     19  O   UNL     1      -4.822   4.843  25.399  0.00  0.00    -0.223 OA
ATOM     20  C   UNL     1      -3.659   4.128  24.977  0.00  0.00    +0.033 C 
ATOM     21  C   UNL     1      -3.282   3.415  24.799  0.00  0.00    +0.003 C 
ATOM     22  C   UNL     1      -3.695   2.704  24.865  0.00  0.00    +0.006 C 
ATOM     23  C   UNL     1      -2.907   2.703  24.621  0.00  0.00    +0.000 C 
ATOM     24  S   UNL     1      -4.784   0.499  25.011  0.00  0.00    -0.054 S 
ATOM     25  C   UNL     1      -4.159   0.016  24.776  0.00  0.00    +0.185 A 
ATOM     26  N   UNL     1      -4.180  -0.806  24.711  0.00  0.00    -0.150 NA
ATOM     27  C   UNL     1      -3.508  -1.219  24.468  0.00  0.00    +0.277 C 
ATOM     28  O   UNL     1      -2.815  -0.808  24.289  0.00  0.00    -0.267 OA
ATOM     34  N   UNL     1      -3.509   0.497  24.616  0.00  0.00    -0.227 NA
ENDROOT
BRANCH  27  29
ATOM     29  C   UNL     1      -3.529  -2.041  24.403  0.00  0.00    +0.085 A 
ATOM     30  C   UNL     1      -4.008  -2.475  23.891  0.00  0.00    +0.012 A 
ATOM     31  C   UNL     1      -3.851  -3.276  24.010  0.00  0.00    +0.008 A 
ATOM     32  C   UNL     1      -3.274  -3.337  24.596  0.00  0.00    +0.036 A 
ATOM     33  S   UNL     1      -3.075  -2.574  24.839  0.00  0.00    -0.082 S 
ENDBRANCH  27  29
BRANCH  14  16
ATOM     16  C   UNL     1      -5.449   3.947  25.515  0.00  0.00    +0.184 C 
ATOM     17  O   UNL     1      -6.170   3.666  25.799  0.00  0.00    -0.220 OA
ENDBRANCH  14  16
BRANCH   9   8
ATOM      8  C   UNL     1      -2.532   1.991  24.443  0.00  0.00    +0.091 C 
BRANCH   8   6
ATOM      3  N   UNL     1      -1.157   1.723  24.727  0.00  0.00    -0.280 N 
ATOM      6  C   UNL     1      -1.931   1.836  24.987  0.00  0.00    +0.226 C 
ATOM      7  O   UNL     1      -2.106   1.796  25.792  0.00  0.00    -0.275 OA
BRANCH   3   2
ATOM      1  C   UNL     1       0.074   2.094  25.349  0.00  0.00    +0.023 C 
ATOM      2  C   UNL     1      -0.558   1.568  25.271  0.00  0.00    +0.093 C 
ENDBRANCH   3   2
BRANCH   3   4
ATOM      4  C   UNL     1      -0.983   1.764  23.922  0.00  0.00    +0.093 C 
ATOM      5  C   UNL     1      -0.356   1.326  23.612  0.00  0.00    +0.023 C 
ENDBRANCH   3   4
ENDBRANCH   8   6
ENDBRANCH   9   8
TORSDOF 6
ENDMDL
MODEL 6
REMARK VINA RESULT:     -11.3      1.576      3.186
REMARK  Name = 
REMARK  6 active torsions:
REMARK  status: ('A' for Active; 'I' for Inactive)
REMARK    1  A    between atoms: C_2  and  N_3
REMARK    2  A    between atoms: N_3  and  C_4
REMARK    3  A    between atoms: C_6  and  C_8
REMARK    4  A    between atoms: C_8  and  C_9
REMARK    5  A    between atoms: C_14  and  C_16
REMARK    6  A    between atoms: C_27  and  C_29
REMARK                            x       y       z     vdW  Elec       q    Type
REMARK                         _______ _______ _______ _____ _____    ______ ____
ROOT
ATOM      9  C   UNL     1      -3.299   2.216  24.892  0.00  0.00    +0.050 C 
ATOM     10  C   UNL     1      -3.426   1.401  24.934  0.00  0.00    +0.063 A 
ATOM     11  C   UNL     1      -4.168   1.110  25.145  0.00  0.00    +0.023 A 
ATOM     12  C   UNL     1      -4.783   1.633  25.315  0.00  0.00    +0.034 C 
ATOM     13  C   UNL     1      -4.656   2.446  25.274  0.00  0.00    +0.010 C 
ATOM     14  C   UNL     1      -5.271   2.968  25.444  0.00  0.00    +0.059 C 
ATOM     15  C   UNL     1      -5.658   2.249  25.558  0.00  0.00    +0.005 C 
ATOM     18  C   UNL     1      -5.145   3.783  25.403  0.00  0.00    +0.154 C 
ATOM     19  O   UNL     1      -5.760   4.306  25.573  0.00  0.00    -0.223 OA
ATOM     20  C   UNL     1      -4.403   4.075  25.191  0.00  0.00    +0.033 C 
ATOM     21  C   UNL     1      -3.787   3.552  25.021  0.00  0.00    +0.003 C 
ATOM     22  C   UNL     1      -3.914   2.738  25.063  0.00  0.00    +0.006 C 
ATOM     23  C   UNL     1      -3.172   3.030  24.851  0.00  0.00    +0.000 C 
ATOM     24  S   UNL     1      -4.129   0.285  25.140  0.00  0.00    -0.054 S 
ATOM     25  C   UNL     1      -3.363   0.068  24.925  0.00  0.00    +0.185 A 
ATOM     26  N   UNL     1      -3.081  -0.704  24.851  0.00  0.00    -0.150 NA
ATOM     27  C   UNL     1      -2.297  -0.837  24.630  0.00  0.00    +0.277 C 
ATOM     28  O   UNL     1      -1.796  -0.198  24.484  0.00  0.00    -0.267 OA
ATOM     34  N   UNL     1      -2.928   0.757  24.797  0.00  0.00    -0.227 NA
ENDROOT
BRANCH  27  29
ATOM     29  C   UNL     1      -2.015  -1.609  24.556  0.00  0.00    +0.085 A 
ATOM     30  C   UNL     1      -2.457  -2.267  24.328  0.00  0.00    +0.012 A 
ATOM     31  C   UNL     1      -1.957  -2.923  24.327  0.00  0.00    +0.008 A 
ATOM     32  C   UNL     1      -1.205  -2.671  24.555  0.00  0.00    +0.036 A 
ATOM     33  S   UNL     1      -1.241  -1.858  24.696  0.00  0.00    -0.082 S 
ENDBRANCH  27  29
BRANCH  14  16
ATOM     16  C   UNL     1      -6.021   3.242  25.654  0.00  0.00    +0.184 C 
ATOM     17  O   UNL     1      -6.511   2.779  26.128  0.00  0.00    -0.220 OA
ENDBRANCH  14  16
BRANCH   9   8
ATOM      8  C   UNL     1      -2.557   2.507  24.681  0.00  0.00    +0.091 C 
BRANCH   8   6
ATOM      3  N   UNL     1      -1.192   2.755  25.025  0.00  0.00    -0.280 N 
ATOM      6  C   UNL     1      -1.968   2.591  25.252  0.00  0.00    +0.226 C 
ATOM      7  O   UNL     1      -2.156   2.510  26.051  0.00  0.00    -0.275 OA
BRANCH   3   2
ATOM      1  C   UNL     1       0.040   2.324  25.602  0.00  0.00    +0.023 C 
ATOM      2  C   UNL     1      -0.604   2.838  25.596  0.00  0.00    +0.093 C 
ENDBRANCH   3   2
BRANCH   3   4
ATOM      4  C   UNL     1      -1.006   2.836  24.226  0.00  0.00    +0.093 C 
ATOM      5  C   UNL     1      -0.354   3.288  23.997  0.00  0.00    +0.023 C 
ENDBRANCH   3   4
ENDBRANCH   8   6
ENDBRANCH   9   8
TORSDOF 6
ENDMDL
MODEL 7
REMARK VINA RESULT:     -10.4      1.344      4.523
REMARK  Name = 
REMARK  6 active torsions:
REMARK  status: ('A' for Active; 'I' for Inactive)
REMARK    1  A    between atoms: C_2  and  N_3
REMARK    2  A    between atoms: N_3  and  C_4
REMARK    3  A    between atoms: C_6  and  C_8
REMARK    4  A    between atoms: C_8  and  C_9
REMARK    5  A    between atoms: C_14  and  C_16
REMARK    6  A    between atoms: C_27  and  C_29
REMARK                            x       y       z     vdW  Elec       q    Type
REMARK                         _______ _______ _______ _____ _____    ______ ____
ROOT
ATOM      9  C   UNL     1      -1.849   0.421  24.212  0.00  0.00    +0.050 C 
ATOM     10  C   UNL     1      -2.147   1.157  24.438  0.00  0.00    +0.063 A 
ATOM     11  C   UNL     1      -1.643   1.809  24.488  0.00  0.00    +0.023 A 
ATOM     12  C   UNL     1      -0.841   1.724  24.313  0.00  0.00    +0.034 C 
ATOM     13  C   UNL     1      -0.543   0.989  24.087  0.00  0.00    +0.010 C 
ATOM     14  C   UNL     1       0.258   0.905  23.912  0.00  0.00    +0.059 C 
ATOM     15  C   UNL     1       0.236   1.708  24.099  0.00  0.00    +0.005 C 
ATOM     18  C   UNL     1       0.557   0.169  23.686  0.00  0.00    +0.154 C 
ATOM     19  O   UNL     1       1.358   0.085  23.510  0.00  0.00    -0.223 OA
ATOM     20  C   UNL     1       0.053  -0.482  23.635  0.00  0.00    +0.033 C 
ATOM     21  C   UNL     1      -0.750  -0.398  23.811  0.00  0.00    +0.003 C 
ATOM     22  C   UNL     1      -1.047   0.338  24.037  0.00  0.00    +0.006 C 
ATOM     23  C   UNL     1      -1.551  -0.314  23.986  0.00  0.00    +0.000 C 
ATOM     24  S   UNL     1      -2.091   2.460  24.724  0.00  0.00    -0.054 S 
ATOM     25  C   UNL     1      -2.871   2.211  24.820  0.00  0.00    +0.185 A 
ATOM     26  N   UNL     1      -3.506   2.684  25.051  0.00  0.00    -0.150 NA
ATOM     27  C   UNL     1      -4.260   2.357  25.124  0.00  0.00    +0.277 C 
ATOM     28  O   UNL     1      -4.378   1.556  24.964  0.00  0.00    -0.267 OA
ATOM     34  N   UNL     1      -2.906   1.406  24.643  0.00  0.00    -0.227 NA
ENDROOT
BRANCH  27  29
ATOM     29  C   UNL     1      -4.895   2.830  25.355  0.00  0.00    +0.085 A 
ATOM     30  C   UNL     1      -4.900   3.654  25.385  0.00  0.00    +0.012 A 
ATOM     31  C   UNL     1      -5.644   3.896  25.646  0.00  0.00    +0.008 A 
ATOM     32  C   UNL     1      -6.100   3.221  25.778  0.00  0.00    +0.036 A 
ATOM     33  S   UNL     1      -5.636   2.562  25.598  0.00  0.00    -0.082 S 
ENDBRANCH  27  29
BRANCH  14  16
ATOM     16  C   UNL     1       1.053   1.099  23.801  0.00  0.00    +0.184 C 
ATOM     17  O   UNL     1       1.319   1.860  23.974  0.00  0.00    -0.220 OA
ENDBRANCH  14  16
BRANCH   9   8
ATOM      8  C   UNL     1      -2.352  -0.229  24.162  0.00  0.00    +0.091 C 
BRANCH   8   6
ATOM      3  N   UNL     1      -3.146  -1.225  24.810  0.00  0.00    -0.280 N 
ATOM      6  C   UNL     1      -2.565  -0.640  24.844  0.00  0.00    +0.226 C 
ATOM      7  O   UNL     1      -2.197  -0.465  25.561  0.00  0.00    -0.275 OA
BRANCH   3   2
ATOM      1  C   UNL     1      -3.347  -2.460  25.498  0.00  0.00    +0.023 C 
ATOM      2  C   UNL     1      -3.359  -1.635  25.493  0.00  0.00    +0.093 C 
ENDBRANCH   3   2
BRANCH   3   4
ATOM      4  C   UNL     1      -3.513  -1.399  24.093  0.00  0.00    +0.093 C 
ATOM      5  C   UNL     1      -4.281  -1.702  24.084  0.00  0.00    +0.023 C 
ENDBRANCH   3   4
ENDBRANCH   8   6
ENDBRANCH   9   8
TORSDOF 6
ENDMDL
MODEL 8
REMARK VINA RESULT:     -10.2      1.695      3.900
REMARK  Name = 
REMARK  6 active torsions:
REMARK  status: ('A' for Active; 'I' for Inactive)
REMARK    1  A    between atoms: C_2  and  N_3
REMARK    2  A    between atoms: N_3  and  C_4
REMARK    3  A    between atoms: C_6  and  C_8
REMARK    4  A    between atoms: C_8  and  C_9
REMARK    5  A    between atoms: C_14  and  C_16
REMARK    6  A    between atoms: C_27  and  C_29
REMARK                            x       y       z     vdW  Elec       q    Type
REMARK                         _______ _______ _______ _____ _____    ______ ____
ROOT
ATOM      9  C   UNL     1      -1.440   1.682  24.792  0.00  0.00    +0.050 C 
ATOM     10  C   UNL     1      -2.161   1.279  24.771  0.00  0.00    +0.063 A 
ATOM     11  C   UNL     1      -2.864   1.683  24.925  0.00  0.00    +0.023 A 
ATOM     12  C   UNL     1      -2.846   2.489  25.101  0.00  0.00    +0.034 C 
ATOM     13  C   UNL     1      -2.127   2.891  25.122  0.00  0.00    +0.010 C 
ATOM     14  C   UNL     1      -2.109   3.696  25.298  0.00  0.00    +0.059 C 
ATOM     15  C   UNL     1      -2.921   3.557  25.343  0.00  0.00    +0.005 C 
ATOM     18  C   UNL     1      -1.390   4.099  25.319  0.00  0.00    +0.154 C 
ATOM     19  O   UNL     1      -1.372   4.905  25.495  0.00  0.00    -0.223 OA
ATOM     20  C   UNL     1      -0.687   3.696  25.165  0.00  0.00    +0.033 C 
ATOM     21  C   UNL     1      -0.704   2.889  24.989  0.00  0.00    +0.003 C 
ATOM     22  C   UNL     1      -1.424   2.487  24.968  0.00  0.00    +0.006 C 
ATOM     23  C   UNL     1      -0.721   2.084  24.813  0.00  0.00    +0.000 C 
ATOM     24  S   UNL     1      -3.486   1.144  24.865  0.00  0.00    -0.054 S 
ATOM     25  C   UNL     1      -3.167   0.408  24.673  0.00  0.00    +0.185 A 
ATOM     26  N   UNL     1      -3.593  -0.290  24.560  0.00  0.00    -0.150 NA
ATOM     27  C   UNL     1      -3.196  -0.989  24.369  0.00  0.00    +0.277 C 
ATOM     28  O   UNL     1      -2.375  -0.989  24.292  0.00  0.00    -0.267 OA
ATOM     34  N   UNL     1      -2.348   0.491  24.615  0.00  0.00    -0.227 NA
ENDROOT
BRANCH  27  29
ATOM     29  C   UNL     1      -3.622  -1.686  24.255  0.00  0.00    +0.085 A 
ATOM     30  C   UNL     1      -4.315  -1.765  23.815  0.00  0.00    +0.012 A 
ATOM     31  C   UNL     1      -4.551  -2.555  23.849  0.00  0.00    +0.008 A 
ATOM     32  C   UNL     1      -4.004  -2.964  24.311  0.00  0.00    +0.036 A 
ATOM     33  S   UNL     1      -3.429  -2.427  24.562  0.00  0.00    -0.082 S 
ENDBRANCH  27  29
BRANCH  14  16
ATOM     16  C   UNL     1      -2.374   4.454  25.489  0.00  0.00    +0.184 C 
ATOM     17  O   UNL     1      -3.115   4.558  25.835  0.00  0.00    -0.220 OA
ENDBRANCH  14  16
BRANCH   9   8
ATOM      8  C   UNL     1      -0.738   1.279  24.638  0.00  0.00    +0.091 C 
BRANCH   8   6
ATOM      3  N   UNL     1       0.052   0.540  23.704  0.00  0.00    -0.280 N 
ATOM      6  C   UNL     1      -0.517   1.116  23.860  0.00  0.00    +0.226 C 
ATOM      7  O   UNL     1      -0.866   1.531  23.238  0.00  0.00    -0.275 OA
BRANCH   3   2
ATOM      1  C   UNL     1       1.047   0.153  22.755  0.00  0.00    +0.023 C 
ATOM      2  C   UNL     1       0.272   0.378  22.926  0.00  0.00    +0.093 C 
ENDBRANCH   3   2
BRANCH   3   4
ATOM      4  C   UNL     1       0.400   0.126  24.326  0.00  0.00    +0.093 C 
ATOM      5  C   UNL     1       0.629  -0.660  24.222  0.00  0.00    +0.023 C 
ENDBRANCH   3   4
ENDBRANCH   8   6
ENDBRANCH   9   8
TORSDOF 6
ENDMDL
MODEL 9
REMARK VINA RESULT:     -10.0      2.305      3.867
REMARK  Name = 
REMARK  6 active torsions:
REMARK  status: ('A' for Active; 'I' for Inactive)
REMARK    1  A    between atoms: C_2  and  N_3
REMARK    2  A    between atoms: N_3  and  C_4
REMARK    3  A    between atoms: C_6  and  C_8
REMARK    4  A    between atoms: C_8  and  C_9
REMARK    5  A    between atoms: C_14  and  C_16
REMARK    6  A    between atoms: C_27  and  C_29
REMARK                            x       y       z     vdW  Elec       q    Type
REMARK                         _______ _______ _______ _____ _____    ______ ____
ROOT
ATOM      9  C   UNL     1      -1.625   0.282  24.576  0.00  0.00    +0.050 C 
ATOM     10  C   UNL     1      -0.958  -0.090  24.260  0.00  0.00    +0.063 A 
ATOM     11  C   UNL     1      -0.932  -0.912  24.206  0.00  0.00    +0.023 A 
ATOM     12  C   UNL     1      -1.572  -1.363  24.467  0.00  0.00    +0.034 C 
ATOM     13  C   UNL     1      -2.237  -0.992  24.782  0.00  0.00    +0.010 C 
ATOM     14  C   UNL     1      -2.877  -1.443  25.043  0.00  0.00    +0.059 C 
ATOM     15  C   UNL     1      -2.373  -2.043  24.787  0.00  0.00    +0.005 C 
ATOM     18  C   UNL     1      -3.543  -1.072  25.359  0.00  0.00    +0.154 C 
ATOM     19  O   UNL     1      -4.183  -1.522  25.620  0.00  0.00    -0.223 OA
ATOM     20  C   UNL     1      -3.569  -0.249  25.413  0.00  0.00    +0.033 C 
ATOM     21  C   UNL     1      -2.929   0.203  25.152  0.00  0.00    +0.003 C 
ATOM     22  C   UNL     1      -2.264  -0.169  24.837  0.00  0.00    +0.006 C 
ATOM     23  C   UNL     1      -2.290   0.654  24.891  0.00  0.00    +0.000 C 
ATOM     24  S   UNL     1      -0.207  -1.123  23.872  0.00  0.00    -0.054 S 
ATOM     25  C   UNL     1       0.214  -0.431  23.721  0.00  0.00    +0.185 A 
ATOM     26  N   UNL     1       0.967  -0.385  23.388  0.00  0.00    -0.150 NA
ATOM     27  C   UNL     1       1.322   0.351  23.269  0.00  0.00    +0.277 C 
ATOM     28  O   UNL     1       0.922   1.040  23.483  0.00  0.00    -0.267 OA
ATOM     34  N   UNL     1      -0.250   0.208  23.960  0.00  0.00    -0.227 NA
ENDROOT
BRANCH  27  29
ATOM     29  C   UNL     1       2.075   0.397  22.936  0.00  0.00    +0.085 A 
ATOM     30  C   UNL     1       2.689   0.886  23.190  0.00  0.00    +0.012 A 
ATOM     31  C   UNL     1       3.341   0.754  22.702  0.00  0.00    +0.008 A 
ATOM     32  C   UNL     1       3.130   0.182  22.146  0.00  0.00    +0.036 A 
ATOM     33  S   UNL     1       2.348  -0.038  22.291  0.00  0.00    -0.082 S 
ENDBRANCH  27  29
BRANCH  14  16
ATOM     16  C   UNL     1      -3.342  -2.103  25.215  0.00  0.00    +0.184 C 
ATOM     17  O   UNL     1      -3.138  -2.842  24.913  0.00  0.00    -0.220 OA
ENDBRANCH  14  16
BRANCH   9   8
ATOM      8  C   UNL     1      -1.651   1.104  24.630  0.00  0.00    +0.091 C 
BRANCH   8   6
ATOM      3  N   UNL     1      -1.219   2.311  25.262  0.00  0.00    -0.280 N 
ATOM      6  C   UNL     1      -1.280   1.488  25.259  0.00  0.00    +0.226 C 
ATOM      7  O   UNL     1      -0.970   1.049  25.884  0.00  0.00    -0.275 OA
BRANCH   3   2
ATOM      1  C   UNL     1      -0.220   3.210  25.747  0.00  0.00    +0.023 C 
ATOM      2  C   UNL     1      -0.848   2.694  25.891  0.00  0.00    +0.093 C 
ENDBRANCH   3   2
BRANCH   3   4
ATOM      4  C   UNL     1      -1.529   2.750  24.637  0.00  0.00    +0.093 C 
ATOM      5  C   UNL     1      -1.752   3.535  24.754  0.00  0.00    +0.023 C 
ENDBRANCH   3   4
ENDBRANCH   8   6
ENDBRANCH   9   8
TORSDOF 6
ENDMDL
