MODEL 1
REMARK VINA RESULT:     -11.8      0.000      0.000
REMARK  Name = 
REMARK  3 active torsions:
REMARK  status: ('A' for Active; 'I' for Inactive)
REMARK    1  A    between atoms: C_2  and  N_3
REMARK    2  A    between atoms: C_2  and  C_22
REMARK    3  A    between atoms: C_14  and  C_16
REMARK                            x       y       z     vdW  Elec       q    Type
REMARK                         _______ _______ _______ _____ _____    ______ ____
ROOT
ATOM      3  N   UNL     1      -3.001  -0.472  25.442  0.00  0.00    -0.210 N 
ATOM      4  C   UNL     1      -2.186  -0.354  25.492  0.00  0.00    +0.253 C 
ATOM      5  O   UNL     1      -1.623  -0.929  25.675  0.00  0.00    -0.273 OA
ATOM      6  C   UNL     1      -2.033   0.439  25.329  0.00  0.00    +0.174 C 
ATOM      7  C   UNL     1      -1.330   0.872  25.298  0.00  0.00    +0.123 C 
ATOM      8  N   UNL     1      -1.348   1.675  25.116  0.00  0.00    -0.272 N 
ATOM      9  C   UNL     1      -2.068   2.048  24.964  0.00  0.00    +0.115 C 
ATOM     10  C   UNL     1      -2.771   1.617  24.994  0.00  0.00    +0.117 C 
ATOM     11  N   UNL     1      -2.753   0.812  25.177  0.00  0.00    -0.254 N 
ATOM     12  C   UNL     1      -3.351   0.249  25.246  0.00  0.00    +0.314 C 
ATOM     13  O   UNL     1      -4.158   0.383  25.140  0.00  0.00    -0.252 OA
ATOM     14  C   UNL     1      -0.646   2.108  25.086  0.00  0.00    +0.251 C 
ATOM     15  O   UNL     1       0.074   1.735  25.238  0.00  0.00    -0.270 OA
ENDROOT
BRANCH  14  16
ATOM     16  C   UNL     1      -0.663   2.912  24.904  0.00  0.00    +0.073 A 
ATOM     17  C   UNL     1      -0.522   3.163  24.131  0.00  0.00    +0.103 A 
ATOM     18  N   UNL     1      -0.540   3.967  23.948  0.00  0.00    -0.242 NA
ATOM     19  C   UNL     1      -0.699   4.521  24.539  0.00  0.00    +0.099 A 
ATOM     20  C   UNL     1      -0.840   4.270  25.312  0.00  0.00    +0.021 A 
ATOM     21  C   UNL     1      -0.822   3.465  25.495  0.00  0.00    +0.008 A 
ENDBRANCH  14  16
BRANCH   3   2
ATOM      1  C   UNL     1      -3.633  -1.401  26.324  0.00  0.00    +0.027 C 
ATOM      2  C   UNL     1      -3.396  -1.186  25.564  0.00  0.00    +0.106 C 
BRANCH   2  22
ATOM     22  C   UNL     1      -3.555  -1.685  24.926  0.00  0.00    -0.004 A 
ATOM     23  C   UNL     1      -4.145  -1.487  24.384  0.00  0.00    -0.003 A 
ATOM     24  C   UNL     1      -4.303  -1.986  23.747  0.00  0.00    -0.000 A 
ATOM     25  C   UNL     1      -3.872  -2.683  23.651  0.00  0.00    -0.000 A 
ATOM     26  C   UNL     1      -3.282  -2.881  24.193  0.00  0.00    -0.000 A 
ATOM     27  C   UNL     1      -3.124  -2.382  24.831  0.00  0.00    -0.003 A 
ENDBRANCH   2  22
ENDBRANCH   3   2
TORSDOF 3
ENDMDL
MODEL 2
REMARK VINA RESULT:     -11.8      1.598      5.228
REMARK  Name = 
REMARK  3 active torsions:
REMARK  status: ('A' for Active; 'I' for Inactive)
REMARK    1  A    between atoms: C_2  and  N_3
REMARK    2  A    between atoms: C_2  and  C_22
REMARK    3  A    between atoms: C_14  and  C_16
REMARK                            x       y       z     vdW  Elec       q    Type
REMARK                         _______ _______ _______ _____ _____    ______ ____
ROOT
ATOM      3  N   UNL     1      -3.306   2.636  24.348  0.00  0.00    -0.210 N 
ATOM      4  C   UNL     1      -3.665   2.179  24.934  0.00  0.00    +0.253 C 
ATOM      5  O   UNL     1      -4.043   2.466  25.608  0.00  0.00    -0.273 OA
ATOM      6  C   UNL     1      -3.578   1.386  24.727  0.00  0.00    +0.174 C 
ATOM      7  C   UNL     1      -3.820   0.689  25.096  0.00  0.00    +0.123 C 
ATOM      8  N   UNL     1      -3.651  -0.041  24.752  0.00  0.00    -0.272 N 
ATOM      9  C   UNL     1      -3.239  -0.075  24.038  0.00  0.00    +0.115 C 
ATOM     10  C   UNL     1      -2.996   0.621  23.668  0.00  0.00    +0.117 C 
ATOM     11  N   UNL     1      -3.165   1.352  24.013  0.00  0.00    -0.254 N 
ATOM     12  C   UNL     1      -2.998   2.125  23.779  0.00  0.00    +0.314 C 
ATOM     13  O   UNL     1      -2.592   2.347  23.095  0.00  0.00    -0.252 OA
ATOM     14  C   UNL     1      -3.894  -0.738  25.121  0.00  0.00    +0.251 C 
ATOM     15  O   UNL     1      -4.306  -0.704  25.835  0.00  0.00    -0.270 OA
ENDROOT
BRANCH  14  16
ATOM     16  C   UNL     1      -3.725  -1.468  24.777  0.00  0.00    +0.073 A 
ATOM     17  C   UNL     1      -3.045  -1.881  24.997  0.00  0.00    +0.103 A 
ATOM     18  N   UNL     1      -2.876  -2.611  24.653  0.00  0.00    -0.242 NA
ATOM     19  C   UNL     1      -3.387  -2.929  24.088  0.00  0.00    +0.099 A 
ATOM     20  C   UNL     1      -4.066  -2.516  23.867  0.00  0.00    +0.021 A 
ATOM     21  C   UNL     1      -4.235  -1.785  24.212  0.00  0.00    +0.008 A 
ENDBRANCH  14  16
BRANCH   3   2
ATOM      1  C   UNL     1      -3.842   3.897  23.940  0.00  0.00    +0.027 C 
ATOM      2  C   UNL     1      -3.263   3.460  24.333  0.00  0.00    +0.106 C 
BRANCH   2  22
ATOM     22  C   UNL     1      -2.641   3.848  24.713  0.00  0.00    -0.004 A 
ATOM     23  C   UNL     1      -1.897   3.880  24.357  0.00  0.00    -0.003 A 
ATOM     24  C   UNL     1      -1.276   4.268  24.736  0.00  0.00    -0.000 A 
ATOM     25  C   UNL     1      -1.398   4.624  25.471  0.00  0.00    -0.000 A 
ATOM     26  C   UNL     1      -2.141   4.591  25.826  0.00  0.00    -0.000 A 
ATOM     27  C   UNL     1      -2.764   4.203  25.447  0.00  0.00    -0.003 A 
ENDBRANCH   2  22
ENDBRANCH   3   2
TORSDOF 3
ENDMDL
MODEL 3
REMARK VINA RESULT:     -11.4      1.068      5.086
REMARK  Name = 
REMARK  3 active torsions:
REMARK  status: ('A' for Active; 'I' for Inactive)
REMARK    1  A    between atoms: C_2  and  N_3
REMARK    2  A    between atoms: C_2  and  C_22
REMARK    3  A    between atoms: C_14  and  C_16
REMARK                            x       y       z     vdW  Elec       q    Type
REMARK                         _______ _______ _______ _____ _____    ______ ____
ROOT
ATOM      3  N   UNL     1      -0.942   2.345  24.837  0.00  0.00    -0.210 N 
ATOM      4  C   UNL     1      -0.904   1.783  25.440  0.00  0.00    +0.253 C 
ATOM      5  O   UNL     1      -0.516   1.871  26.162  0.00  0.00    -0.273 OA
ATOM      6  C   UNL     1      -1.323   1.117  25.193  0.00  0.00    +0.174 C 
ATOM      7  C   UNL     1      -1.473   0.392  25.558  0.00  0.00    +0.123 C 
ATOM      8  N   UNL     1      -1.919  -0.182  25.168  0.00  0.00    -0.272 N 
ATOM      9  C   UNL     1      -2.215  -0.031  24.413  0.00  0.00    +0.115 C 
ATOM     10  C   UNL     1      -2.066   0.693  24.047  0.00  0.00    +0.117 C 
ATOM     11  N   UNL     1      -1.619   1.267  24.438  0.00  0.00    -0.254 N 
ATOM     12  C   UNL     1      -1.384   2.026  24.218  0.00  0.00    +0.314 C 
ATOM     13  O   UNL     1      -1.560   2.401  23.504  0.00  0.00    -0.252 OA
ATOM     14  C   UNL     1      -2.069  -0.907  25.533  0.00  0.00    +0.251 C 
ATOM     15  O   UNL     1      -1.772  -1.057  26.288  0.00  0.00    -0.270 OA
ENDROOT
BRANCH  14  16
ATOM     16  C   UNL     1      -2.515  -1.480  25.143  0.00  0.00    +0.073 A 
ATOM     17  C   UNL     1      -2.141  -2.045  24.672  0.00  0.00    +0.103 A 
ATOM     18  N   UNL     1      -2.587  -2.619  24.282  0.00  0.00    -0.242 NA
ATOM     19  C   UNL     1      -3.408  -2.629  24.364  0.00  0.00    +0.099 A 
ATOM     20  C   UNL     1      -3.783  -2.065  24.835  0.00  0.00    +0.021 A 
ATOM     21  C   UNL     1      -3.336  -1.491  25.225  0.00  0.00    +0.008 A 
ENDBRANCH  14  16
BRANCH   3   2
ATOM      1  C   UNL     1       0.199   3.187  24.660  0.00  0.00    +0.027 C 
ATOM      2  C   UNL     1      -0.598   3.095  24.851  0.00  0.00    +0.106 C 
BRANCH   2  22
ATOM     22  C   UNL     1      -1.051   3.753  25.057  0.00  0.00    -0.004 A 
ATOM     23  C   UNL     1      -1.661   3.679  25.608  0.00  0.00    -0.003 A 
ATOM     24  C   UNL     1      -2.114   4.337  25.813  0.00  0.00    -0.000 A 
ATOM     25  C   UNL     1      -1.957   5.070  25.468  0.00  0.00    -0.000 A 
ATOM     26  C   UNL     1      -1.348   5.144  24.917  0.00  0.00    -0.000 A 
ATOM     27  C   UNL     1      -0.894   4.486  24.711  0.00  0.00    -0.003 A 
ENDBRANCH   2  22
ENDBRANCH   3   2
TORSDOF 3
ENDMDL
MODEL 4
REMARK VINA RESULT:      -8.8     15.644     18.588
REMARK  Name = 
REMARK  3 active torsions:
REMARK  status: ('A' for Active; 'I' for Inactive)
REMARK    1  A    between atoms: C_2  and  N_3
REMARK    2  A    between atoms: C_2  and  C_22
REMARK    3  A    between atoms: C_14  and  C_16
REMARK                            x       y       z     vdW  Elec       q    Type
REMARK                         _______ _______ _______ _____ _____    ______ ____
ROOT
ATOM      3  N   UNL     1      15.298   7.769  20.417  0.00  0.00    -0.210 N 
ATOM      4  C   UNL     1      14.651   7.754  19.903  0.00  0.00    +0.253 C 
ATOM      5  O   UNL     1      14.686   7.784  19.080  0.00  0.00    -0.273 OA
ATOM      6  C   UNL     1      13.966   7.705  20.358  0.00  0.00    +0.174 C 
ATOM      7  C   UNL     1      13.167   7.672  20.153  0.00  0.00    +0.123 C 
ATOM      8  N   UNL     1      12.591   7.624  20.741  0.00  0.00    -0.272 N 
ATOM      9  C   UNL     1      12.813   7.608  21.535  0.00  0.00    +0.115 C 
ATOM     10  C   UNL     1      13.611   7.640  21.742  0.00  0.00    +0.117 C 
ATOM     11  N   UNL     1      14.188   7.689  21.153  0.00  0.00    -0.254 N 
ATOM     12  C   UNL     1      15.010   7.728  21.189  0.00  0.00    +0.314 C 
ATOM     13  O   UNL     1      15.467   7.728  21.877  0.00  0.00    -0.252 OA
ATOM     14  C   UNL     1      11.793   7.591  20.535  0.00  0.00    +0.251 C 
ATOM     15  O   UNL     1      11.571   7.608  19.741  0.00  0.00    -0.270 OA
ENDROOT
BRANCH  14  16
ATOM     16  C   UNL     1      11.217   7.543  21.123  0.00  0.00    +0.073 A 
ATOM     17  C   UNL     1      10.982   6.807  21.412  0.00  0.00    +0.103 A 
ATOM     18  N   UNL     1      10.406   6.758  21.999  0.00  0.00    -0.242 NA
ATOM     19  C   UNL     1      10.064   7.446  22.299  0.00  0.00    +0.099 A 
ATOM     20  C   UNL     1      10.298   8.183  22.011  0.00  0.00    +0.021 A 
ATOM     21  C   UNL     1      10.875   8.231  21.423  0.00  0.00    +0.008 A 
ENDBRANCH  14  16
BRANCH   3   2
ATOM      1  C   UNL     1      16.459   8.551  20.132  0.00  0.00    +0.027 C 
ATOM      2  C   UNL     1      16.091   7.816  20.196  0.00  0.00    +0.106 C 
BRANCH   2  22
ATOM     22  C   UNL     1      16.518   7.126  20.040  0.00  0.00    -0.004 A 
ATOM     23  C   UNL     1      16.979   6.783  20.631  0.00  0.00    -0.003 A 
ATOM     24  C   UNL     1      17.404   6.094  20.475  0.00  0.00    -0.000 A 
ATOM     25  C   UNL     1      17.370   5.748  19.727  0.00  0.00    -0.000 A 
ATOM     26  C   UNL     1      16.909   6.091  19.135  0.00  0.00    -0.000 A 
ATOM     27  C   UNL     1      16.482   6.781  19.291  0.00  0.00    -0.003 A 
ENDBRANCH   2  22
ENDBRANCH   3   2
TORSDOF 3
ENDMDL
MODEL 5
REMARK VINA RESULT:      -8.7     15.473     18.205
REMARK  Name = 
REMARK  3 active torsions:
REMARK  status: ('A' for Active; 'I' for Inactive)
REMARK    1  A    between atoms: C_2  and  N_3
REMARK    2  A    between atoms: C_2  and  C_22
REMARK    3  A    between atoms: C_14  and  C_16
REMARK                            x       y       z     vdW  Elec       q    Type
REMARK                         _______ _______ _______ _____ _____    ______ ____
ROOT
ATOM      3  N   UNL     1      12.213   7.802  20.333  0.00  0.00    -0.210 N 
ATOM      4  C   UNL     1      12.823   8.293  20.073  0.00  0.00    +0.253 C 
ATOM      5  O   UNL     1      12.756   9.094  19.887  0.00  0.00    -0.273 OA
ATOM      6  C   UNL     1      13.512   7.842  20.031  0.00  0.00    +0.174 C 
ATOM      7  C   UNL     1      14.284   8.031  19.811  0.00  0.00    +0.123 C 
ATOM      8  N   UNL     1      14.871   7.452  19.824  0.00  0.00    -0.272 N 
ATOM      9  C   UNL     1      14.686   6.683  20.058  0.00  0.00    +0.115 C 
ATOM     10  C   UNL     1      13.915   6.492  20.279  0.00  0.00    +0.117 C 
ATOM     11  N   UNL     1      13.327   7.072  20.265  0.00  0.00    -0.254 N 
ATOM     12  C   UNL     1      12.525   7.048  20.452  0.00  0.00    +0.314 C 
ATOM     13  O   UNL     1      12.106   6.386  20.711  0.00  0.00    -0.252 OA
ATOM     14  C   UNL     1      15.644   7.641  19.603  0.00  0.00    +0.251 C 
ATOM     15  O   UNL     1      15.828   8.411  19.369  0.00  0.00    -0.270 OA
ENDROOT
BRANCH  14  16
ATOM     16  C   UNL     1      16.230   7.063  19.617  0.00  0.00    +0.073 A 
ATOM     17  C   UNL     1      16.286   6.516  19.001  0.00  0.00    +0.103 A 
ATOM     18  N   UNL     1      16.873   5.937  19.014  0.00  0.00    -0.242 NA
ATOM     19  C   UNL     1      17.405   5.904  19.644  0.00  0.00    +0.099 A 
ATOM     20  C   UNL     1      17.351   6.450  20.260  0.00  0.00    +0.021 A 
ATOM     21  C   UNL     1      16.763   7.030  20.246  0.00  0.00    +0.008 A 
ENDBRANCH  14  16
BRANCH   3   2
ATOM      1  C   UNL     1      10.911   8.081  19.812  0.00  0.00    +0.027 C 
ATOM      2  C   UNL     1      11.428   8.027  20.452  0.00  0.00    +0.106 C 
BRANCH   2  22
ATOM     22  C   UNL     1      11.159   8.199  21.214  0.00  0.00    -0.004 A 
ATOM     23  C   UNL     1      11.343   8.923  21.564  0.00  0.00    -0.003 A 
ATOM     24  C   UNL     1      11.075   9.094  22.324  0.00  0.00    -0.000 A 
ATOM     25  C   UNL     1      10.621   8.541  22.736  0.00  0.00    -0.000 A 
ATOM     26  C   UNL     1      10.437   7.816  22.387  0.00  0.00    -0.000 A 
ATOM     27  C   UNL     1      10.706   7.645  21.625  0.00  0.00    -0.003 A 
ENDBRANCH   2  22
ENDBRANCH   3   2
TORSDOF 3
ENDMDL
MODEL 6
REMARK VINA RESULT:      -8.1     17.185     19.067
REMARK  Name = 
REMARK  3 active torsions:
REMARK  status: ('A' for Active; 'I' for Inactive)
REMARK    1  A    between atoms: C_2  and  N_3
REMARK    2  A    between atoms: C_2  and  C_22
REMARK    3  A    between atoms: C_14  and  C_16
REMARK                            x       y       z     vdW  Elec       q    Type
REMARK                         _______ _______ _______ _____ _____    ______ ____
ROOT
ATOM      3  N   UNL     1      14.812   7.079  19.974  0.00  0.00    -0.210 N 
ATOM      4  C   UNL     1      14.107   7.456  20.179  0.00  0.00    +0.253 C 
ATOM      5  O   UNL     1      13.866   7.653  20.942  0.00  0.00    -0.273 OA
ATOM      6  C   UNL     1      13.685   7.601  19.485  0.00  0.00    +0.174 C 
ATOM      7  C   UNL     1      12.954   7.958  19.347  0.00  0.00    +0.123 C 
ATOM      8  N   UNL     1      12.667   8.027  18.577  0.00  0.00    -0.272 N 
ATOM      9  C   UNL     1      13.112   7.740  17.944  0.00  0.00    +0.115 C 
ATOM     10  C   UNL     1      13.843   7.383  18.081  0.00  0.00    +0.117 C 
ATOM     11  N   UNL     1      14.130   7.314  18.852  0.00  0.00    -0.254 N 
ATOM     12  C   UNL     1      14.826   6.992  19.154  0.00  0.00    +0.314 C 
ATOM     13  O   UNL     1      15.430   6.642  18.714  0.00  0.00    -0.252 OA
ATOM     14  C   UNL     1      11.936   8.384  18.439  0.00  0.00    +0.251 C 
ATOM     15  O   UNL     1      11.492   8.671  19.072  0.00  0.00    -0.270 OA
ENDROOT
BRANCH  14  16
ATOM     16  C   UNL     1      11.649   8.453  17.669  0.00  0.00    +0.073 A 
ATOM     17  C   UNL     1      11.048   7.953  17.405  0.00  0.00    +0.103 A 
ATOM     18  N   UNL     1      10.762   8.022  16.636  0.00  0.00    -0.242 NA
ATOM     19  C   UNL     1      11.075   8.592  16.129  0.00  0.00    +0.099 A 
ATOM     20  C   UNL     1      11.676   9.093  16.391  0.00  0.00    +0.021 A 
ATOM     21  C   UNL     1      11.963   9.023  17.162  0.00  0.00    +0.008 A 
ENDBRANCH  14  16
BRANCH   3   2
ATOM      1  C   UNL     1      15.355   6.088  20.848  0.00  0.00    +0.027 C 
ATOM      2  C   UNL     1      15.400   6.833  20.498  0.00  0.00    +0.106 C 
BRANCH   2  22
ATOM     22  C   UNL     1      16.033   7.334  20.673  0.00  0.00    -0.004 A 
ATOM     23  C   UNL     1      15.927   7.970  21.187  0.00  0.00    -0.003 A 
ATOM     24  C   UNL     1      16.559   8.469  21.361  0.00  0.00    -0.000 A 
ATOM     25  C   UNL     1      17.299   8.333  21.021  0.00  0.00    -0.000 A 
ATOM     26  C   UNL     1      17.405   7.697  20.507  0.00  0.00    -0.000 A 
ATOM     27  C   UNL     1      16.772   7.197  20.332  0.00  0.00    -0.003 A 
ENDBRANCH   2  22
ENDBRANCH   3   2
TORSDOF 3
ENDMDL
