MODEL 1
REMARK VINA RESULT:     -11.8      0.000      0.000
REMARK  Name = 
REMARK  3 active torsions:
REMARK  status: ('A' for Active; 'I' for Inactive)
REMARK    1  A    between atoms: C_3  and  N_4
REMARK    2  A    between atoms: N_7  and  C_8
REMARK    3  A    between atoms: C_20  and  N_21
REMARK                            x       y       z     vdW  Elec       q    Type
REMARK                         _______ _______ _______ _____ _____    ______ ____
ROOT
ATOM      1  O   UNL     1      -1.964   2.587  25.369  0.00  0.00    -0.220 OA
ATOM      2  C   UNL     1      -2.559   2.486  24.806  0.00  0.00    +0.194 C 
ATOM      3  C   UNL     1      -3.007   2.135  24.204  0.00  0.00    +0.158 C 
ATOM     15  C   UNL     1      -3.645   2.802  24.098  0.00  0.00    +0.170 C 
ATOM     16  C   UNL     1      -3.561   3.418  24.565  0.00  0.00    +0.176 C 
ATOM     17  O   UNL     1      -3.829   4.065  24.757  0.00  0.00    -0.327 OA
ATOM     18  C   UNL     1      -3.776   3.305  24.312  0.00  0.00    +0.253 C 
ATOM     19  O   UNL     1      -4.224   2.958  23.713  0.00  0.00    -0.327 OA
ATOM     20  C   UNL     1      -3.102   2.616  24.434  0.00  0.00    +0.147 C 
ENDROOT
BRANCH  20  21
ATOM     21  N   UNL     1      -2.961   3.241  24.954  0.00  0.00    -0.268 NA
ATOM     22  C   UNL     1      -3.336   3.363  25.679  0.00  0.00    +0.072 C 
ATOM     23  C   UNL     1      -3.027   4.051  26.014  0.00  0.00    +0.019 C 
ATOM     24  C   UNL     1      -2.461   4.354  25.495  0.00  0.00    +0.019 C 
ATOM     25  C   UNL     1      -2.421   3.854  24.841  0.00  0.00    +0.072 C 
ENDBRANCH  20  21
BRANCH   3   4
ATOM      4  N   UNL     1      -2.915   1.412  23.816  0.00  0.00    -0.183 NA
ATOM      5  C   UNL     1      -3.086   0.708  24.210  0.00  0.00    +0.344 C 
ATOM      6  O   UNL     1      -3.350   0.727  24.993  0.00  0.00    -0.249 OA
ATOM      7  N   UNL     1      -2.994  -0.014  23.823  0.00  0.00    -0.161 NA
BRANCH   7   8
ATOM      8  C   UNL     1      -3.166  -0.718  24.217  0.00  0.00    +0.075 A 
ATOM      9  C   UNL     1      -2.592  -1.076  24.691  0.00  0.00    +0.019 A 
ATOM     10  C   UNL     1      -2.763  -1.780  25.085  0.00  0.00    +0.031 A 
ATOM     11  C   UNL     1      -3.508  -2.127  25.006  0.00  0.00    +0.140 A 
ATOM     12  F   UNL     1      -3.679  -2.831  25.400  0.00  0.00    -0.204 F 
ATOM     13  C   UNL     1      -4.081  -1.769  24.532  0.00  0.00    +0.031 A 
ATOM     14  C   UNL     1      -3.910  -1.066  24.138  0.00  0.00    +0.019 A 
ENDBRANCH   7   8
ENDBRANCH   3   4
TORSDOF 3
ENDMDL
MODEL 2
REMARK VINA RESULT:     -11.2      1.853      4.539
REMARK  Name = 
REMARK  3 active torsions:
REMARK  status: ('A' for Active; 'I' for Inactive)
REMARK    1  A    between atoms: C_3  and  N_4
REMARK    2  A    between atoms: N_7  and  C_8
REMARK    3  A    between atoms: C_20  and  N_21
REMARK                            x       y       z     vdW  Elec       q    Type
REMARK                         _______ _______ _______ _____ _____    ______ ____
ROOT
ATOM      1  O   UNL     1      -2.059  -0.906  25.009  0.00  0.00    -0.220 OA
ATOM      2  C   UNL     1      -2.690  -0.557  24.608  0.00  0.00    +0.194 C 
ATOM      3  C   UNL     1      -3.128   0.011  24.193  0.00  0.00    +0.158 C 
ATOM     15  C   UNL     1      -3.913  -0.473  24.080  0.00  0.00    +0.170 C 
ATOM     16  C   UNL     1      -3.907  -1.189  24.383  0.00  0.00    +0.176 C 
ATOM     17  O   UNL     1      -4.287  -1.799  24.486  0.00  0.00    -0.327 OA
ATOM     18  C   UNL     1      -4.124  -0.978  24.207  0.00  0.00    +0.253 C 
ATOM     19  O   UNL     1      -4.563  -0.414  23.794  0.00  0.00    -0.327 OA
ATOM     20  C   UNL     1      -3.298  -0.484  24.333  0.00  0.00    +0.147 C 
ENDROOT
BRANCH  20  21
ATOM     21  N   UNL     1      -3.231  -1.232  24.674  0.00  0.00    -0.268 NA
ATOM     22  C   UNL     1      -2.930  -1.907  24.307  0.00  0.00    +0.072 C 
ATOM     23  C   UNL     1      -2.967  -2.530  24.848  0.00  0.00    +0.019 C 
ATOM     24  C   UNL     1      -3.292  -2.239  25.548  0.00  0.00    +0.019 C 
ATOM     25  C   UNL     1      -3.455  -1.438  25.440  0.00  0.00    +0.072 C 
ENDBRANCH  20  21
BRANCH   3   4
ATOM      4  N   UNL     1      -2.928   0.776  23.953  0.00  0.00    -0.183 NA
ATOM      5  C   UNL     1      -2.943   1.396  24.497  0.00  0.00    +0.344 C 
ATOM      6  O   UNL     1      -3.159   1.252  25.281  0.00  0.00    -0.249 OA
ATOM      7  N   UNL     1      -2.744   2.159  24.257  0.00  0.00    -0.161 NA
BRANCH   7   8
ATOM      8  C   UNL     1      -2.759   2.779  24.801  0.00  0.00    +0.075 A 
ATOM      9  C   UNL     1      -2.068   3.001  25.193  0.00  0.00    +0.019 A 
ATOM     10  C   UNL     1      -2.083   3.621  25.737  0.00  0.00    +0.031 A 
ATOM     11  C   UNL     1      -2.789   4.020  25.889  0.00  0.00    +0.140 A 
ATOM     12  F   UNL     1      -2.805   4.640  26.433  0.00  0.00    -0.204 F 
ATOM     13  C   UNL     1      -3.480   3.798  25.497  0.00  0.00    +0.031 A 
ATOM     14  C   UNL     1      -3.465   3.178  24.953  0.00  0.00    +0.019 A 
ENDBRANCH   7   8
ENDBRANCH   3   4
TORSDOF 3
ENDMDL
