MODEL 1
REMARK VINA RESULT:     -10.6      0.000      0.000
REMARK  Name = 
REMARK  8 active torsions:
REMARK  status: ('A' for Active; 'I' for Inactive)
REMARK    1  A    between atoms: C_1  and  N_2
REMARK    2  A    between atoms: C_1  and  C_21
REMARK    3  A    between atoms: N_2  and  C_3
REMARK    4  A    between atoms: C_3  and  C_4
REMARK    5  A    between atoms: C_4  and  C_5
REMARK    6  A    between atoms: C_8  and  C_9
REMARK    7  A    between atoms: C_9  and  O_10
REMARK    8  A    between atoms: O_10  and  C_11
REMARK                            x       y       z     vdW  Elec       q    Type
REMARK                         _______ _______ _______ _____ _____    ______ ____
ROOT
ATOM      5  C   UNL     1      -4.386   2.159  24.691  0.00  0.00    +0.102 A 
ATOM      6  N   UNL     1      -5.087   1.835  24.987  0.00  0.00    -0.082 NA
ATOM      7  O   UNL     1      -5.039   1.015  24.915  0.00  0.00    -0.354 OA
ATOM      8  C   UNL     1      -4.310   0.831  24.575  0.00  0.00    +0.198 A 
ATOM     17  C   UNL     1      -3.906   1.538  24.437  0.00  0.00    +0.057 A 
ENDROOT
BRANCH   5   4
ATOM      4  C   UNL     1      -4.200   2.961  24.657  0.00  0.00    +0.070 C 
BRANCH   4   3
ATOM      3  C   UNL     1      -4.179   3.410  25.349  0.00  0.00    +0.120 C 
ATOM     18  C   UNL     1      -4.158   3.860  26.041  0.00  0.00    +0.161 C 
ATOM     19  O   UNL     1      -4.983   3.875  26.056  0.00  0.00    -0.351 OA
ATOM     20  C   UNL     1      -5.004   3.426  25.364  0.00  0.00    +0.161 C 
BRANCH   3   2
ATOM      2  N   UNL     1      -3.354   3.395  25.334  0.00  0.00    -0.207 NA
BRANCH   2   1
ATOM      1  C   UNL     1      -2.925   4.071  25.530  0.00  0.00    +0.153 C 
BRANCH   1  21
ATOM     21  C   UNL     1      -2.109   4.090  25.411  0.00  0.00    +0.141 A 
ATOM     22  C   UNL     1      -1.685   4.700  25.052  0.00  0.00    +0.038 A 
ATOM     23  C   UNL     1      -0.887   4.490  25.049  0.00  0.00    +0.043 A 
ATOM     24  C   UNL     1      -0.818   3.750  25.407  0.00  0.00    +0.179 A 
ATOM     25  O   UNL     1      -1.572   3.503  25.630  0.00  0.00    -0.453 OA
ENDBRANCH   1  21
ENDBRANCH   2   1
ENDBRANCH   3   2
ENDBRANCH   4   3
ENDBRANCH   5   4
BRANCH   8   9
ATOM      9  C   UNL     1      -4.032   0.073  24.404  0.00  0.00    +0.272 C 
BRANCH   9  10
ATOM     10  O   UNL     1      -4.352  -0.581  24.791  0.00  0.00    -0.467 OA
BRANCH  10  11
ATOM     11  C   UNL     1      -4.047  -1.335  24.650  0.00  0.00    +0.139 A 
ATOM     12  C   UNL     1      -4.271  -1.749  23.972  0.00  0.00    +0.037 A 
ATOM     13  C   UNL     1      -3.966  -2.502  23.830  0.00  0.00    +0.003 A 
ATOM     14  C   UNL     1      -3.437  -2.841  24.366  0.00  0.00    +0.000 A 
ATOM     15  C   UNL     1      -3.214  -2.426  25.043  0.00  0.00    +0.003 A 
ATOM     16  C   UNL     1      -3.519  -1.673  25.185  0.00  0.00    +0.037 A 
ENDBRANCH  10  11
ENDBRANCH   9  10
ENDBRANCH   8   9
TORSDOF 8
ENDMDL
MODEL 2
REMARK VINA RESULT:      -9.6      1.784      2.896
REMARK  Name = 
REMARK  8 active torsions:
REMARK  status: ('A' for Active; 'I' for Inactive)
REMARK    1  A    between atoms: C_1  and  N_2
REMARK    2  A    between atoms: C_1  and  C_21
REMARK    3  A    between atoms: N_2  and  C_3
REMARK    4  A    between atoms: C_3  and  C_4
REMARK    5  A    between atoms: C_4  and  C_5
REMARK    6  A    between atoms: C_8  and  C_9
REMARK    7  A    between atoms: C_9  and  O_10
REMARK    8  A    between atoms: O_10  and  C_11
REMARK                            x       y       z     vdW  Elec       q    Type
REMARK                         _______ _______ _______ _____ _____    ______ ____
ROOT
ATOM      5  C   UNL     1      -0.972   1.032  25.085  0.00  0.00    +0.102 A 
ATOM      6  N   UNL     1      -0.764   0.608  25.762  0.00  0.00    -0.082 NA
ATOM      7  O   UNL     1      -1.114  -0.138  25.715  0.00  0.00    -0.354 OA
ATOM      8  C   UNL     1      -1.539  -0.175  25.008  0.00  0.00    +0.198 A 
ATOM     17  C   UNL     1      -1.451   0.548  24.619  0.00  0.00    +0.057 A 
ENDROOT
BRANCH   5   4
ATOM      4  C   UNL     1      -0.742   1.803  24.906  0.00  0.00    +0.070 C 
BRANCH   4   3
ATOM      3  C   UNL     1      -0.540   2.324  25.512  0.00  0.00    +0.120 C 
ATOM     18  C   UNL     1      -0.337   2.847  26.119  0.00  0.00    +0.161 C 
ATOM     19  O   UNL     1       0.439   2.569  26.098  0.00  0.00    -0.351 OA
ATOM     20  C   UNL     1       0.237   2.047  25.492  0.00  0.00    +0.161 C 
BRANCH   3   2
ATOM      2  N   UNL     1      -1.316   2.602  25.533  0.00  0.00    -0.207 NA
BRANCH   2   1
ATOM      1  C   UNL     1      -1.465   3.413  25.528  0.00  0.00    +0.153 C 
BRANCH   1  21
ATOM     21  C   UNL     1      -2.240   3.690  25.473  0.00  0.00    +0.141 A 
ATOM     22  C   UNL     1      -2.718   3.925  26.103  0.00  0.00    +0.038 A 
ATOM     23  C   UNL     1      -3.447   4.161  25.797  0.00  0.00    +0.043 A 
ATOM     24  C   UNL     1      -3.420   4.071  24.978  0.00  0.00    +0.179 A 
ATOM     25  O   UNL     1      -2.675   3.781  24.777  0.00  0.00    -0.453 OA
ENDBRANCH   1  21
ENDBRANCH   2   1
ENDBRANCH   3   2
ENDBRANCH   4   3
ENDBRANCH   5   4
BRANCH   8   9
ATOM      9  C   UNL     1      -1.975  -0.821  24.738  0.00  0.00    +0.272 C 
BRANCH   9  10
ATOM     10  O   UNL     1      -2.722  -0.975  25.052  0.00  0.00    -0.467 OA
BRANCH  10  11
ATOM     11  C   UNL     1      -3.212  -1.535  24.696  0.00  0.00    +0.139 A 
ATOM     12  C   UNL     1      -3.826  -1.290  24.201  0.00  0.00    +0.037 A 
ATOM     13  C   UNL     1      -4.315  -1.850  23.845  0.00  0.00    +0.003 A 
ATOM     14  C   UNL     1      -4.192  -2.654  23.984  0.00  0.00    +0.000 A 
ATOM     15  C   UNL     1      -3.579  -2.898  24.479  0.00  0.00    +0.003 A 
ATOM     16  C   UNL     1      -3.089  -2.338  24.835  0.00  0.00    +0.037 A 
ENDBRANCH  10  11
ENDBRANCH   9  10
ENDBRANCH   8   9
TORSDOF 8
ENDMDL
MODEL 3
REMARK VINA RESULT:      -9.4      2.192      5.972
REMARK  Name = 
REMARK  8 active torsions:
REMARK  status: ('A' for Active; 'I' for Inactive)
REMARK    1  A    between atoms: C_1  and  N_2
REMARK    2  A    between atoms: C_1  and  C_21
REMARK    3  A    between atoms: N_2  and  C_3
REMARK    4  A    between atoms: C_3  and  C_4
REMARK    5  A    between atoms: C_4  and  C_5
REMARK    6  A    between atoms: C_8  and  C_9
REMARK    7  A    between atoms: C_9  and  O_10
REMARK    8  A    between atoms: O_10  and  C_11
REMARK                            x       y       z     vdW  Elec       q    Type
REMARK                         _______ _______ _______ _____ _____    ______ ____
ROOT
ATOM      5  C   UNL     1      -1.103   0.153  25.345  0.00  0.00    +0.102 A 
ATOM      6  N   UNL     1      -0.547   0.247  24.741  0.00  0.00    -0.082 NA
ATOM      7  O   UNL     1      -0.393   1.053  24.659  0.00  0.00    -0.354 OA
ATOM      8  C   UNL     1      -0.853   1.458  25.212  0.00  0.00    +0.198 A 
ATOM     17  C   UNL     1      -1.292   0.901  25.636  0.00  0.00    +0.057 A 
ENDROOT
BRANCH   5   4
ATOM      4  C   UNL     1      -1.414  -0.563  25.610  0.00  0.00    +0.070 C 
BRANCH   4   3
ATOM      3  C   UNL     1      -1.233  -1.264  25.214  0.00  0.00    +0.120 C 
ATOM     18  C   UNL     1      -1.052  -1.965  24.818  0.00  0.00    +0.161 C 
ATOM     19  O   UNL     1      -0.319  -1.989  25.196  0.00  0.00    -0.351 OA
ATOM     20  C   UNL     1      -0.500  -1.288  25.592  0.00  0.00    +0.161 C 
BRANCH   3   2
ATOM      2  N   UNL     1      -1.966  -1.240  24.836  0.00  0.00    -0.207 NA
BRANCH   2   1
ATOM      1  C   UNL     1      -2.503  -1.857  24.938  0.00  0.00    +0.153 C 
BRANCH   1  21
ATOM     21  C   UNL     1      -3.226  -1.844  24.541  0.00  0.00    +0.141 A 
ATOM     22  C   UNL     1      -3.635  -2.502  24.254  0.00  0.00    +0.038 A 
ATOM     23  C   UNL     1      -4.329  -2.235  23.897  0.00  0.00    +0.043 A 
ATOM     24  C   UNL     1      -4.350  -1.413  23.963  0.00  0.00    +0.179 A 
ATOM     25  O   UNL     1      -3.669  -1.172  24.360  0.00  0.00    -0.453 OA
ENDBRANCH   1  21
ENDBRANCH   2   1
ENDBRANCH   3   2
ENDBRANCH   4   3
ENDBRANCH   5   4
BRANCH   8   9
ATOM      9  C   UNL     1      -0.872   2.275  25.322  0.00  0.00    +0.272 C 
BRANCH   9  10
ATOM     10  O   UNL     1      -1.292   2.753  24.796  0.00  0.00    -0.467 OA
BRANCH  10  11
ATOM     11  C   UNL     1      -1.354   3.564  24.935  0.00  0.00    +0.139 A 
ATOM     12  C   UNL     1      -0.739   4.068  24.714  0.00  0.00    +0.037 A 
ATOM     13  C   UNL     1      -0.802   4.879  24.853  0.00  0.00    +0.003 A 
ATOM     14  C   UNL     1      -1.478   5.185  25.213  0.00  0.00    +0.000 A 
ATOM     15  C   UNL     1      -2.093   4.680  25.433  0.00  0.00    +0.003 A 
ATOM     16  C   UNL     1      -2.030   3.870  25.294  0.00  0.00    +0.037 A 
ENDBRANCH  10  11
ENDBRANCH   9  10
ENDBRANCH   8   9
TORSDOF 8
ENDMDL
