MODEL 1
REMARK VINA RESULT:     -11.2      0.000      0.000
REMARK  Name = 
REMARK  2 active torsions:
REMARK  status: ('A' for Active; 'I' for Inactive)
REMARK    1  A    between atoms: C_7  and  C_9
REMARK    2  A    between atoms: N_12  and  C_14
REMARK                            x       y       z     vdW  Elec       q    Type
REMARK                         _______ _______ _______ _____ _____    ______ ____
ROOT
ATOM      1  C   UNL     1      -4.120  -2.478  23.883  0.00  0.00    +0.031 C 
ATOM      2  C   UNL     1      -3.917  -1.780  24.273  0.00  0.00    -0.020 A 
ATOM      3  C   UNL     1      -4.001  -1.055  23.892  0.00  0.00    +0.016 A 
ATOM      4  C   UNL     1      -3.798  -0.356  24.282  0.00  0.00    +0.100 A 
ATOM      5  C   UNL     1      -3.511  -0.385  25.055  0.00  0.00    +0.100 A 
ATOM      6  N   UNL     1      -3.357   0.388  25.298  0.00  0.00    -0.229 NA
ATOM      7  C   UNL     1      -3.548   0.894  24.676  0.00  0.00    +0.140 A 
ATOM      8  N   UNL     1      -3.821   0.434  24.048  0.00  0.00    -0.229 NA
ATOM     18  C   UNL     1      -3.427  -1.112  25.437  0.00  0.00    +0.020 A 
ATOM     19  C   UNL     1      -3.630  -1.809  25.046  0.00  0.00    -0.003 A 
ENDROOT
BRANCH   7   9
ATOM      9  C   UNL     1      -3.479   1.716  24.681  0.00  0.00    +0.076 C 
ATOM     10  C   UNL     1      -4.026   2.250  24.372  0.00  0.00    +0.026 C 
ATOM     11  C   UNL     1      -3.737   3.013  24.495  0.00  0.00    +0.073 C 
ATOM     12  N   UNL     1      -3.010   2.950  24.880  0.00  0.00    -0.274 NA
ATOM     13  C   UNL     1      -2.851   2.148  24.995  0.00  0.00    +0.080 C 
BRANCH  12  14
ATOM     14  C   UNL     1      -2.528   3.578  25.111  0.00  0.00    +0.058 C 
ATOM     15  C   UNL     1      -1.759   3.819  24.931  0.00  0.00    +0.016 C 
ATOM     16  C   UNL     1      -1.844   4.465  25.437  0.00  0.00    +0.003 C 
ATOM     17  C   UNL     1      -2.612   4.224  25.617  0.00  0.00    +0.016 C 
ENDBRANCH  12  14
ENDBRANCH   7   9
TORSDOF 2
ENDMDL
MODEL 2
REMARK VINA RESULT:     -10.9      0.634      4.553
REMARK  Name = 
REMARK  2 active torsions:
REMARK  status: ('A' for Active; 'I' for Inactive)
REMARK    1  A    between atoms: C_7  and  C_9
REMARK    2  A    between atoms: N_12  and  C_14
REMARK                            x       y       z     vdW  Elec       q    Type
REMARK                         _______ _______ _______ _____ _____    ______ ____
ROOT
ATOM      1  C   UNL     1      -0.925   4.725  25.017  0.00  0.00    +0.031 C 
ATOM      2  C   UNL     1      -1.598   4.264  25.141  0.00  0.00    -0.020 A 
ATOM      3  C   UNL     1      -1.657   3.519  24.793  0.00  0.00    +0.016 A 
ATOM      4  C   UNL     1      -2.330   3.058  24.917  0.00  0.00    +0.100 A 
ATOM      5  C   UNL     1      -2.944   3.343  25.388  0.00  0.00    +0.100 A 
ATOM      6  N   UNL     1      -3.535   2.769  25.411  0.00  0.00    -0.229 NA
ATOM      7  C   UNL     1      -3.287   2.129  24.954  0.00  0.00    +0.140 A 
ATOM      8  N   UNL     1      -2.542   2.308  24.649  0.00  0.00    -0.229 NA
ATOM     18  C   UNL     1      -2.885   4.089  25.736  0.00  0.00    +0.020 A 
ATOM     19  C   UNL     1      -2.212   4.550  25.612  0.00  0.00    -0.003 A 
ENDROOT
BRANCH   7   9
ATOM      9  C   UNL     1      -3.710   1.433  24.825  0.00  0.00    +0.076 C 
ATOM     10  C   UNL     1      -4.527   1.371  24.733  0.00  0.00    +0.026 C 
ATOM     11  C   UNL     1      -4.713   0.576  24.616  0.00  0.00    +0.073 C 
ATOM     12  N   UNL     1      -4.009   0.145  24.635  0.00  0.00    -0.274 NA
ATOM     13  C   UNL     1      -3.390   0.675  24.765  0.00  0.00    +0.080 C 
BRANCH  12  14
ATOM     14  C   UNL     1      -3.938  -0.671  24.543  0.00  0.00    +0.058 C 
ATOM     15  C   UNL     1      -3.662  -1.290  25.014  0.00  0.00    +0.016 C 
ATOM     16  C   UNL     1      -3.836  -1.826  24.411  0.00  0.00    +0.003 C 
ATOM     17  C   UNL     1      -4.111  -1.207  23.940  0.00  0.00    +0.016 C 
ENDBRANCH  12  14
ENDBRANCH   7   9
TORSDOF 2
ENDMDL
MODEL 3
REMARK VINA RESULT:     -10.5      1.362      4.403
REMARK  Name = 
REMARK  2 active torsions:
REMARK  status: ('A' for Active; 'I' for Inactive)
REMARK    1  A    between atoms: C_7  and  C_9
REMARK    2  A    between atoms: N_12  and  C_14
REMARK                            x       y       z     vdW  Elec       q    Type
REMARK                         _______ _______ _______ _____ _____    ______ ____
ROOT
ATOM      1  C   UNL     1      -5.388   3.749  25.558  0.00  0.00    +0.031 C 
ATOM      2  C   UNL     1      -4.940   3.160  25.195  0.00  0.00    -0.020 A 
ATOM      3  C   UNL     1      -5.088   2.366  25.363  0.00  0.00    +0.016 A 
ATOM      4  C   UNL     1      -4.639   1.777  24.999  0.00  0.00    +0.100 A 
ATOM      5  C   UNL     1      -4.043   1.982  24.467  0.00  0.00    +0.100 A 
ATOM      6  N   UNL     1      -3.693   1.286  24.196  0.00  0.00    -0.229 NA
ATOM      7  C   UNL     1      -4.073   0.651  24.559  0.00  0.00    +0.140 A 
ATOM      8  N   UNL     1      -4.658   0.955  25.055  0.00  0.00    -0.229 NA
ATOM     18  C   UNL     1      -3.895   2.777  24.299  0.00  0.00    +0.020 A 
ATOM     19  C   UNL     1      -4.344   3.365  24.663  0.00  0.00    -0.003 A 
ENDROOT
BRANCH   7   9
ATOM      9  C   UNL     1      -3.899  -0.147  24.446  0.00  0.00    +0.076 C 
ATOM     10  C   UNL     1      -4.410  -0.716  24.136  0.00  0.00    +0.026 C 
ATOM     11  C   UNL     1      -4.011  -1.438  24.121  0.00  0.00    +0.073 C 
ATOM     12  N   UNL     1      -3.253  -1.316  24.422  0.00  0.00    -0.274 NA
ATOM     13  C   UNL     1      -3.184  -0.518  24.623  0.00  0.00    +0.080 C 
BRANCH  12  14
ATOM     14  C   UNL     1      -2.667  -1.889  24.508  0.00  0.00    +0.058 C 
ATOM     15  C   UNL     1      -2.654  -2.714  24.512  0.00  0.00    +0.016 C 
ATOM     16  C   UNL     1      -1.837  -2.701  24.629  0.00  0.00    +0.003 C 
ATOM     17  C   UNL     1      -1.850  -1.876  24.626  0.00  0.00    +0.016 C 
ENDBRANCH  12  14
ENDBRANCH   7   9
TORSDOF 2
ENDMDL
