MODEL 1
REMARK VINA RESULT:      -9.9      0.000      0.000
REMARK  Name = 
REMARK  3 active torsions:
REMARK  status: ('A' for Active; 'I' for Inactive)
REMARK    1  A    between atoms: C_2  and  N_4
REMARK    2  A    between atoms: C_7  and  C_9
REMARK    3  A    between atoms: C_15  and  C_18
REMARK                            x       y       z     vdW  Elec       q    Type
REMARK                         _______ _______ _______ _____ _____    ______ ____
ROOT
ATOM      9  C   UNL     1      -4.106   0.235  24.461  0.00  0.00    +0.140 A 
ATOM     10  N   UNL     1      -3.704   0.847  24.081  0.00  0.00    -0.229 NA
ATOM     11  C   UNL     1      -4.018   1.562  24.347  0.00  0.00    +0.100 A 
ATOM     12  C   UNL     1      -4.614   1.392  24.891  0.00  0.00    +0.101 A 
ATOM     13  N   UNL     1      -4.669   0.572  24.961  0.00  0.00    -0.229 NA
ATOM     14  C   UNL     1      -5.031   2.006  25.251  0.00  0.00    +0.031 A 
ATOM     15  C   UNL     1      -4.851   2.790  25.068  0.00  0.00    +0.070 A 
ATOM     16  C   UNL     1      -4.254   2.960  24.524  0.00  0.00    +0.012 A 
ATOM     17  C   UNL     1      -3.837   2.346  24.163  0.00  0.00    +0.021 A 
ENDROOT
BRANCH   9   7
ATOM      4  N   UNL     1      -3.433  -1.791  24.450  0.00  0.00    -0.274 NA
ATOM      5  C   UNL     1      -4.088  -1.838  23.950  0.00  0.00    +0.073 C 
ATOM      6  C   UNL     1      -4.420  -1.084  23.893  0.00  0.00    +0.026 C 
ATOM      7  C   UNL     1      -3.970  -0.572  24.358  0.00  0.00    +0.076 C 
ATOM      8  C   UNL     1      -3.360  -1.008  24.702  0.00  0.00    +0.080 C 
BRANCH   4   2
ATOM      1  C   UNL     1      -3.253  -3.090  25.018  0.00  0.00    +0.017 C 
ATOM      2  C   UNL     1      -2.938  -2.416  24.661  0.00  0.00    +0.058 C 
ATOM      3  C   UNL     1      -2.127  -2.368  24.515  0.00  0.00    +0.017 C 
ENDBRANCH   4   2
ENDBRANCH   9   7
BRANCH  15  18
ATOM     18  C   UNL     1      -5.267   3.404  25.429  0.00  0.00    +0.100 C 
ATOM     19  N   UNL     1      -5.683   4.018  25.789  0.00  0.00    -0.191 NA
ENDBRANCH  15  18
TORSDOF 3
ENDMDL
MODEL 2
REMARK VINA RESULT:      -9.6      0.998      4.562
REMARK  Name = 
REMARK  3 active torsions:
REMARK  status: ('A' for Active; 'I' for Inactive)
REMARK    1  A    between atoms: C_2  and  N_4
REMARK    2  A    between atoms: C_7  and  C_9
REMARK    3  A    between atoms: C_15  and  C_18
REMARK                            x       y       z     vdW  Elec       q    Type
REMARK                         _______ _______ _______ _____ _____    ______ ____
ROOT
ATOM      9  C   UNL     1      -4.256   0.582  24.942  0.00  0.00    +0.140 A 
ATOM     10  N   UNL     1      -3.866   0.202  25.561  0.00  0.00    -0.229 NA
ATOM     11  C   UNL     1      -3.759  -0.587  25.349  0.00  0.00    +0.100 A 
ATOM     12  C   UNL     1      -4.084  -0.696  24.599  0.00  0.00    +0.101 A 
ATOM     13  N   UNL     1      -4.390   0.027  24.346  0.00  0.00    -0.229 NA
ATOM     14  C   UNL     1      -4.057  -1.440  24.242  0.00  0.00    +0.031 A 
ATOM     15  C   UNL     1      -3.707  -2.074  24.635  0.00  0.00    +0.070 A 
ATOM     16  C   UNL     1      -3.383  -1.965  25.386  0.00  0.00    +0.012 A 
ATOM     17  C   UNL     1      -3.409  -1.223  25.744  0.00  0.00    +0.021 A 
ENDROOT
BRANCH   9   7
ATOM      4  N   UNL     1      -4.410   2.711  24.893  0.00  0.00    -0.274 NA
ATOM      5  C   UNL     1      -5.206   2.493  24.884  0.00  0.00    +0.073 C 
ATOM      6  C   UNL     1      -5.245   1.669  24.902  0.00  0.00    +0.026 C 
ATOM      7  C   UNL     1      -4.473   1.378  24.921  0.00  0.00    +0.076 C 
ATOM      8  C   UNL     1      -3.957   2.021  24.915  0.00  0.00    +0.080 C 
BRANCH   4   2
ATOM      1  C   UNL     1      -3.987   3.885  25.588  0.00  0.00    +0.017 C 
ATOM      2  C   UNL     1      -4.118   3.482  24.880  0.00  0.00    +0.058 C 
ATOM      3  C   UNL     1      -3.957   3.852  24.160  0.00  0.00    +0.017 C 
ENDBRANCH   4   2
ENDBRANCH   9   7
BRANCH  15  18
ATOM     18  C   UNL     1      -3.681  -2.817  24.279  0.00  0.00    +0.100 C 
ATOM     19  N   UNL     1      -3.655  -3.561  23.921  0.00  0.00    -0.191 NA
ENDBRANCH  15  18
TORSDOF 3
ENDMDL
MODEL 3
REMARK VINA RESULT:      -9.4      1.441      1.764
REMARK  Name = 
REMARK  3 active torsions:
REMARK  status: ('A' for Active; 'I' for Inactive)
REMARK    1  A    between atoms: C_2  and  N_4
REMARK    2  A    between atoms: C_7  and  C_9
REMARK    3  A    between atoms: C_15  and  C_18
REMARK                            x       y       z     vdW  Elec       q    Type
REMARK                         _______ _______ _______ _____ _____    ______ ____
ROOT
ATOM      9  C   UNL     1      -3.578   0.967  24.726  0.00  0.00    +0.140 A 
ATOM     10  N   UNL     1      -4.166   1.520  24.895  0.00  0.00    -0.229 NA
ATOM     11  C   UNL     1      -3.802   2.250  25.013  0.00  0.00    +0.100 A 
ATOM     12  C   UNL     1      -2.989   2.149  24.918  0.00  0.00    +0.101 A 
ATOM     13  N   UNL     1      -2.850   1.356  24.741  0.00  0.00    -0.229 NA
ATOM     14  C   UNL     1      -2.481   2.793  25.005  0.00  0.00    +0.031 A 
ATOM     15  C   UNL     1      -2.785   3.537  25.187  0.00  0.00    +0.070 A 
ATOM     16  C   UNL     1      -3.598   3.639  25.282  0.00  0.00    +0.012 A 
ATOM     17  C   UNL     1      -4.107   2.996  25.195  0.00  0.00    +0.021 A 
ENDROOT
BRANCH   9   7
ATOM      4  N   UNL     1      -3.680  -1.166  24.680  0.00  0.00    -0.274 NA
ATOM      5  C   UNL     1      -4.076  -0.972  23.983  0.00  0.00    +0.073 C 
ATOM      6  C   UNL     1      -4.087  -0.150  23.915  0.00  0.00    +0.026 C 
ATOM      7  C   UNL     1      -3.696   0.165  24.571  0.00  0.00    +0.076 C 
ATOM      8  C   UNL     1      -3.445  -0.463  25.043  0.00  0.00    +0.080 C 
BRANCH   4   2
ATOM      1  C   UNL     1      -3.320  -2.041  25.751  0.00  0.00    +0.017 C 
ATOM      2  C   UNL     1      -3.542  -1.927  24.964  0.00  0.00    +0.058 C 
ATOM      3  C   UNL     1      -3.627  -2.577  24.463  0.00  0.00    +0.017 C 
ENDBRANCH   4   2
ENDBRANCH   9   7
BRANCH  15  18
ATOM     18  C   UNL     1      -2.276   4.180  25.274  0.00  0.00    +0.100 C 
ATOM     19  N   UNL     1      -1.767   4.825  25.361  0.00  0.00    -0.191 NA
ENDBRANCH  15  18
TORSDOF 3
ENDMDL
MODEL 4
REMARK VINA RESULT:      -9.4      1.365      4.606
REMARK  Name = 
REMARK  3 active torsions:
REMARK  status: ('A' for Active; 'I' for Inactive)
REMARK    1  A    between atoms: C_2  and  N_4
REMARK    2  A    between atoms: C_7  and  C_9
REMARK    3  A    between atoms: C_15  and  C_18
REMARK                            x       y       z     vdW  Elec       q    Type
REMARK                         _______ _______ _______ _____ _____    ______ ____
ROOT
ATOM      9  C   UNL     1      -3.446   1.364  24.536  0.00  0.00    +0.140 A 
ATOM     10  N   UNL     1      -4.150   0.971  24.363  0.00  0.00    -0.229 NA
ATOM     11  C   UNL     1      -3.997   0.161  24.362  0.00  0.00    +0.100 A 
ATOM     12  C   UNL     1      -3.197   0.053  24.534  0.00  0.00    +0.101 A 
ATOM     13  N   UNL     1      -2.856   0.796  24.642  0.00  0.00    -0.229 NA
ATOM     14  C   UNL     1      -2.883  -0.710  24.571  0.00  0.00    +0.031 A 
ATOM     15  C   UNL     1      -3.368  -1.363  24.435  0.00  0.00    +0.070 A 
ATOM     16  C   UNL     1      -4.167  -1.254  24.263  0.00  0.00    +0.012 A 
ATOM     17  C   UNL     1      -4.482  -0.493  24.226  0.00  0.00    +0.021 A 
ENDROOT
BRANCH   9   7
ATOM      4  N   UNL     1      -2.964   3.387  25.019  0.00  0.00    -0.274 NA
ATOM      5  C   UNL     1      -3.428   3.490  24.344  0.00  0.00    +0.073 C 
ATOM      6  C   UNL     1      -3.665   2.745  24.081  0.00  0.00    +0.026 C 
ATOM      7  C   UNL     1      -3.348   2.181  24.594  0.00  0.00    +0.076 C 
ATOM      8  C   UNL     1      -2.915   2.578  25.173  0.00  0.00    +0.080 C 
BRANCH   4   2
ATOM      1  C   UNL     1      -1.923   4.350  25.190  0.00  0.00    +0.017 C 
ATOM      2  C   UNL     1      -2.612   3.987  25.462  0.00  0.00    +0.058 C 
ATOM      3  C   UNL     1      -2.949   4.225  26.177  0.00  0.00    +0.017 C 
ENDBRANCH   4   2
ENDBRANCH   9   7
BRANCH  15  18
ATOM     18  C   UNL     1      -3.054  -2.124  24.472  0.00  0.00    +0.100 C 
ATOM     19  N   UNL     1      -2.739  -2.887  24.509  0.00  0.00    -0.191 NA
ENDBRANCH  15  18
TORSDOF 3
ENDMDL
