MODEL 1
REMARK VINA RESULT:     -12.3      0.000      0.000
REMARK  Name = 
REMARK  3 active torsions:
REMARK  status: ('A' for Active; 'I' for Inactive)
REMARK    1  A    between atoms: C_5  and  C_8
REMARK    2  A    between atoms: C_15  and  O_17
REMARK    3  A    between atoms: O_17  and  C_18
REMARK                            x       y       z     vdW  Elec       q    Type
REMARK                         _______ _______ _______ _____ _____    ______ ____
ROOT
ATOM      8  C   UNL     1      -3.910   0.157  24.621  0.00  0.00    +0.249 C 
ATOM      9  O   UNL     1      -4.644   0.516  24.746  0.00  0.00    -0.270 OA
ATOM     10  N   UNL     1      -3.254   0.618  24.429  0.00  0.00    -0.270 N 
ATOM     11  C   UNL     1      -2.548   0.206  24.315  0.00  0.00    +0.126 C 
ATOM     12  C   UNL     1      -1.804   0.504  24.121  0.00  0.00    +0.164 C 
ATOM     13  O   UNL     1      -1.581   1.288  23.992  0.00  0.00    -0.348 OA
ATOM     14  C   UNL     1      -2.048   1.967  24.025  0.00  0.00    +0.187 C 
ATOM     15  C   UNL     1      -2.853   2.030  24.196  0.00  0.00    +0.215 C 
ATOM     16  C   UNL     1      -3.389   1.430  24.376  0.00  0.00    +0.140 C 
ENDROOT
BRANCH   8   5
ATOM      1  F   UNL     1      -3.607  -3.118  24.888  0.00  0.00    -0.204 F 
ATOM      2  C   UNL     1      -3.683  -2.299  24.821  0.00  0.00    +0.140 A 
ATOM      3  C   UNL     1      -3.513  -1.815  25.467  0.00  0.00    +0.030 A 
ATOM      4  C   UNL     1      -3.588  -0.997  25.400  0.00  0.00    +0.007 A 
ATOM      5  C   UNL     1      -3.835  -0.662  24.688  0.00  0.00    +0.054 A 
ATOM      6  C   UNL     1      -4.005  -1.146  24.041  0.00  0.00    +0.007 A 
ATOM      7  C   UNL     1      -3.929  -1.964  24.108  0.00  0.00    +0.030 A 
ENDBRANCH   8   5
BRANCH  15  17
ATOM     17  O   UNL     1      -3.162   2.796  24.186  0.00  0.00    -0.475 OA
BRANCH  17  18
ATOM     18  C   UNL     1      -3.006   3.310  24.811  0.00  0.00    +0.139 A 
ATOM     19  C   UNL     1      -3.561   3.405  25.416  0.00  0.00    +0.037 A 
ATOM     20  C   UNL     1      -3.404   3.920  26.041  0.00  0.00    +0.003 A 
ATOM     21  C   UNL     1      -2.695   4.341  26.062  0.00  0.00    +0.000 A 
ATOM     22  C   UNL     1      -2.141   4.246  25.459  0.00  0.00    +0.003 A 
ATOM     23  C   UNL     1      -2.297   3.731  24.833  0.00  0.00    +0.037 A 
ENDBRANCH  17  18
ENDBRANCH  15  17
TORSDOF 3
ENDMDL
MODEL 2
REMARK VINA RESULT:     -12.0      2.110      4.677
REMARK  Name = 
REMARK  3 active torsions:
REMARK  status: ('A' for Active; 'I' for Inactive)
REMARK    1  A    between atoms: C_5  and  C_8
REMARK    2  A    between atoms: C_15  and  O_17
REMARK    3  A    between atoms: O_17  and  C_18
REMARK                            x       y       z     vdW  Elec       q    Type
REMARK                         _______ _______ _______ _____ _____    ______ ____
ROOT
ATOM      8  C   UNL     1      -2.723   2.855  25.285  0.00  0.00    +0.249 C 
ATOM      9  O   UNL     1      -3.154   2.760  25.983  0.00  0.00    -0.270 OA
ATOM     10  N   UNL     1      -2.837   2.335  24.656  0.00  0.00    -0.270 N 
ATOM     11  C   UNL     1      -2.378   2.479  23.985  0.00  0.00    +0.126 C 
ATOM     12  C   UNL     1      -2.364   2.063  23.273  0.00  0.00    +0.164 C 
ATOM     13  O   UNL     1      -2.805   1.400  23.055  0.00  0.00    -0.348 OA
ATOM     14  C   UNL     1      -3.368   0.990  23.497  0.00  0.00    +0.187 C 
ATOM     15  C   UNL     1      -3.630   1.141  24.264  0.00  0.00    +0.215 C 
ATOM     16  C   UNL     1      -3.394   1.739  24.780  0.00  0.00    +0.140 C 
ENDROOT
BRANCH   8   5
ATOM      1  F   UNL     1      -0.542   5.318  25.017  0.00  0.00    -0.204 F 
ATOM      2  C   UNL     1      -1.087   4.702  25.084  0.00  0.00    +0.140 A 
ATOM      3  C   UNL     1      -0.832   3.944  25.287  0.00  0.00    +0.030 A 
ATOM      4  C   UNL     1      -1.376   3.330  25.354  0.00  0.00    +0.007 A 
ATOM      5  C   UNL     1      -2.177   3.471  25.218  0.00  0.00    +0.054 A 
ATOM      6  C   UNL     1      -2.434   4.229  25.015  0.00  0.00    +0.007 A 
ATOM      7  C   UNL     1      -1.889   4.844  24.948  0.00  0.00    +0.030 A 
ENDBRANCH   8   5
BRANCH  15  17
ATOM     17  O   UNL     1      -4.206   0.625  24.554  0.00  0.00    -0.475 OA
BRANCH  17  18
ATOM     18  C   UNL     1      -4.023  -0.171  24.671  0.00  0.00    +0.139 A 
ATOM     19  C   UNL     1      -4.200  -0.725  24.084  0.00  0.00    +0.037 A 
ATOM     20  C   UNL     1      -4.017  -1.521  24.202  0.00  0.00    +0.003 A 
ATOM     21  C   UNL     1      -3.659  -1.763  24.904  0.00  0.00    +0.000 A 
ATOM     22  C   UNL     1      -3.482  -1.210  25.490  0.00  0.00    +0.003 A 
ATOM     23  C   UNL     1      -3.665  -0.414  25.373  0.00  0.00    +0.037 A 
ENDBRANCH  17  18
ENDBRANCH  15  17
TORSDOF 3
ENDMDL
MODEL 3
REMARK VINA RESULT:     -11.6      0.915      1.241
REMARK  Name = 
REMARK  3 active torsions:
REMARK  status: ('A' for Active; 'I' for Inactive)
REMARK    1  A    between atoms: C_5  and  C_8
REMARK    2  A    between atoms: C_15  and  O_17
REMARK    3  A    between atoms: O_17  and  C_18
REMARK                            x       y       z     vdW  Elec       q    Type
REMARK                         _______ _______ _______ _____ _____    ______ ____
ROOT
ATOM      8  C   UNL     1      -3.057   0.153  24.446  0.00  0.00    +0.249 C 
ATOM      9  O   UNL     1      -3.644   0.560  24.031  0.00  0.00    -0.270 OA
ATOM     10  N   UNL     1      -2.336   0.520  24.606  0.00  0.00    -0.270 N 
ATOM     11  C   UNL     1      -1.788   0.066  25.024  0.00  0.00    +0.126 C 
ATOM     12  C   UNL     1      -1.027   0.272  25.266  0.00  0.00    +0.164 C 
ATOM     13  O   UNL     1      -0.625   0.983  25.151  0.00  0.00    -0.348 OA
ATOM     14  C   UNL     1      -0.886   1.664  24.765  0.00  0.00    +0.187 C 
ATOM     15  C   UNL     1      -1.613   1.802  24.399  0.00  0.00    +0.215 C 
ATOM     16  C   UNL     1      -2.258   1.292  24.328  0.00  0.00    +0.140 C 
ENDROOT
BRANCH   8   5
ATOM      1  F   UNL     1      -3.597  -2.940  25.463  0.00  0.00    -0.204 F 
ATOM      2  C   UNL     1      -3.462  -2.167  25.209  0.00  0.00    +0.140 A 
ATOM      3  C   UNL     1      -3.607  -1.533  25.718  0.00  0.00    +0.030 A 
ATOM      4  C   UNL     1      -3.472  -0.761  25.464  0.00  0.00    +0.007 A 
ATOM      5  C   UNL     1      -3.192  -0.620  24.701  0.00  0.00    +0.054 A 
ATOM      6  C   UNL     1      -3.048  -1.254  24.191  0.00  0.00    +0.007 A 
ATOM      7  C   UNL     1      -3.182  -2.026  24.445  0.00  0.00    +0.030 A 
ENDBRANCH   8   5
BRANCH  15  17
ATOM     17  O   UNL     1      -1.706   2.548  24.058  0.00  0.00    -0.475 OA
BRANCH  17  18
ATOM     18  C   UNL     1      -1.719   3.220  24.535  0.00  0.00    +0.139 A 
ATOM     19  C   UNL     1      -1.030   3.660  24.646  0.00  0.00    +0.037 A 
ATOM     20  C   UNL     1      -1.043   4.333  25.124  0.00  0.00    +0.003 A 
ATOM     21  C   UNL     1      -1.745   4.565  25.491  0.00  0.00    +0.000 A 
ATOM     22  C   UNL     1      -2.433   4.125  25.381  0.00  0.00    +0.003 A 
ATOM     23  C   UNL     1      -2.420   3.452  24.902  0.00  0.00    +0.037 A 
ENDBRANCH  17  18
ENDBRANCH  15  17
TORSDOF 3
ENDMDL
MODEL 4
REMARK VINA RESULT:     -11.6      2.010      4.676
REMARK  Name = 
REMARK  3 active torsions:
REMARK  status: ('A' for Active; 'I' for Inactive)
REMARK    1  A    between atoms: C_5  and  C_8
REMARK    2  A    between atoms: C_15  and  O_17
REMARK    3  A    between atoms: O_17  and  C_18
REMARK                            x       y       z     vdW  Elec       q    Type
REMARK                         _______ _______ _______ _____ _____    ______ ____
ROOT
ATOM      8  C   UNL     1      -4.313   1.568  24.849  0.00  0.00    +0.249 C 
ATOM      9  O   UNL     1      -5.091   1.308  24.941  0.00  0.00    -0.270 OA
ATOM     10  N   UNL     1      -3.687   1.042  24.961  0.00  0.00    -0.270 N 
ATOM     11  C   UNL     1      -2.932   1.358  24.855  0.00  0.00    +0.126 C 
ATOM     12  C   UNL     1      -2.202   0.980  24.926  0.00  0.00    +0.164 C 
ATOM     13  O   UNL     1      -2.046   0.193  25.119  0.00  0.00    -0.348 OA
ATOM     14  C   UNL     1      -2.583  -0.410  25.289  0.00  0.00    +0.187 C 
ATOM     15  C   UNL     1      -3.408  -0.375  25.309  0.00  0.00    +0.215 C 
ATOM     16  C   UNL     1      -3.898   0.271  25.162  0.00  0.00    +0.140 C 
ENDROOT
BRANCH   8   5
ATOM      1  F   UNL     1      -3.707   4.708  24.036  0.00  0.00    -0.204 F 
ATOM      2  C   UNL     1      -3.859   3.923  24.239  0.00  0.00    +0.140 A 
ATOM      3  C   UNL     1      -3.919   3.348  23.651  0.00  0.00    +0.030 A 
ATOM      4  C   UNL     1      -4.070   2.564  23.854  0.00  0.00    +0.007 A 
ATOM      5  C   UNL     1      -4.161   2.353  24.646  0.00  0.00    +0.054 A 
ATOM      6  C   UNL     1      -4.101   2.928  25.235  0.00  0.00    +0.007 A 
ATOM      7  C   UNL     1      -3.950   3.712  25.033  0.00  0.00    +0.030 A 
ENDBRANCH   8   5
BRANCH  15  17
ATOM     17  O   UNL     1      -3.791  -1.081  25.500  0.00  0.00    -0.475 OA
BRANCH  17  18
ATOM     18  C   UNL     1      -3.770  -1.716  24.974  0.00  0.00    +0.139 A 
ATOM     19  C   UNL     1      -3.294  -2.370  25.137  0.00  0.00    +0.037 A 
ATOM     20  C   UNL     1      -3.274  -3.006  24.611  0.00  0.00    +0.003 A 
ATOM     21  C   UNL     1      -3.728  -2.987  23.923  0.00  0.00    +0.000 A 
ATOM     22  C   UNL     1      -4.204  -2.333  23.760  0.00  0.00    +0.003 A 
ATOM     23  C   UNL     1      -4.224  -1.698  24.286  0.00  0.00    +0.037 A 
ENDBRANCH  17  18
ENDBRANCH  15  17
TORSDOF 3
ENDMDL
