MODEL 1
REMARK VINA RESULT:      -9.8      0.000      0.000
REMARK  Name = 
REMARK  6 active torsions:
REMARK  status: ('A' for Active; 'I' for Inactive)
REMARK    1  A    between atoms: C_2  and  C_5
REMARK    2  A    between atoms: C_5  and  C_6
REMARK    3  A    between atoms: N_8  and  C_9
REMARK    4  A    between atoms: C_9  and  C_10
REMARK    5  A    between atoms: C_13  and  N_14
REMARK    6  A    between atoms: N_14  and  C_15
REMARK                            x       y       z     vdW  Elec       q    Type
REMARK                         _______ _______ _______ _____ _____    ______ ____
ROOT
ATOM     10  C   UNL     1      -3.284   1.393  24.534  0.00  0.00    +0.169 C 
ATOM     11  O   UNL     1      -2.699   0.865  24.288  0.00  0.00    -0.350 OA
ATOM     12  C   UNL     1      -3.020   0.105  24.298  0.00  0.00    +0.162 C 
ATOM     13  C   UNL     1      -3.803   0.163  24.550  0.00  0.00    +0.135 C 
ATOM     21  C   UNL     1      -3.966   0.958  24.696  0.00  0.00    +0.199 C 
ATOM     22  O   UNL     1      -4.686   1.266  24.958  0.00  0.00    -0.219 OA
ENDROOT
BRANCH  10   9
ATOM      9  C   UNL     1      -3.201   2.210  24.605  0.00  0.00    +0.147 C 
BRANCH   9   8
ATOM      6  C   UNL     1      -2.413   3.337  24.994  0.00  0.00    +0.241 C 
ATOM      7  O   UNL     1      -2.911   3.834  24.562  0.00  0.00    -0.273 OA
ATOM      8  N   UNL     1      -2.558   2.525  25.015  0.00  0.00    -0.203 NA
BRANCH   6   5
ATOM      5  C   UNL     1      -1.770   3.652  25.404  0.00  0.00    +0.087 C 
BRANCH   5   2
ATOM      1  C   UNL     1      -1.214   5.161  25.032  0.00  0.00    +0.000 C 
ATOM      2  C   UNL     1      -1.492   4.407  25.218  0.00  0.00    +0.009 C 
ATOM      3  C   UNL     1      -2.115   4.741  25.643  0.00  0.00    +0.000 C 
ATOM      4  C   UNL     1      -0.869   4.072  24.793  0.00  0.00    +0.000 C 
ENDBRANCH   5   2
ENDBRANCH   6   5
ENDBRANCH   9   8
ENDBRANCH  10   9
BRANCH  13  14
ATOM     14  N   UNL     1      -4.331  -0.465  24.641  0.00  0.00    -0.216 NA
BRANCH  14  15
ATOM     15  C   UNL     1      -4.059  -1.242  24.599  0.00  0.00    +0.076 C 
ATOM     16  C   UNL     1      -4.176  -1.683  23.910  0.00  0.00    +0.036 C 
ATOM     17  C   UNL     1      -3.904  -2.460  23.868  0.00  0.00    +0.090 C 
ATOM     18  N   UNL     1      -3.516  -2.798  24.512  0.00  0.00    -0.218 NA
ATOM     19  C   UNL     1      -3.399  -2.358  25.200  0.00  0.00    +0.090 C 
ATOM     20  C   UNL     1      -3.671  -1.579  25.243  0.00  0.00    +0.036 C 
ENDBRANCH  14  15
ENDBRANCH  13  14
TORSDOF 6
ENDMDL
MODEL 2
REMARK VINA RESULT:      -9.5      1.302      5.492
REMARK  Name = 
REMARK  6 active torsions:
REMARK  status: ('A' for Active; 'I' for Inactive)
REMARK    1  A    between atoms: C_2  and  C_5
REMARK    2  A    between atoms: C_5  and  C_6
REMARK    3  A    between atoms: N_8  and  C_9
REMARK    4  A    between atoms: C_9  and  C_10
REMARK    5  A    between atoms: C_13  and  N_14
REMARK    6  A    between atoms: N_14  and  C_15
REMARK                            x       y       z     vdW  Elec       q    Type
REMARK                         _______ _______ _______ _____ _____    ______ ____
ROOT
ATOM     10  C   UNL     1      -2.085   1.055  24.925  0.00  0.00    +0.169 C 
ATOM     11  O   UNL     1      -2.612   1.631  24.658  0.00  0.00    -0.350 OA
ATOM     12  C   UNL     1      -2.346   2.365  24.927  0.00  0.00    +0.162 C 
ATOM     13  C   UNL     1      -1.655   2.242  25.360  0.00  0.00    +0.135 C 
ATOM     21  C   UNL     1      -1.493   1.432  25.359  0.00  0.00    +0.199 C 
ATOM     22  O   UNL     1      -0.853   1.065  25.727  0.00  0.00    -0.219 OA
ENDROOT
BRANCH  10   9
ATOM      9  C   UNL     1      -2.140   0.244  24.783  0.00  0.00    +0.147 C 
BRANCH   9   8
ATOM      6  C   UNL     1      -2.929  -0.944  24.699  0.00  0.00    +0.241 C 
ATOM      7  O   UNL     1      -2.284  -1.350  24.382  0.00  0.00    -0.273 OA
ATOM      8  N   UNL     1      -2.857  -0.147  24.899  0.00  0.00    -0.203 NA
BRANCH   6   5
ATOM      5  C   UNL     1      -3.646  -1.335  24.815  0.00  0.00    +0.087 C 
BRANCH   5   2
ATOM      1  C   UNL     1      -3.887  -2.829  24.156  0.00  0.00    +0.000 C 
ATOM      2  C   UNL     1      -3.766  -2.082  24.485  0.00  0.00    +0.009 C 
ATOM      3  C   UNL     1      -4.153  -1.736  23.844  0.00  0.00    +0.000 C 
ATOM      4  C   UNL     1      -3.380  -2.428  25.127  0.00  0.00    +0.000 C 
ENDBRANCH   5   2
ENDBRANCH   6   5
ENDBRANCH   9   8
ENDBRANCH  10   9
BRANCH  13  14
ATOM     14  N   UNL     1      -1.204   2.825  25.730  0.00  0.00    -0.216 NA
BRANCH  14  15
ATOM     15  C   UNL     1      -1.272   3.612  25.492  0.00  0.00    +0.076 C 
ATOM     16  C   UNL     1      -0.710   3.939  24.983  0.00  0.00    +0.036 C 
ATOM     17  C   UNL     1      -0.779   4.727  24.746  0.00  0.00    +0.090 C 
ATOM     18  N   UNL     1      -1.407   5.186  25.016  0.00  0.00    -0.218 NA
ATOM     19  C   UNL     1      -1.969   4.859  25.524  0.00  0.00    +0.090 C 
ATOM     20  C   UNL     1      -1.901   4.072  25.763  0.00  0.00    +0.036 C 
ENDBRANCH  14  15
ENDBRANCH  13  14
TORSDOF 6
ENDMDL
