MODEL 1
REMARK VINA RESULT:     -12.6      0.000      0.000
REMARK  Name = 
REMARK  4 active torsions:
REMARK  status: ('A' for Active; 'I' for Inactive)
REMARK    1  A    between atoms: C_2  and  O_5
REMARK    2  A    between atoms: O_5  and  C_6
REMARK    3  A    between atoms: C_8  and  C_9
REMARK    4  A    between atoms: C_9  and  N_10
REMARK                            x       y       z     vdW  Elec       q    Type
REMARK                         _______ _______ _______ _____ _____    ______ ____
ROOT
ATOM     10  N   UNL     1      -1.036  -0.191  25.399  0.00  0.00    -0.266 NA
ATOM     11  C   UNL     1      -0.449  -0.118  24.824  0.00  0.00    +0.094 C 
ATOM     12  C   UNL     1      -0.246   0.627  24.535  0.00  0.00    +0.112 C 
ATOM     13  N   UNL     1      -0.628   1.300  24.822  0.00  0.00    -0.261 N 
ATOM     14  C   UNL     1      -1.214   1.226  25.397  0.00  0.00    +0.113 C 
ATOM     15  C   UNL     1      -1.494   1.982  25.574  0.00  0.00    +0.122 C 
ATOM     16  N   UNL     1      -1.080   2.522  25.108  0.00  0.00    -0.226 N 
ATOM     17  C   UNL     1      -0.546   2.100  24.643  0.00  0.00    +0.312 C 
ATOM     18  O   UNL     1      -0.020   2.422  24.095  0.00  0.00    -0.252 OA
ATOM     19  C   UNL     1      -1.183   3.341  25.107  0.00  0.00    +0.139 A 
ATOM     20  N   UNL     1      -0.727   3.814  24.607  0.00  0.00    -0.229 NA
ATOM     21  C   UNL     1      -0.830   4.632  24.606  0.00  0.00    +0.100 A 
ATOM     22  C   UNL     1      -1.390   4.978  25.105  0.00  0.00    +0.021 A 
ATOM     23  C   UNL     1      -1.846   4.506  25.604  0.00  0.00    +0.004 A 
ATOM     24  C   UNL     1      -1.742   3.687  25.605  0.00  0.00    +0.035 A 
ATOM     25  C   UNL     1      -1.418   0.481  25.687  0.00  0.00    +0.094 C 
ENDROOT
BRANCH  10   9
ATOM      9  C   UNL     1      -1.240  -0.937  25.689  0.00  0.00    +0.099 C 
BRANCH   9   8
ATOM      6  C   UNL     1      -3.004  -1.883  24.819  0.00  0.00    +0.147 A 
ATOM      7  C   UNL     1      -2.534  -1.380  25.273  0.00  0.00    +0.034 A 
ATOM      8  C   UNL     1      -1.712  -1.440  25.235  0.00  0.00    -0.003 A 
ATOM     26  C   UNL     1      -1.360  -2.002  24.744  0.00  0.00    -0.003 A 
ATOM     27  C   UNL     1      -1.832  -2.505  24.290  0.00  0.00    +0.003 A 
ATOM     28  C   UNL     1      -2.654  -2.445  24.328  0.00  0.00    +0.037 A 
BRANCH   6   5
ATOM      5  O   UNL     1      -3.826  -1.824  24.857  0.00  0.00    -0.404 OA
BRANCH   5   2
ATOM      1  F   UNL     1      -4.681  -1.334  23.533  0.00  0.00    -0.133 F 
ATOM      2  C   UNL     1      -4.254  -1.580  24.195  0.00  0.00    +0.575 C 
ATOM      3  F   UNL     1      -4.182  -0.794  24.439  0.00  0.00    -0.133 F 
ATOM      4  F   UNL     1      -4.326  -2.364  23.951  0.00  0.00    -0.133 F 
ENDBRANCH   5   2
ENDBRANCH   6   5
ENDBRANCH   9   8
ENDBRANCH  10   9
TORSDOF 4
ENDMDL
MODEL 2
REMARK VINA RESULT:     -12.6      2.896      5.781
REMARK  Name = 
REMARK  4 active torsions:
REMARK  status: ('A' for Active; 'I' for Inactive)
REMARK    1  A    between atoms: C_2  and  O_5
REMARK    2  A    between atoms: O_5  and  C_6
REMARK    3  A    between atoms: C_8  and  C_9
REMARK    4  A    between atoms: C_9  and  N_10
REMARK                            x       y       z     vdW  Elec       q    Type
REMARK                         _______ _______ _______ _____ _____    ______ ____
ROOT
ATOM     10  N   UNL     1      -3.665   2.226  24.283  0.00  0.00    -0.266 NA
ATOM     11  C   UNL     1      -4.452   2.023  24.425  0.00  0.00    +0.094 C 
ATOM     12  C   UNL     1      -4.660   1.233  24.534  0.00  0.00    +0.112 C 
ATOM     13  N   UNL     1      -4.082   0.645  24.502  0.00  0.00    -0.261 N 
ATOM     14  C   UNL     1      -3.295   0.848  24.360  0.00  0.00    +0.113 C 
ATOM     15  C   UNL     1      -2.849   0.155  24.359  0.00  0.00    +0.122 C 
ATOM     16  N   UNL     1      -3.359  -0.477  24.500  0.00  0.00    -0.226 N 
ATOM     17  C   UNL     1      -4.121  -0.174  24.588  0.00  0.00    +0.312 C 
ATOM     18  O   UNL     1      -4.804  -0.613  24.737  0.00  0.00    -0.252 OA
ATOM     19  C   UNL     1      -3.145  -1.273  24.545  0.00  0.00    +0.139 A 
ATOM     20  N   UNL     1      -3.720  -1.847  24.690  0.00  0.00    -0.229 NA
ATOM     21  C   UNL     1      -3.507  -2.643  24.735  0.00  0.00    +0.100 A 
ATOM     22  C   UNL     1      -2.718  -2.864  24.634  0.00  0.00    +0.021 A 
ATOM     23  C   UNL     1      -2.144  -2.290  24.489  0.00  0.00    +0.004 A 
ATOM     24  C   UNL     1      -2.357  -1.495  24.445  0.00  0.00    +0.035 A 
ATOM     25  C   UNL     1      -3.086   1.640  24.251  0.00  0.00    +0.094 C 
ENDROOT
BRANCH  10   9
ATOM      9  C   UNL     1      -3.456   3.018  24.173  0.00  0.00    +0.099 C 
BRANCH   9   8
ATOM      6  C   UNL     1      -2.066   4.081  25.478  0.00  0.00    +0.147 A 
ATOM      7  C   UNL     1      -2.359   3.641  24.844  0.00  0.00    +0.034 A 
ATOM      8  C   UNL     1      -3.163   3.457  24.806  0.00  0.00    -0.003 A 
ATOM     26  C   UNL     1      -3.673   3.714  25.402  0.00  0.00    -0.003 A 
ATOM     27  C   UNL     1      -3.379   4.153  26.035  0.00  0.00    +0.003 A 
ATOM     28  C   UNL     1      -2.576   4.337  26.073  0.00  0.00    +0.037 A 
BRANCH   6   5
ATOM      5  O   UNL     1      -1.263   4.265  25.515  0.00  0.00    -0.404 OA
BRANCH   5   2
ATOM      1  F   UNL     1      -0.631   5.418  24.518  0.00  0.00    -0.133 F 
ATOM      2  C   UNL     1      -0.948   4.842  25.017  0.00  0.00    +0.575 C 
ATOM      3  F   UNL     1      -0.593   4.253  24.560  0.00  0.00    -0.133 F 
ATOM      4  F   UNL     1      -1.301   5.431  25.473  0.00  0.00    -0.133 F 
ENDBRANCH   5   2
ENDBRANCH   6   5
ENDBRANCH   9   8
ENDBRANCH  10   9
TORSDOF 4
ENDMDL
MODEL 3
REMARK VINA RESULT:     -12.5      2.015      2.625
REMARK  Name = 
REMARK  4 active torsions:
REMARK  status: ('A' for Active; 'I' for Inactive)
REMARK    1  A    between atoms: C_2  and  O_5
REMARK    2  A    between atoms: O_5  and  C_6
REMARK    3  A    between atoms: C_8  and  C_9
REMARK    4  A    between atoms: C_9  and  N_10
REMARK                            x       y       z     vdW  Elec       q    Type
REMARK                         _______ _______ _______ _____ _____    ______ ____
ROOT
ATOM     10  N   UNL     1      -3.946   0.787  24.396  0.00  0.00    -0.266 NA
ATOM     11  C   UNL     1      -4.535   1.230  24.766  0.00  0.00    +0.094 C 
ATOM     12  C   UNL     1      -4.377   2.000  25.015  0.00  0.00    +0.112 C 
ATOM     13  N   UNL     1      -3.629   2.328  24.895  0.00  0.00    -0.261 N 
ATOM     14  C   UNL     1      -3.040   1.885  24.525  0.00  0.00    +0.113 C 
ATOM     15  C   UNL     1      -2.361   2.350  24.481  0.00  0.00    +0.122 C 
ATOM     16  N   UNL     1      -2.530   3.081  24.824  0.00  0.00    -0.226 N 
ATOM     17  C   UNL     1      -3.314   3.066  25.079  0.00  0.00    +0.312 C 
ATOM     18  O   UNL     1      -3.713   3.684  25.455  0.00  0.00    -0.252 OA
ATOM     19  C   UNL     1      -2.007   3.714  24.898  0.00  0.00    +0.139 A 
ATOM     20  N   UNL     1      -2.256   4.416  25.256  0.00  0.00    -0.229 NA
ATOM     21  C   UNL     1      -1.733   5.049  25.331  0.00  0.00    +0.100 A 
ATOM     22  C   UNL     1      -0.961   4.982  25.047  0.00  0.00    +0.021 A 
ATOM     23  C   UNL     1      -0.712   4.282  24.689  0.00  0.00    +0.004 A 
ATOM     24  C   UNL     1      -1.235   3.648  24.615  0.00  0.00    +0.035 A 
ATOM     25  C   UNL     1      -3.198   1.114  24.275  0.00  0.00    +0.094 C 
ENDROOT
BRANCH  10   9
ATOM      9  C   UNL     1      -4.104   0.016  24.146  0.00  0.00    +0.099 C 
BRANCH   9   8
ATOM      6  C   UNL     1      -2.892  -1.735  24.624  0.00  0.00    +0.147 A 
ATOM      7  C   UNL     1      -3.208  -1.095  24.210  0.00  0.00    +0.034 A 
ATOM      8  C   UNL     1      -3.788  -0.624  24.559  0.00  0.00    -0.003 A 
ATOM     26  C   UNL     1      -4.052  -0.792  25.323  0.00  0.00    -0.003 A 
ATOM     27  C   UNL     1      -3.735  -1.432  25.736  0.00  0.00    +0.003 A 
ATOM     28  C   UNL     1      -3.155  -1.903  25.387  0.00  0.00    +0.037 A 
BRANCH   6   5
ATOM      5  O   UNL     1      -2.312  -2.206  24.275  0.00  0.00    -0.404 OA
BRANCH   5   2
ATOM      1  F   UNL     1      -0.813  -2.314  24.957  0.00  0.00    -0.133 F 
ATOM      2  C   UNL     1      -1.563  -2.259  24.615  0.00  0.00    +0.575 C 
ATOM      3  F   UNL     1      -1.798  -2.937  25.025  0.00  0.00    -0.133 F 
ATOM      4  F   UNL     1      -1.327  -1.583  24.207  0.00  0.00    -0.133 F 
ENDBRANCH   5   2
ENDBRANCH   6   5
ENDBRANCH   9   8
ENDBRANCH  10   9
TORSDOF 4
ENDMDL
MODEL 4
REMARK VINA RESULT:     -12.3      2.237      5.099
REMARK  Name = 
REMARK  4 active torsions:
REMARK  status: ('A' for Active; 'I' for Inactive)
REMARK    1  A    between atoms: C_2  and  O_5
REMARK    2  A    between atoms: O_5  and  C_6
REMARK    3  A    between atoms: C_8  and  C_9
REMARK    4  A    between atoms: C_9  and  N_10
REMARK                            x       y       z     vdW  Elec       q    Type
REMARK                         _______ _______ _______ _____ _____    ______ ____
ROOT
ATOM     10  N   UNL     1      -1.895   1.836  24.697  0.00  0.00    -0.266 NA
ATOM     11  C   UNL     1      -1.324   1.489  25.182  0.00  0.00    +0.094 C 
ATOM     12  C   UNL     1      -1.350   0.679  25.334  0.00  0.00    +0.112 C 
ATOM     13  N   UNL     1      -1.946   0.215  25.002  0.00  0.00    -0.261 N 
ATOM     14  C   UNL     1      -2.517   0.562  24.517  0.00  0.00    +0.113 C 
ATOM     15  C   UNL     1      -3.034  -0.029  24.269  0.00  0.00    +0.122 C 
ATOM     16  N   UNL     1      -2.784  -0.742  24.599  0.00  0.00    -0.226 N 
ATOM     17  C   UNL     1      -2.112  -0.590  25.052  0.00  0.00    +0.312 C 
ATOM     18  O   UNL     1      -1.680  -1.148  25.481  0.00  0.00    -0.252 OA
ATOM     19  C   UNL     1      -3.143  -1.478  24.495  0.00  0.00    +0.139 A 
ATOM     20  N   UNL     1      -2.829  -2.147  24.863  0.00  0.00    -0.229 NA
ATOM     21  C   UNL     1      -3.188  -2.882  24.759  0.00  0.00    +0.100 A 
ATOM     22  C   UNL     1      -3.862  -2.948  24.287  0.00  0.00    +0.021 A 
ATOM     23  C   UNL     1      -4.176  -2.281  23.920  0.00  0.00    +0.004 A 
ATOM     24  C   UNL     1      -3.817  -1.545  24.024  0.00  0.00    +0.035 A 
ATOM     25  C   UNL     1      -2.491   1.373  24.365  0.00  0.00    +0.094 C 
ENDROOT
BRANCH  10   9
ATOM      9  C   UNL     1      -1.869   2.647  24.545  0.00  0.00    +0.099 C 
BRANCH   9   8
ATOM      6  C   UNL     1      -3.573   3.838  25.210  0.00  0.00    +0.147 A 
ATOM      7  C   UNL     1      -3.111   3.320  24.764  0.00  0.00    +0.034 A 
ATOM      8  C   UNL     1      -2.332   3.165  24.990  0.00  0.00    -0.003 A 
ATOM     26  C   UNL     1      -2.017   3.527  25.661  0.00  0.00    -0.003 A 
ATOM     27  C   UNL     1      -2.480   4.044  26.106  0.00  0.00    +0.003 A 
ATOM     28  C   UNL     1      -3.258   4.200  25.881  0.00  0.00    +0.037 A 
BRANCH   6   5
ATOM      5  O   UNL     1      -4.351   3.993  24.985  0.00  0.00    -0.404 OA
BRANCH   5   2
ATOM      1  F   UNL     1      -5.602   3.263  25.775  0.00  0.00    -0.133 F 
ATOM      2  C   UNL     1      -4.977   3.629  25.380  0.00  0.00    +0.575 C 
ATOM      3  F   UNL     1      -5.004   3.045  24.797  0.00  0.00    -0.133 F 
ATOM      4  F   UNL     1      -4.949   4.211  25.963  0.00  0.00    -0.133 F 
ENDBRANCH   5   2
ENDBRANCH   6   5
ENDBRANCH   9   8
ENDBRANCH  10   9
TORSDOF 4
ENDMDL
MODEL 5
REMARK VINA RESULT:     -12.0      2.616      5.335
REMARK  Name = 
REMARK  4 active torsions:
REMARK  status: ('A' for Active; 'I' for Inactive)
REMARK    1  A    between atoms: C_2  and  O_5
REMARK    2  A    between atoms: O_5  and  C_6
REMARK    3  A    between atoms: C_8  and  C_9
REMARK    4  A    between atoms: C_9  and  N_10
REMARK                            x       y       z     vdW  Elec       q    Type
REMARK                         _______ _______ _______ _____ _____    ______ ____
ROOT
ATOM     10  N   UNL     1      -0.598   1.018  24.372  0.00  0.00    -0.266 NA
ATOM     11  C   UNL     1      -0.115   0.429  24.688  0.00  0.00    +0.094 C 
ATOM     12  C   UNL     1      -0.412  -0.333  24.797  0.00  0.00    +0.112 C 
ATOM     13  N   UNL     1      -1.192  -0.506  24.590  0.00  0.00    -0.261 N 
ATOM     14  C   UNL     1      -1.675   0.083  24.274  0.00  0.00    +0.113 C 
ATOM     15  C   UNL     1      -2.415  -0.247  24.123  0.00  0.00    +0.122 C 
ATOM     16  N   UNL     1      -2.389  -1.041  24.345  0.00  0.00    -0.226 N 
ATOM     17  C   UNL     1      -1.633  -1.200  24.634  0.00  0.00    +0.312 C 
ATOM     18  O   UNL     1      -1.366  -1.928  24.917  0.00  0.00    -0.252 OA
ATOM     19  C   UNL     1      -3.011  -1.581  24.288  0.00  0.00    +0.139 A 
ATOM     20  N   UNL     1      -2.903  -2.362  24.534  0.00  0.00    -0.229 NA
ATOM     21  C   UNL     1      -3.524  -2.902  24.477  0.00  0.00    +0.100 A 
ATOM     22  C   UNL     1      -4.253  -2.660  24.175  0.00  0.00    +0.021 A 
ATOM     23  C   UNL     1      -4.361  -1.881  23.930  0.00  0.00    +0.004 A 
ATOM     24  C   UNL     1      -3.740  -1.341  23.986  0.00  0.00    +0.035 A 
ATOM     25  C   UNL     1      -1.378   0.846  24.165  0.00  0.00    +0.094 C 
ENDROOT
BRANCH  10   9
ATOM      9  C   UNL     1      -0.302   1.781  24.263  0.00  0.00    +0.099 C 
BRANCH   9   8
ATOM      6  C   UNL     1      -1.163   3.585  25.140  0.00  0.00    +0.147 A 
ATOM      7  C   UNL     1      -0.984   2.992  24.594  0.00  0.00    +0.034 A 
ATOM      8  C   UNL     1      -0.481   2.374  24.807  0.00  0.00    -0.003 A 
ATOM     26  C   UNL     1      -0.156   2.349  25.566  0.00  0.00    -0.003 A 
ATOM     27  C   UNL     1      -0.335   2.942  26.110  0.00  0.00    +0.003 A 
ATOM     28  C   UNL     1      -0.839   3.560  25.897  0.00  0.00    +0.037 A 
BRANCH   6   5
ATOM      5  O   UNL     1      -1.666   4.203  24.926  0.00  0.00    -0.404 OA
BRANCH   5   2
ATOM      1  F   UNL     1      -1.306   5.752  25.367  0.00  0.00    -0.133 F 
ATOM      2  C   UNL     1      -1.485   4.977  25.146  0.00  0.00    +0.575 C 
ATOM      3  F   UNL     1      -2.033   4.930  25.762  0.00  0.00    -0.133 F 
ATOM      4  F   UNL     1      -0.939   5.025  24.531  0.00  0.00    -0.133 F 
ENDBRANCH   5   2
ENDBRANCH   6   5
ENDBRANCH   9   8
ENDBRANCH  10   9
TORSDOF 4
ENDMDL
MODEL 6
REMARK VINA RESULT:      -9.3     17.390     18.672
REMARK  Name = 
REMARK  4 active torsions:
REMARK  status: ('A' for Active; 'I' for Inactive)
REMARK    1  A    between atoms: C_2  and  O_5
REMARK    2  A    between atoms: O_5  and  C_6
REMARK    3  A    between atoms: C_8  and  C_9
REMARK    4  A    between atoms: C_9  and  N_10
REMARK                            x       y       z     vdW  Elec       q    Type
REMARK                         _______ _______ _______ _____ _____    ______ ____
ROOT
ATOM     10  N   UNL     1      13.951   8.401  20.040  0.00  0.00    -0.266 NA
ATOM     11  C   UNL     1      13.286   8.122  20.440  0.00  0.00    +0.094 C 
ATOM     12  C   UNL     1      12.561   8.071  20.050  0.00  0.00    +0.112 C 
ATOM     13  N   UNL     1      12.501   8.299  19.259  0.00  0.00    -0.261 N 
ATOM     14  C   UNL     1      13.166   8.578  18.859  0.00  0.00    +0.113 C 
ATOM     15  C   UNL     1      12.941   8.761  18.087  0.00  0.00    +0.122 C 
ATOM     16  N   UNL     1      12.137   8.596  18.010  0.00  0.00    -0.226 N 
ATOM     17  C   UNL     1      11.865   8.311  18.735  0.00  0.00    +0.312 C 
ATOM     18  O   UNL     1      11.092   8.077  18.905  0.00  0.00    -0.252 OA
ATOM     19  C   UNL     1      11.684   8.699  17.328  0.00  0.00    +0.139 A 
ATOM     20  N   UNL     1      10.880   8.508  17.334  0.00  0.00    -0.229 NA
ATOM     21  C   UNL     1      10.427   8.611  16.652  0.00  0.00    +0.100 A 
ATOM     22  C   UNL     1      10.777   8.903  15.965  0.00  0.00    +0.021 A 
ATOM     23  C   UNL     1      11.579   9.093  15.959  0.00  0.00    +0.004 A 
ATOM     24  C   UNL     1      12.032   8.991  16.641  0.00  0.00    +0.035 A 
ATOM     25  C   UNL     1      13.892   8.629  19.249  0.00  0.00    +0.094 C 
ENDROOT
BRANCH  10   9
ATOM      9  C   UNL     1      14.677   8.451  20.430  0.00  0.00    +0.099 C 
BRANCH   9   8
ATOM      6  C   UNL     1      16.213   6.956  20.020  0.00  0.00    +0.147 A 
ATOM      7  C   UNL     1      15.738   7.626  19.944  0.00  0.00    +0.034 A 
ATOM      8  C   UNL     1      15.152   7.781  20.504  0.00  0.00    -0.003 A 
ATOM     26  C   UNL     1      15.041   7.265  21.139  0.00  0.00    -0.003 A 
ATOM     27  C   UNL     1      15.516   6.595  21.213  0.00  0.00    +0.003 A 
ATOM     28  C   UNL     1      16.102   6.440  20.654  0.00  0.00    +0.037 A 
BRANCH   6   5
ATOM      5  O   UNL     1      16.799   6.801  19.460  0.00  0.00    -0.404 OA
BRANCH   5   2
ATOM      1  F   UNL     1      16.845   5.340  18.694  0.00  0.00    -0.133 F 
ATOM      2  C   UNL     1      16.822   6.070  19.078  0.00  0.00    +0.575 C 
ATOM      3  F   UNL     1      16.238   6.327  18.553  0.00  0.00    -0.133 F 
ATOM      4  F   UNL     1      17.405   5.814  19.601  0.00  0.00    -0.133 F 
ENDBRANCH   5   2
ENDBRANCH   6   5
ENDBRANCH   9   8
ENDBRANCH  10   9
TORSDOF 4
ENDMDL
MODEL 7
REMARK VINA RESULT:      -8.9     16.413     18.206
REMARK  Name = 
REMARK  4 active torsions:
REMARK  status: ('A' for Active; 'I' for Inactive)
REMARK    1  A    between atoms: C_2  and  O_5
REMARK    2  A    between atoms: O_5  and  C_6
REMARK    3  A    between atoms: C_8  and  C_9
REMARK    4  A    between atoms: C_9  and  N_10
REMARK                            x       y       z     vdW  Elec       q    Type
REMARK                         _______ _______ _______ _____ _____    ______ ____
ROOT
ATOM     10  N   UNL     1      14.170   7.552  19.295  0.00  0.00    -0.266 NA
ATOM     11  C   UNL     1      13.702   6.922  19.040  0.00  0.00    +0.094 C 
ATOM     12  C   UNL     1      12.977   6.774  19.403  0.00  0.00    +0.112 C 
ATOM     13  N   UNL     1      12.719   7.254  20.022  0.00  0.00    -0.261 N 
ATOM     14  C   UNL     1      13.186   7.884  20.277  0.00  0.00    +0.113 C 
ATOM     15  C   UNL     1      12.791   8.261  20.895  0.00  0.00    +0.122 C 
ATOM     16  N   UNL     1      12.080   7.864  21.022  0.00  0.00    -0.226 N 
ATOM     17  C   UNL     1      12.035   7.242  20.482  0.00  0.00    +0.312 C 
ATOM     18  O   UNL     1      11.415   6.702  20.415  0.00  0.00    -0.252 OA
ATOM     19  C   UNL     1      11.512   8.056  21.589  0.00  0.00    +0.139 A 
ATOM     20  N   UNL     1      10.822   7.606  21.652  0.00  0.00    -0.229 NA
ATOM     21  C   UNL     1      10.255   7.797  22.219  0.00  0.00    +0.100 A 
ATOM     22  C   UNL     1      10.376   8.439  22.724  0.00  0.00    +0.021 A 
ATOM     23  C   UNL     1      11.065   8.888  22.661  0.00  0.00    +0.004 A 
ATOM     24  C   UNL     1      11.632   8.697  22.094  0.00  0.00    +0.035 A 
ATOM     25  C   UNL     1      13.913   8.033  19.914  0.00  0.00    +0.094 C 
ENDROOT
BRANCH  10   9
ATOM      9  C   UNL     1      14.896   7.702  18.931  0.00  0.00    +0.099 C 
BRANCH   9   8
ATOM      6  C   UNL     1      16.652   6.866  19.923  0.00  0.00    +0.147 A 
ATOM      7  C   UNL     1      16.004   7.351  19.763  0.00  0.00    +0.034 A 
ATOM      8  C   UNL     1      15.544   7.217  19.092  0.00  0.00    -0.003 A 
ATOM     26  C   UNL     1      15.732   6.598  18.579  0.00  0.00    -0.003 A 
ATOM     27  C   UNL     1      16.380   6.113  18.740  0.00  0.00    +0.003 A 
ATOM     28  C   UNL     1      16.840   6.247  19.411  0.00  0.00    +0.037 A 
BRANCH   6   5
ATOM      5  O   UNL     1      17.112   7.000  20.594  0.00  0.00    -0.404 OA
BRANCH   5   2
ATOM      1  F   UNL     1      16.812   6.159  21.982  0.00  0.00    -0.133 F 
ATOM      2  C   UNL     1      16.962   6.580  21.288  0.00  0.00    +0.575 C 
ATOM      3  F   UNL     1      17.405   5.946  21.000  0.00  0.00    -0.133 F 
ATOM      4  F   UNL     1      16.519   7.213  21.577  0.00  0.00    -0.133 F 
ENDBRANCH   5   2
ENDBRANCH   6   5
ENDBRANCH   9   8
ENDBRANCH  10   9
TORSDOF 4
ENDMDL
