MODEL 1
REMARK VINA RESULT:      -9.8      0.000      0.000
REMARK  Name = 
REMARK  7 active torsions:
REMARK  status: ('A' for Active; 'I' for Inactive)
REMARK    1  A    between atoms: O_2  and  C_3
REMARK    2  A    between atoms: C_4  and  C_9
REMARK    3  A    between atoms: C_13  and  C_15
REMARK    4  A    between atoms: C_22  and  C_23
REMARK    5  A    between atoms: C_23  and  O_24
REMARK    6  A    between atoms: O_24  and  C_25
REMARK    7  A    between atoms: N_27  and  C_28
REMARK                            x       y       z     vdW  Elec       q    Type
REMARK                         _______ _______ _______ _____ _____    ______ ____
ROOT
ATOM     15  C   UNL     1      -1.809   1.599  23.903  0.00  0.00    +0.056 C 
ATOM     16  C   UNL     1      -1.303   2.179  23.786  0.00  0.00    +0.078 C 
ATOM     17  N   UNL     1      -1.114   1.384  23.907  0.00  0.00    -0.270 NA
ATOM     18  C   UNL     1      -2.018   0.867  24.032  0.00  0.00    +0.072 C 
ATOM     19  C   UNL     1      -2.344   0.311  24.138  0.00  0.00    +0.018 C 
ATOM     20  C   UNL     1      -1.616   0.822  24.022  0.00  0.00    +0.010 C 
ATOM     21  C   UNL     1      -0.844   0.406  24.055  0.00  0.00    +0.020 C 
ATOM     22  C   UNL     1      -0.315   0.945  23.942  0.00  0.00    +0.102 C 
ENDROOT
BRANCH  15  13
ATOM      9  C   UNL     1      -3.865   2.003  24.316  0.00  0.00    +0.105 A 
ATOM     10  N   UNL     1      -3.826   2.181  23.512  0.00  0.00    -0.169 NA
ATOM     11  N   UNL     1      -3.051   2.052  23.260  0.00  0.00    -0.253 N 
ATOM     12  C   UNL     1      -2.766   2.161  22.493  0.00  0.00    +0.153 C 
ATOM     13  C   UNL     1      -2.612   1.793  23.908  0.00  0.00    +0.058 A 
ATOM     14  C   UNL     1      -3.114   1.763  24.562  0.00  0.00    +0.035 A 
BRANCH   9   4
ATOM      3  C   UNL     1      -4.662   2.724  25.257  0.00  0.00    +0.140 A 
ATOM      4  C   UNL     1      -4.536   2.055  24.793  0.00  0.00    +0.053 A 
ATOM      5  C   UNL     1      -5.082   1.436  24.804  0.00  0.00    +0.005 A 
ATOM      6  C   UNL     1      -5.755   1.488  25.281  0.00  0.00    +0.000 A 
ATOM      7  C   UNL     1      -5.880   2.158  25.745  0.00  0.00    +0.003 A 
ATOM      8  C   UNL     1      -5.334   2.776  25.734  0.00  0.00    +0.037 A 
BRANCH   3   2
ATOM      1  C   UNL     1      -4.210   3.985  25.753  0.00  0.00    +0.252 C 
ATOM      2  O   UNL     1      -4.116   3.343  25.246  0.00  0.00    -0.471 OA
ENDBRANCH   3   2
ENDBRANCH   9   4
ENDBRANCH  15  13
BRANCH  22  23
ATOM     23  C   UNL     1       0.499   1.062  23.887  0.00  0.00    +0.226 C 
BRANCH  23  24
ATOM     24  O   UNL     1       0.943   0.617  23.352  0.00  0.00    -0.432 OA
BRANCH  24  25
ATOM     25  C   UNL     1       1.764   0.695  23.332  0.00  0.00    +0.425 C 
ATOM     26  O   UNL     1       2.130   1.309  23.744  0.00  0.00    -0.224 OA
ATOM     27  N   UNL     1       2.219   0.160  22.900  0.00  0.00    -0.142 NA
BRANCH  27  28
ATOM     28  C   UNL     1       3.040   0.238  22.879  0.00  0.00    +0.077 A 
ATOM     29  C   UNL     1       3.516  -0.293  23.293  0.00  0.00    +0.017 A 
ATOM     30  C   UNL     1       4.337  -0.215  23.273  0.00  0.00    +0.001 A 
ATOM     31  C   UNL     1       4.683   0.396  22.839  0.00  0.00    +0.000 A 
ATOM     32  C   UNL     1       4.207   0.928  22.425  0.00  0.00    +0.001 A 
ATOM     33  C   UNL     1       3.386   0.849  22.446  0.00  0.00    +0.017 A 
ENDBRANCH  27  28
ENDBRANCH  24  25
ENDBRANCH  23  24
ENDBRANCH  22  23
TORSDOF 7
ENDMDL
MODEL 2
REMARK VINA RESULT:      -9.3      2.964      4.849
REMARK  Name = 
REMARK  7 active torsions:
REMARK  status: ('A' for Active; 'I' for Inactive)
REMARK    1  A    between atoms: O_2  and  C_3
REMARK    2  A    between atoms: C_4  and  C_9
REMARK    3  A    between atoms: C_13  and  C_15
REMARK    4  A    between atoms: C_22  and  C_23
REMARK    5  A    between atoms: C_23  and  O_24
REMARK    6  A    between atoms: O_24  and  C_25
REMARK    7  A    between atoms: N_27  and  C_28
REMARK                            x       y       z     vdW  Elec       q    Type
REMARK                         _______ _______ _______ _____ _____    ______ ____
ROOT
ATOM     15  C   UNL     1      -0.584   1.390  25.205  0.00  0.00    +0.056 C 
ATOM     16  C   UNL     1      -0.965   0.887  25.661  0.00  0.00    +0.078 C 
ATOM     17  N   UNL     1      -0.558   0.704  24.966  0.00  0.00    -0.270 NA
ATOM     18  C   UNL     1      -0.159   1.599  24.596  0.00  0.00    +0.072 C 
ATOM     19  C   UNL     1       0.187   1.925  24.147  0.00  0.00    +0.018 C 
ATOM     20  C   UNL     1      -0.186   1.202  24.525  0.00  0.00    +0.010 C 
ATOM     21  C   UNL     1      -0.061   0.440  24.108  0.00  0.00    +0.020 C 
ATOM     22  C   UNL     1      -0.424  -0.085  24.528  0.00  0.00    +0.102 C 
ENDROOT
BRANCH  15  13
ATOM      9  C   UNL     1      -0.826   3.495  25.468  0.00  0.00    +0.105 A 
ATOM     10  N   UNL     1      -0.344   3.309  26.110  0.00  0.00    -0.169 NA
ATOM     11  N   UNL     1      -0.194   2.498  26.090  0.00  0.00    -0.253 N 
ATOM     12  C   UNL     1       0.265   2.076  26.630  0.00  0.00    +0.153 C 
ATOM     13  C   UNL     1      -0.585   2.183  25.435  0.00  0.00    +0.058 A 
ATOM     14  C   UNL     1      -0.975   2.799  25.050  0.00  0.00    +0.035 A 
BRANCH   9   4
ATOM      3  C   UNL     1      -1.866   4.474  25.513  0.00  0.00    +0.140 A 
ATOM      4  C   UNL     1      -1.110   4.245  25.276  0.00  0.00    +0.053 A 
ATOM      5  C   UNL     1      -0.637   4.768  24.847  0.00  0.00    +0.005 A 
ATOM      6  C   UNL     1      -0.921   5.519  24.655  0.00  0.00    +0.000 A 
ATOM      7  C   UNL     1      -1.677   5.747  24.892  0.00  0.00    +0.003 A 
ATOM      8  C   UNL     1      -2.150   5.224  25.321  0.00  0.00    +0.037 A 
BRANCH   3   2
ATOM      1  C   UNL     1      -3.102   4.173  26.163  0.00  0.00    +0.252 C 
ATOM      2  O   UNL     1      -2.339   3.951  25.942  0.00  0.00    -0.471 OA
ENDBRANCH   3   2
ENDBRANCH   9   4
ENDBRANCH  15  13
BRANCH  22  23
ATOM     23  C   UNL     1      -0.594  -0.891  24.562  0.00  0.00    +0.226 C 
BRANCH  23  24
ATOM     24  O   UNL     1      -1.222  -1.160  25.024  0.00  0.00    -0.432 OA
BRANCH  24  25
ATOM     25  C   UNL     1      -1.814  -1.624  24.685  0.00  0.00    +0.425 C 
ATOM     26  O   UNL     1      -1.620  -2.192  24.119  0.00  0.00    -0.224 OA
ATOM     27  N   UNL     1      -2.601  -1.520  24.912  0.00  0.00    -0.142 NA
BRANCH  27  28
ATOM     28  C   UNL     1      -3.193  -1.984  24.573  0.00  0.00    +0.077 A 
ATOM     29  C   UNL     1      -3.248  -2.785  24.762  0.00  0.00    +0.017 A 
ATOM     30  C   UNL     1      -3.840  -3.250  24.423  0.00  0.00    +0.001 A 
ATOM     31  C   UNL     1      -4.377  -2.913  23.895  0.00  0.00    +0.000 A 
ATOM     32  C   UNL     1      -4.321  -2.112  23.706  0.00  0.00    +0.001 A 
ATOM     33  C   UNL     1      -3.730  -1.647  24.045  0.00  0.00    +0.017 A 
ENDBRANCH  27  28
ENDBRANCH  24  25
ENDBRANCH  23  24
ENDBRANCH  22  23
TORSDOF 7
ENDMDL
MODEL 3
REMARK VINA RESULT:      -9.0      1.693      2.538
REMARK  Name = 
REMARK  7 active torsions:
REMARK  status: ('A' for Active; 'I' for Inactive)
REMARK    1  A    between atoms: O_2  and  C_3
REMARK    2  A    between atoms: C_4  and  C_9
REMARK    3  A    between atoms: C_13  and  C_15
REMARK    4  A    between atoms: C_22  and  C_23
REMARK    5  A    between atoms: C_23  and  O_24
REMARK    6  A    between atoms: O_24  and  C_25
REMARK    7  A    between atoms: N_27  and  C_28
REMARK                            x       y       z     vdW  Elec       q    Type
REMARK                         _______ _______ _______ _____ _____    ______ ____
ROOT
ATOM     15  C   UNL     1      -0.591  -0.036  24.129  0.00  0.00    +0.056 C 
ATOM     16  C   UNL     1      -0.232  -0.709  23.971  0.00  0.00    +0.078 C 
ATOM     17  N   UNL     1       0.038   0.046  23.773  0.00  0.00    -0.270 NA
ATOM     18  C   UNL     1      -0.673   0.731  24.126  0.00  0.00    +0.072 C 
ATOM     19  C   UNL     1      -0.880   1.346  24.203  0.00  0.00    +0.018 C 
ATOM     20  C   UNL     1      -0.320   0.701  23.931  0.00  0.00    +0.010 C 
ATOM     21  C   UNL     1       0.403   0.969  23.512  0.00  0.00    +0.020 C 
ATOM     22  C   UNL     1       0.787   0.332  23.338  0.00  0.00    +0.102 C 
ENDROOT
BRANCH  15  13
ATOM      9  C   UNL     1      -2.605   0.039  24.835  0.00  0.00    +0.105 A 
ATOM     10  N   UNL     1      -2.226  -0.323  25.472  0.00  0.00    -0.169 NA
ATOM     11  N   UNL     1      -1.426  -0.395  25.285  0.00  0.00    -0.253 N 
ATOM     12  C   UNL     1      -0.843  -0.727  25.766  0.00  0.00    +0.153 C 
ATOM     13  C   UNL     1      -1.310  -0.078  24.532  0.00  0.00    +0.058 A 
ATOM     14  C   UNL     1      -2.039   0.191  24.254  0.00  0.00    +0.035 A 
BRANCH   9   4
ATOM      3  C   UNL     1      -3.939  -0.340  24.493  0.00  0.00    +0.140 A 
ATOM      4  C   UNL     1      -3.408   0.218  24.787  0.00  0.00    +0.053 A 
ATOM      5  C   UNL     1      -3.681   0.957  25.032  0.00  0.00    +0.005 A 
ATOM      6  C   UNL     1      -4.486   1.137  24.984  0.00  0.00    +0.000 A 
ATOM      7  C   UNL     1      -5.016   0.578  24.691  0.00  0.00    +0.003 A 
ATOM      8  C   UNL     1      -4.743  -0.161  24.445  0.00  0.00    +0.037 A 
BRANCH   3   2
ATOM      1  C   UNL     1      -4.196  -1.637  23.953  0.00  0.00    +0.252 C 
ATOM      2  O   UNL     1      -3.666  -1.079  24.248  0.00  0.00    -0.471 OA
ENDBRANCH   3   2
ENDBRANCH   9   4
ENDBRANCH  15  13
BRANCH  22  23
ATOM     23  C   UNL     1       1.475   0.062  22.971  0.00  0.00    +0.226 C 
BRANCH  23  24
ATOM     24  O   UNL     1       2.116   0.572  22.871  0.00  0.00    -0.432 OA
BRANCH  24  25
ATOM     25  C   UNL     1       2.884   0.274  22.871  0.00  0.00    +0.425 C 
ATOM     26  O   UNL     1       3.111  -0.283  22.306  0.00  0.00    -0.224 OA
ATOM     27  N   UNL     1       3.428   0.532  23.436  0.00  0.00    -0.142 NA
BRANCH  27  28
ATOM     28  C   UNL     1       4.197   0.233  23.435  0.00  0.00    +0.077 A 
ATOM     29  C   UNL     1       4.806   0.662  23.081  0.00  0.00    +0.017 A 
ATOM     30  C   UNL     1       5.575   0.363  23.080  0.00  0.00    +0.001 A 
ATOM     31  C   UNL     1       5.735  -0.365  23.434  0.00  0.00    +0.000 A 
ATOM     32  C   UNL     1       5.126  -0.794  23.788  0.00  0.00    +0.001 A 
ATOM     33  C   UNL     1       4.357  -0.495  23.789  0.00  0.00    +0.017 A 
ENDBRANCH  27  28
ENDBRANCH  24  25
ENDBRANCH  23  24
ENDBRANCH  22  23
TORSDOF 7
ENDMDL
MODEL 4
REMARK VINA RESULT:      -8.5      3.385      5.339
REMARK  Name = 
REMARK  7 active torsions:
REMARK  status: ('A' for Active; 'I' for Inactive)
REMARK    1  A    between atoms: O_2  and  C_3
REMARK    2  A    between atoms: C_4  and  C_9
REMARK    3  A    between atoms: C_13  and  C_15
REMARK    4  A    between atoms: C_22  and  C_23
REMARK    5  A    between atoms: C_23  and  O_24
REMARK    6  A    between atoms: O_24  and  C_25
REMARK    7  A    between atoms: N_27  and  C_28
REMARK                            x       y       z     vdW  Elec       q    Type
REMARK                         _______ _______ _______ _____ _____    ______ ____
ROOT
ATOM     15  C   UNL     1      -3.701   2.618  25.204  0.00  0.00    +0.056 C 
ATOM     16  C   UNL     1      -3.616   2.001  25.670  0.00  0.00    +0.078 C 
ATOM     17  N   UNL     1      -4.108   2.048  25.008  0.00  0.00    -0.270 NA
ATOM     18  C   UNL     1      -3.991   3.008  24.604  0.00  0.00    +0.072 C 
ATOM     19  C   UNL     1      -4.140   3.457  24.153  0.00  0.00    +0.018 C 
ATOM     20  C   UNL     1      -4.185   2.657  24.556  0.00  0.00    +0.010 C 
ATOM     21  C   UNL     1      -4.729   2.072  24.193  0.00  0.00    +0.020 C 
ATOM     22  C   UNL     1      -4.675   1.445  24.625  0.00  0.00    +0.102 C 
ENDROOT
BRANCH  15  13
ATOM      9  C   UNL     1      -2.326   4.245  25.350  0.00  0.00    +0.105 A 
ATOM     10  N   UNL     1      -2.834   4.409  25.978  0.00  0.00    -0.169 NA
ATOM     11  N   UNL     1      -3.410   3.820  26.000  0.00  0.00    -0.253 N 
ATOM     12  C   UNL     1      -4.030   3.768  26.542  0.00  0.00    +0.153 C 
ATOM     13  C   UNL     1      -3.259   3.292  25.385  0.00  0.00    +0.058 A 
ATOM     14  C   UNL     1      -2.588   3.554  24.982  0.00  0.00    +0.035 A 
BRANCH   9   4
ATOM      3  C   UNL     1      -0.918   4.356  25.133  0.00  0.00    +0.140 A 
ATOM      4  C   UNL     1      -1.670   4.693  25.127  0.00  0.00    +0.053 A 
ATOM      5  C   UNL     1      -1.767   5.480  24.897  0.00  0.00    +0.005 A 
ATOM      6  C   UNL     1      -1.110   5.929  24.674  0.00  0.00    +0.000 A 
ATOM      7  C   UNL     1      -0.359   5.590  24.680  0.00  0.00    +0.003 A 
ATOM      8  C   UNL     1      -0.262   4.804  24.910  0.00  0.00    +0.037 A 
BRANCH   3   2
ATOM      1  C   UNL     1      -0.065   3.241  25.403  0.00  0.00    +0.252 C 
ATOM      2  O   UNL     1      -0.821   3.569  25.362  0.00  0.00    -0.471 OA
ENDBRANCH   3   2
ENDBRANCH   9   4
ENDBRANCH  15  13
BRANCH  22  23
ATOM     23  C   UNL     1      -4.962   0.676  24.700  0.00  0.00    +0.226 C 
BRANCH  23  24
ATOM     24  O   UNL     1      -4.765   0.106  24.137  0.00  0.00    -0.432 OA
BRANCH  24  25
ATOM     25  C   UNL     1      -4.459  -0.622  24.375  0.00  0.00    +0.425 C 
ATOM     26  O   UNL     1      -4.627  -0.913  25.129  0.00  0.00    -0.224 OA
ATOM     27  N   UNL     1      -3.985  -1.059  23.861  0.00  0.00    -0.142 NA
BRANCH  27  28
ATOM     28  C   UNL     1      -3.679  -1.787  24.100  0.00  0.00    +0.077 A 
ATOM     29  C   UNL     1      -4.115  -2.477  23.981  0.00  0.00    +0.017 A 
ATOM     30  C   UNL     1      -3.809  -3.205  24.220  0.00  0.00    +0.001 A 
ATOM     31  C   UNL     1      -3.067  -3.243  24.577  0.00  0.00    +0.000 A 
ATOM     32  C   UNL     1      -2.630  -2.554  24.696  0.00  0.00    +0.001 A 
ATOM     33  C   UNL     1      -2.936  -1.825  24.457  0.00  0.00    +0.017 A 
ENDBRANCH  27  28
ENDBRANCH  24  25
ENDBRANCH  23  24
ENDBRANCH  22  23
TORSDOF 7
ENDMDL
MODEL 5
REMARK VINA RESULT:      -8.1      2.832      4.593
REMARK  Name = 
REMARK  7 active torsions:
REMARK  status: ('A' for Active; 'I' for Inactive)
REMARK    1  A    between atoms: O_2  and  C_3
REMARK    2  A    between atoms: C_4  and  C_9
REMARK    3  A    between atoms: C_13  and  C_15
REMARK    4  A    between atoms: C_22  and  C_23
REMARK    5  A    between atoms: C_23  and  O_24
REMARK    6  A    between atoms: O_24  and  C_25
REMARK    7  A    between atoms: N_27  and  C_28
REMARK                            x       y       z     vdW  Elec       q    Type
REMARK                         _______ _______ _______ _____ _____    ______ ____
ROOT
ATOM     15  C   UNL     1      -1.112   0.040  25.048  0.00  0.00    +0.056 C 
ATOM     16  C   UNL     1      -1.233   0.654  25.510  0.00  0.00    +0.078 C 
ATOM     17  N   UNL     1      -0.638   0.581  24.943  0.00  0.00    -0.270 NA
ATOM     18  C   UNL     1      -0.750  -0.361  24.496  0.00  0.00    +0.072 C 
ATOM     19  C   UNL     1      -0.557  -0.812  24.065  0.00  0.00    +0.018 C 
ATOM     20  C   UNL     1      -0.526  -0.025  24.493  0.00  0.00    +0.010 C 
ATOM     21  C   UNL     1       0.114   0.524  24.246  0.00  0.00    +0.020 C 
ATOM     22  C   UNL     1       0.029   1.146  24.681  0.00  0.00    +0.102 C 
ENDROOT
BRANCH  15  13
ATOM      9  C   UNL     1      -2.572  -1.509  24.883  0.00  0.00    +0.105 A 
ATOM     10  N   UNL     1      -2.257  -1.667  25.629  0.00  0.00    -0.169 NA
ATOM     11  N   UNL     1      -1.672  -1.106  25.781  0.00  0.00    -0.253 N 
ATOM     12  C   UNL     1      -1.213  -1.056  26.466  0.00  0.00    +0.153 C 
ATOM     13  C   UNL     1      -1.626  -0.602  25.130  0.00  0.00    +0.058 A 
ATOM     14  C   UNL     1      -2.182  -0.851  24.574  0.00  0.00    +0.035 A 
BRANCH   9   4
ATOM      3  C   UNL     1      -3.893  -1.572  24.341  0.00  0.00    +0.140 A 
ATOM      4  C   UNL     1      -3.173  -1.936  24.512  0.00  0.00    +0.053 A 
ATOM      5  C   UNL     1      -3.052  -2.727  24.309  0.00  0.00    +0.005 A 
ATOM      6  C   UNL     1      -3.653  -3.154  23.937  0.00  0.00    +0.000 A 
ATOM      7  C   UNL     1      -4.373  -2.790  23.767  0.00  0.00    +0.003 A 
ATOM      8  C   UNL     1      -4.494  -1.999  23.970  0.00  0.00    +0.037 A 
BRANCH   3   2
ATOM      1  C   UNL     1      -4.729  -0.414  24.364  0.00  0.00    +0.252 C 
ATOM      2  O   UNL     1      -4.014  -0.781  24.544  0.00  0.00    -0.471 OA
ENDBRANCH   3   2
ENDBRANCH   9   4
ENDBRANCH  15  13
BRANCH  22  23
ATOM     23  C   UNL     1       0.352   1.890  24.828  0.00  0.00    +0.226 C 
BRANCH  23  24
ATOM     24  O   UNL     1       0.148   2.529  24.348  0.00  0.00    -0.432 OA
BRANCH  24  25
ATOM     25  C   UNL     1      -0.176   3.210  24.682  0.00  0.00    +0.425 C 
ATOM     26  O   UNL     1       0.133   3.511  25.385  0.00  0.00    -0.224 OA
ATOM     27  N   UNL     1      -0.810   3.590  24.315  0.00  0.00    -0.142 NA
BRANCH  27  28
ATOM     28  C   UNL     1      -1.134   4.271  24.650  0.00  0.00    +0.077 A 
ATOM     29  C   UNL     1      -0.764   5.000  24.540  0.00  0.00    +0.017 A 
ATOM     30  C   UNL     1      -1.088   5.681  24.875  0.00  0.00    +0.001 A 
ATOM     31  C   UNL     1      -1.781   5.633  25.320  0.00  0.00    +0.000 A 
ATOM     32  C   UNL     1      -2.150   4.903  25.431  0.00  0.00    +0.001 A 
ATOM     33  C   UNL     1      -1.826   4.222  25.095  0.00  0.00    +0.017 A 
ENDBRANCH  27  28
ENDBRANCH  24  25
ENDBRANCH  23  24
ENDBRANCH  22  23
TORSDOF 7
ENDMDL
