MODEL 1
REMARK VINA RESULT:      -9.9      0.000      0.000
REMARK  Name = 
REMARK  5 active torsions:
REMARK  status: ('A' for Active; 'I' for Inactive)
REMARK    1  A    between atoms: C_2  and  C_5
REMARK    2  A    between atoms: N_10  and  C_11
REMARK    3  A    between atoms: C_15  and  N_19
REMARK    4  A    between atoms: N_22  and  C_23
REMARK    5  A    between atoms: C_23  and  C_24
REMARK                            x       y       z     vdW  Elec       q    Type
REMARK                         _______ _______ _______ _____ _____    ______ ____
ROOT
ATOM     11  C   UNL     1      -1.726   1.605  24.929  0.00  0.00    +0.154 C 
ATOM     12  C   UNL     1      -1.285   2.230  25.237  0.00  0.00    +0.166 C 
ATOM     13  O   UNL     1      -0.519   2.172  24.938  0.00  0.00    -0.350 OA
ATOM     14  C   UNL     1      -0.486   1.512  24.445  0.00  0.00    +0.166 C 
ATOM     15  C   UNL     1       0.007   1.068  23.955  0.00  0.00    +0.156 C 
ATOM     16  C   UNL     1      -0.434   0.443  23.647  0.00  0.00    +0.166 C 
ATOM     17  O   UNL     1      -1.200   0.500  23.946  0.00  0.00    -0.350 OA
ATOM     18  C   UNL     1      -1.232   1.161  24.440  0.00  0.00    +0.166 C 
ENDROOT
BRANCH  11  10
ATOM      5  C   UNL     1      -4.446   2.481  25.018  0.00  0.00    +0.063 A 
ATOM      6  C   UNL     1      -4.214   3.227  24.754  0.00  0.00    +0.035 A 
ATOM      7  C   UNL     1      -3.418   3.381  24.599  0.00  0.00    +0.103 A 
ATOM      8  N   UNL     1      -2.854   2.789  24.709  0.00  0.00    -0.211 NA
ATOM      9  C   UNL     1      -3.086   2.043  24.973  0.00  0.00    +0.236 A 
ATOM     10  N   UNL     1      -2.522   1.451  25.083  0.00  0.00    -0.200 NA
ATOM     30  N   UNL     1      -3.882   1.889  25.128  0.00  0.00    -0.217 NA
BRANCH   5   2
ATOM      1  C   UNL     1      -6.037   2.172  25.326  0.00  0.00    +0.006 C 
ATOM      2  C   UNL     1      -5.241   2.327  25.172  0.00  0.00    +0.036 C 
ATOM      3  C   UNL     1      -5.242   1.747  24.586  0.00  0.00    +0.006 C 
ATOM      4  C   UNL     1      -5.240   2.907  25.759  0.00  0.00    +0.006 C 
ENDBRANCH   5   2
ENDBRANCH  11  10
BRANCH  15  19
ATOM     19  N   UNL     1       0.803   1.222  23.801  0.00  0.00    -0.184 NA
ATOM     20  C   UNL     1       1.262   0.664  23.401  0.00  0.00    +0.340 C 
ATOM     21  O   UNL     1       0.925  -0.048  23.156  0.00  0.00    -0.249 OA
ATOM     22  N   UNL     1       2.058   0.819  23.247  0.00  0.00    -0.182 NA
BRANCH  22  23
ATOM     23  C   UNL     1       2.516   0.261  22.848  0.00  0.00    +0.143 C 
BRANCH  23  24
ATOM     24  C   UNL     1       3.336   0.258  22.939  0.00  0.00    -0.001 A 
ATOM     25  C   UNL     1       3.781   0.911  22.706  0.00  0.00    -0.003 A 
ATOM     26  C   UNL     1       4.600   0.908  22.798  0.00  0.00    -0.000 A 
ATOM     27  C   UNL     1       4.975   0.249  23.124  0.00  0.00    -0.000 A 
ATOM     28  C   UNL     1       4.531  -0.406  23.358  0.00  0.00    -0.000 A 
ATOM     29  C   UNL     1       3.711  -0.402  23.266  0.00  0.00    -0.003 A 
ENDBRANCH  23  24
ENDBRANCH  22  23
ENDBRANCH  15  19
TORSDOF 5
ENDMDL
MODEL 2
REMARK VINA RESULT:      -9.1      0.758      7.072
REMARK  Name = 
REMARK  5 active torsions:
REMARK  status: ('A' for Active; 'I' for Inactive)
REMARK    1  A    between atoms: C_2  and  C_5
REMARK    2  A    between atoms: N_10  and  C_11
REMARK    3  A    between atoms: C_15  and  N_19
REMARK    4  A    between atoms: N_22  and  C_23
REMARK    5  A    between atoms: C_23  and  C_24
REMARK                            x       y       z     vdW  Elec       q    Type
REMARK                         _______ _______ _______ _____ _____    ______ ____
ROOT
ATOM     11  C   UNL     1       0.606   1.143  23.904  0.00  0.00    +0.154 C 
ATOM     12  C   UNL     1       0.180   0.456  23.742  0.00  0.00    +0.166 C 
ATOM     13  O   UNL     1      -0.623   0.641  23.771  0.00  0.00    -0.350 OA
ATOM     14  C   UNL     1      -0.694   1.442  23.952  0.00  0.00    +0.166 C 
ATOM     15  C   UNL     1      -1.234   2.052  24.082  0.00  0.00    +0.156 C 
ATOM     16  C   UNL     1      -0.808   2.740  24.245  0.00  0.00    +0.166 C 
ATOM     17  O   UNL     1      -0.005   2.554  24.215  0.00  0.00    -0.350 OA
ATOM     18  C   UNL     1       0.066   1.752  24.034  0.00  0.00    +0.166 C 
ENDROOT
BRANCH  11  10
ATOM      5  C   UNL     1       3.180   0.465  22.864  0.00  0.00    +0.063 A 
ATOM      6  C   UNL     1       2.824  -0.006  22.289  0.00  0.00    +0.035 A 
ATOM      7  C   UNL     1       2.001  -0.072  22.261  0.00  0.00    +0.103 A 
ATOM      8  N   UNL     1       1.536   0.333  22.809  0.00  0.00    -0.211 NA
ATOM      9  C   UNL     1       1.893   0.804  23.384  0.00  0.00    +0.236 A 
ATOM     10  N   UNL     1       1.428   1.209  23.932  0.00  0.00    -0.200 NA
ATOM     30  N   UNL     1       2.715   0.870  23.412  0.00  0.00    -0.217 NA
BRANCH   5   2
ATOM      1  C   UNL     1       4.824   0.596  22.920  0.00  0.00    +0.006 C 
ATOM      2  C   UNL     1       4.002   0.530  22.892  0.00  0.00    +0.036 C 
ATOM      3  C   UNL     1       4.047  -0.195  23.280  0.00  0.00    +0.006 C 
ATOM      4  C   UNL     1       3.957   1.257  22.503  0.00  0.00    +0.006 C 
ENDBRANCH   5   2
ENDBRANCH  11  10
BRANCH  15  19
ATOM     19  N   UNL     1      -2.056   1.986  24.054  0.00  0.00    -0.184 NA
ATOM     20  C   UNL     1      -2.520   2.377  24.613  0.00  0.00    +0.340 C 
ATOM     21  O   UNL     1      -2.163   2.834  25.200  0.00  0.00    -0.249 OA
ATOM     22  N   UNL     1      -3.343   2.311  24.585  0.00  0.00    -0.182 NA
BRANCH  22  23
ATOM     23  C   UNL     1      -3.807   2.702  25.144  0.00  0.00    +0.143 C 
BRANCH  23  24
ATOM     24  C   UNL     1      -4.611   2.527  25.208  0.00  0.00    -0.001 A 
ATOM     25  C   UNL     1      -4.914   1.842  24.865  0.00  0.00    -0.003 A 
ATOM     26  C   UNL     1      -5.716   1.667  24.930  0.00  0.00    -0.000 A 
ATOM     27  C   UNL     1      -6.218   2.179  25.339  0.00  0.00    -0.000 A 
ATOM     28  C   UNL     1      -5.916   2.866  25.683  0.00  0.00    -0.000 A 
ATOM     29  C   UNL     1      -5.112   3.040  25.618  0.00  0.00    -0.003 A 
ENDBRANCH  23  24
ENDBRANCH  22  23
ENDBRANCH  15  19
TORSDOF 5
ENDMDL
MODEL 3
REMARK VINA RESULT:      -8.8      1.069      1.631
REMARK  Name = 
REMARK  5 active torsions:
REMARK  status: ('A' for Active; 'I' for Inactive)
REMARK    1  A    between atoms: C_2  and  C_5
REMARK    2  A    between atoms: N_10  and  C_11
REMARK    3  A    between atoms: C_15  and  N_19
REMARK    4  A    between atoms: N_22  and  C_23
REMARK    5  A    between atoms: C_23  and  C_24
REMARK                            x       y       z     vdW  Elec       q    Type
REMARK                         _______ _______ _______ _____ _____    ______ ____
ROOT
ATOM     11  C   UNL     1      -1.326   0.644  24.576  0.00  0.00    +0.154 C 
ATOM     12  C   UNL     1      -1.207  -0.165  24.680  0.00  0.00    +0.166 C 
ATOM     13  O   UNL     1      -0.470  -0.356  24.361  0.00  0.00    -0.350 OA
ATOM     14  C   UNL     1      -0.135   0.334  24.061  0.00  0.00    +0.166 C 
ATOM     15  C   UNL     1       0.527   0.643  23.678  0.00  0.00    +0.156 C 
ATOM     16  C   UNL     1       0.408   1.452  23.573  0.00  0.00    +0.166 C 
ATOM     17  O   UNL     1      -0.329   1.644  23.892  0.00  0.00    -0.350 OA
ATOM     18  C   UNL     1      -0.664   0.952  24.193  0.00  0.00    +0.166 C 
ENDROOT
BRANCH  11  10
ATOM      5  C   UNL     1      -4.166   0.959  24.653  0.00  0.00    +0.063 A 
ATOM      6  C   UNL     1      -4.255   0.263  24.218  0.00  0.00    +0.035 A 
ATOM      7  C   UNL     1      -3.589  -0.163  23.981  0.00  0.00    +0.103 A 
ATOM      8  N   UNL     1      -2.835   0.106  24.179  0.00  0.00    -0.211 NA
ATOM      9  C   UNL     1      -2.747   0.802  24.615  0.00  0.00    +0.236 A 
ATOM     10  N   UNL     1      -1.992   1.071  24.813  0.00  0.00    -0.200 NA
ATOM     30  N   UNL     1      -3.412   1.227  24.851  0.00  0.00    -0.217 NA
BRANCH   5   2
ATOM      1  C   UNL     1      -5.497   1.811  25.127  0.00  0.00    +0.006 C 
ATOM      2  C   UNL     1      -4.832   1.384  24.890  0.00  0.00    +0.036 C 
ATOM      3  C   UNL     1      -4.638   1.983  24.358  0.00  0.00    +0.006 C 
ATOM      4  C   UNL     1      -5.026   0.785  25.423  0.00  0.00    +0.006 C 
ENDBRANCH   5   2
ENDBRANCH  11  10
BRANCH  15  19
ATOM     19  N   UNL     1       1.193   0.217  23.441  0.00  0.00    -0.184 NA
ATOM     20  C   UNL     1       1.899   0.611  23.279  0.00  0.00    +0.340 C 
ATOM     21  O   UNL     1       1.941   1.432  23.354  0.00  0.00    -0.249 OA
ATOM     22  N   UNL     1       2.565   0.185  23.042  0.00  0.00    -0.182 NA
BRANCH  22  23
ATOM     23  C   UNL     1       3.271   0.579  22.880  0.00  0.00    +0.143 C 
BRANCH  23  24
ATOM     24  C   UNL     1       3.990   0.255  23.123  0.00  0.00    -0.001 A 
ATOM     25  C   UNL     1       4.040  -0.545  23.315  0.00  0.00    -0.003 A 
ATOM     26  C   UNL     1       4.758  -0.868  23.557  0.00  0.00    -0.000 A 
ATOM     27  C   UNL     1       5.429  -0.390  23.607  0.00  0.00    -0.000 A 
ATOM     28  C   UNL     1       5.381   0.411  23.415  0.00  0.00    -0.000 A 
ATOM     29  C   UNL     1       4.661   0.734  23.173  0.00  0.00    -0.003 A 
ENDBRANCH  23  24
ENDBRANCH  22  23
ENDBRANCH  15  19
TORSDOF 5
ENDMDL
MODEL 4
REMARK VINA RESULT:      -7.3     15.568     16.960
REMARK  Name = 
REMARK  5 active torsions:
REMARK  status: ('A' for Active; 'I' for Inactive)
REMARK    1  A    between atoms: C_2  and  C_5
REMARK    2  A    between atoms: N_10  and  C_11
REMARK    3  A    between atoms: C_15  and  N_19
REMARK    4  A    between atoms: N_22  and  C_23
REMARK    5  A    between atoms: C_23  and  C_24
REMARK                            x       y       z     vdW  Elec       q    Type
REMARK                         _______ _______ _______ _____ _____    ______ ____
ROOT
ATOM     11  C   UNL     1      -5.276 -10.467  12.709  0.00  0.00    +0.154 C 
ATOM     12  C   UNL     1      -6.098 -10.486  12.774  0.00  0.00    +0.166 C 
ATOM     13  O   UNL     1      -6.288 -10.546  13.574  0.00  0.00    -0.350 OA
ATOM     14  C   UNL     1      -5.585 -10.565  14.003  0.00  0.00    +0.166 C 
ATOM     15  C   UNL     1      -5.266 -10.614  14.763  0.00  0.00    +0.156 C 
ATOM     16  C   UNL     1      -4.444 -10.596  14.698  0.00  0.00    +0.166 C 
ATOM     17  O   UNL     1      -4.254 -10.535  13.898  0.00  0.00    -0.350 OA
ATOM     18  C   UNL     1      -4.959 -10.516  13.468  0.00  0.00    +0.166 C 
ENDROOT
BRANCH  11  10
ATOM      5  C   UNL     1      -4.635  -9.056  10.307  0.00  0.00    +0.063 A 
ATOM      6  C   UNL     1      -5.174  -8.465  10.510  0.00  0.00    +0.035 A 
ATOM      7  C   UNL     1      -5.604  -8.523  11.213  0.00  0.00    +0.103 A 
ATOM      8  N   UNL     1      -5.495  -9.171  11.712  0.00  0.00    -0.211 NA
ATOM      9  C   UNL     1      -4.955  -9.762  11.507  0.00  0.00    +0.236 A 
ATOM     10  N   UNL     1      -4.846 -10.410  12.006  0.00  0.00    -0.200 NA
ATOM     30  N   UNL     1      -4.526  -9.704  10.806  0.00  0.00    -0.217 NA
BRANCH   5   2
ATOM      1  C   UNL     1      -3.777  -8.940   8.903  0.00  0.00    +0.006 C 
ATOM      2  C   UNL     1      -4.206  -8.998   9.605  0.00  0.00    +0.036 C 
ATOM      3  C   UNL     1      -3.509  -8.922  10.038  0.00  0.00    +0.006 C 
ATOM      4  C   UNL     1      -4.905  -9.074   9.172  0.00  0.00    +0.006 C 
ENDBRANCH   5   2
ENDBRANCH  11  10
BRANCH  15  19
ATOM     19  N   UNL     1      -5.696 -10.672  15.465  0.00  0.00    -0.184 NA
ATOM     20  C   UNL     1      -5.305 -10.644  16.191  0.00  0.00    +0.340 C 
ATOM     21  O   UNL     1      -4.485 -10.559  16.216  0.00  0.00    -0.249 OA
ATOM     22  N   UNL     1      -5.735 -10.702  16.894  0.00  0.00    -0.182 NA
BRANCH  22  23
ATOM     23  C   UNL     1      -5.344 -10.674  17.620  0.00  0.00    +0.143 C 
BRANCH  23  24
ATOM     24  C   UNL     1      -5.777 -10.673  18.322  0.00  0.00    -0.001 A 
ATOM     25  C   UNL     1      -5.394 -10.563  19.044  0.00  0.00    -0.003 A 
ATOM     26  C   UNL     1      -5.826 -10.562  19.745  0.00  0.00    -0.000 A 
ATOM     27  C   UNL     1      -6.644 -10.670  19.726  0.00  0.00    -0.000 A 
ATOM     28  C   UNL     1      -7.029 -10.779  19.004  0.00  0.00    -0.000 A 
ATOM     29  C   UNL     1      -6.595 -10.781  18.301  0.00  0.00    -0.003 A 
ENDBRANCH  23  24
ENDBRANCH  22  23
ENDBRANCH  15  19
TORSDOF 5
ENDMDL
MODEL 5
REMARK VINA RESULT:      -7.0     15.711     16.501
REMARK  Name = 
REMARK  5 active torsions:
REMARK  status: ('A' for Active; 'I' for Inactive)
REMARK    1  A    between atoms: C_2  and  C_5
REMARK    2  A    between atoms: N_10  and  C_11
REMARK    3  A    between atoms: C_15  and  N_19
REMARK    4  A    between atoms: N_22  and  C_23
REMARK    5  A    between atoms: C_23  and  C_24
REMARK                            x       y       z     vdW  Elec       q    Type
REMARK                         _______ _______ _______ _____ _____    ______ ____
ROOT
ATOM     11  C   UNL     1      -8.025 -10.230  14.866  0.00  0.00    +0.154 C 
ATOM     12  C   UNL     1      -7.312 -10.575  15.097  0.00  0.00    +0.166 C 
ATOM     13  O   UNL     1      -6.790 -10.532  14.460  0.00  0.00    -0.350 OA
ATOM     14  C   UNL     1      -7.179 -10.161  13.836  0.00  0.00    +0.166 C 
ATOM     15  C   UNL     1      -7.099  -9.904  13.056  0.00  0.00    +0.156 C 
ATOM     16  C   UNL     1      -7.811  -9.559  12.824  0.00  0.00    +0.166 C 
ATOM     17  O   UNL     1      -8.333  -9.602  13.461  0.00  0.00    -0.350 OA
ATOM     18  C   UNL     1      -7.943  -9.974  14.087  0.00  0.00    +0.166 C 
ENDROOT
BRANCH  11  10
ATOM      5  C   UNL     1      -9.286  -9.329  17.268  0.00  0.00    +0.063 A 
ATOM      6  C   UNL     1      -8.565  -9.030  17.534  0.00  0.00    +0.035 A 
ATOM      7  C   UNL     1      -7.889  -9.106  17.067  0.00  0.00    +0.103 A 
ATOM      8  N   UNL     1      -7.934  -9.481  16.333  0.00  0.00    -0.211 NA
ATOM      9  C   UNL     1      -8.656  -9.779  16.067  0.00  0.00    +0.236 A 
ATOM     10  N   UNL     1      -8.701 -10.154  15.333  0.00  0.00    -0.200 NA
ATOM     30  N   UNL     1      -9.331  -9.704  16.534  0.00  0.00    -0.217 NA
BRANCH   5   2
ATOM      1  C   UNL     1     -10.638  -9.177  18.202  0.00  0.00    +0.006 C 
ATOM      2  C   UNL     1      -9.962  -9.253  17.734  0.00  0.00    +0.036 C 
ATOM      3  C   UNL     1     -10.113  -8.517  17.395  0.00  0.00    +0.006 C 
ATOM      4  C   UNL     1      -9.810  -9.990  18.074  0.00  0.00    +0.006 C 
ENDBRANCH   5   2
ENDBRANCH  11  10
BRANCH  15  19
ATOM     19  N   UNL     1      -6.422  -9.980  12.588  0.00  0.00    -0.184 NA
ATOM     20  C   UNL     1      -6.190  -9.361  12.095  0.00  0.00    +0.340 C 
ATOM     21  O   UNL     1      -6.634  -8.666  12.069  0.00  0.00    -0.249 OA
ATOM     22  N   UNL     1      -5.514  -9.437  11.628  0.00  0.00    -0.182 NA
BRANCH  22  23
ATOM     23  C   UNL     1      -5.282  -8.818  11.135  0.00  0.00    +0.143 C 
BRANCH  23  24
ATOM     24  C   UNL     1      -4.669  -8.928  10.594  0.00  0.00    -0.001 A 
ATOM     25  C   UNL     1      -3.943  -9.227  10.846  0.00  0.00    -0.003 A 
ATOM     26  C   UNL     1      -3.331  -9.337  10.305  0.00  0.00    -0.000 A 
ATOM     27  C   UNL     1      -3.444  -9.147   9.510  0.00  0.00    -0.000 A 
ATOM     28  C   UNL     1      -4.171  -8.848   9.256  0.00  0.00    -0.000 A 
ATOM     29  C   UNL     1      -4.783  -8.738   9.798  0.00  0.00    -0.003 A 
ENDBRANCH  23  24
ENDBRANCH  22  23
ENDBRANCH  15  19
TORSDOF 5
ENDMDL
MODEL 6
REMARK VINA RESULT:      -6.8     15.265     16.023
REMARK  Name = 
REMARK  5 active torsions:
REMARK  status: ('A' for Active; 'I' for Inactive)
REMARK    1  A    between atoms: C_2  and  C_5
REMARK    2  A    between atoms: N_10  and  C_11
REMARK    3  A    between atoms: C_15  and  N_19
REMARK    4  A    between atoms: N_22  and  C_23
REMARK    5  A    between atoms: C_23  and  C_24
REMARK                            x       y       z     vdW  Elec       q    Type
REMARK                         _______ _______ _______ _____ _____    ______ ____
ROOT
ATOM     11  C   UNL     1      -7.063 -10.211  16.087  0.00  0.00    +0.154 C 
ATOM     12  C   UNL     1      -6.428  -9.754  16.348  0.00  0.00    +0.166 C 
ATOM     13  O   UNL     1      -5.912  -9.651  15.713  0.00  0.00    -0.350 OA
ATOM     14  C   UNL     1      -6.228 -10.042  15.060  0.00  0.00    +0.166 C 
ATOM     15  C   UNL     1      -6.106 -10.221  14.264  0.00  0.00    +0.156 C 
ATOM     16  C   UNL     1      -6.741 -10.677  14.003  0.00  0.00    +0.166 C 
ATOM     17  O   UNL     1      -7.257 -10.781  14.638  0.00  0.00    -0.350 OA
ATOM     18  C   UNL     1      -6.940 -10.389  15.292  0.00  0.00    +0.166 C 
ENDROOT
BRANCH  11  10
ATOM      5  C   UNL     1      -9.355  -9.554  17.664  0.00  0.00    +0.063 A 
ATOM      6  C   UNL     1      -9.210  -8.751  17.540  0.00  0.00    +0.035 A 
ATOM      7  C   UNL     1      -8.564  -8.514  17.084  0.00  0.00    +0.103 A 
ATOM      8  N   UNL     1      -8.063  -9.079  16.752  0.00  0.00    -0.211 NA
ATOM      9  C   UNL     1      -8.210  -9.883  16.876  0.00  0.00    +0.236 A 
ATOM     10  N   UNL     1      -7.709 -10.448  16.543  0.00  0.00    -0.200 NA
ATOM     30  N   UNL     1      -8.855 -10.119  17.331  0.00  0.00    -0.217 NA
BRANCH   5   2
ATOM      1  C   UNL     1     -10.646 -10.027  18.575  0.00  0.00    +0.006 C 
ATOM      2  C   UNL     1     -10.000  -9.790  18.119  0.00  0.00    +0.036 C 
ATOM      3  C   UNL     1      -9.495 -10.206  18.620  0.00  0.00    +0.006 C 
ATOM      4  C   UNL     1     -10.507  -9.374  17.618  0.00  0.00    +0.006 C 
ENDBRANCH   5   2
ENDBRANCH  11  10
BRANCH  15  19
ATOM     19  N   UNL     1      -5.460  -9.984  13.808  0.00  0.00    -0.184 NA
ATOM     20  C   UNL     1      -5.429 -10.174  13.006  0.00  0.00    +0.340 C 
ATOM     21  O   UNL     1      -6.044 -10.600  12.659  0.00  0.00    -0.249 OA
ATOM     22  N   UNL     1      -4.783  -9.936  12.550  0.00  0.00    -0.182 NA
BRANCH  22  23
ATOM     23  C   UNL     1      -4.753 -10.126  11.748  0.00  0.00    +0.143 C 
BRANCH  23  24
ATOM     24  C   UNL     1      -4.125  -9.859  11.283  0.00  0.00    -0.001 A 
ATOM     25  C   UNL     1      -3.374 -10.185  11.377  0.00  0.00    -0.003 A 
ATOM     26  C   UNL     1      -2.747  -9.918  10.913  0.00  0.00    -0.000 A 
ATOM     27  C   UNL     1      -2.872  -9.324  10.354  0.00  0.00    -0.000 A 
ATOM     28  C   UNL     1      -3.624  -8.997  10.259  0.00  0.00    -0.000 A 
ATOM     29  C   UNL     1      -4.251  -9.265  10.724  0.00  0.00    -0.003 A 
ENDBRANCH  23  24
ENDBRANCH  22  23
ENDBRANCH  15  19
TORSDOF 5
ENDMDL
MODEL 7
REMARK VINA RESULT:      -6.8     15.557     17.409
REMARK  Name = 
REMARK  5 active torsions:
REMARK  status: ('A' for Active; 'I' for Inactive)
REMARK    1  A    between atoms: C_2  and  C_5
REMARK    2  A    between atoms: N_10  and  C_11
REMARK    3  A    between atoms: C_15  and  N_19
REMARK    4  A    between atoms: N_22  and  C_23
REMARK    5  A    between atoms: C_23  and  C_24
REMARK                            x       y       z     vdW  Elec       q    Type
REMARK                         _______ _______ _______ _____ _____    ______ ____
ROOT
ATOM     11  C   UNL     1      -6.055 -10.171  12.811  0.00  0.00    +0.154 C 
ATOM     12  C   UNL     1      -6.806 -10.122  12.476  0.00  0.00    +0.166 C 
ATOM     13  O   UNL     1      -7.356 -10.069  13.088  0.00  0.00    -0.350 OA
ATOM     14  C   UNL     1      -6.944 -10.084  13.802  0.00  0.00    +0.166 C 
ATOM     15  C   UNL     1      -7.028 -10.060  14.623  0.00  0.00    +0.156 C 
ATOM     16  C   UNL     1      -6.277 -10.108  14.959  0.00  0.00    +0.166 C 
ATOM     17  O   UNL     1      -5.727 -10.162  14.346  0.00  0.00    -0.350 OA
ATOM     18  C   UNL     1      -6.140 -10.147  13.631  0.00  0.00    +0.166 C 
ENDROOT
BRANCH  11  10
ATOM      5  C   UNL     1      -4.273  -9.213  10.792  0.00  0.00    +0.063 A 
ATOM      6  C   UNL     1      -4.806  -8.611  10.607  0.00  0.00    +0.035 A 
ATOM      7  C   UNL     1      -5.518  -8.550  11.020  0.00  0.00    +0.103 A 
ATOM      8  N   UNL     1      -5.697  -9.090  11.617  0.00  0.00    -0.211 NA
ATOM      9  C   UNL     1      -5.163  -9.692  11.802  0.00  0.00    +0.236 A 
ATOM     10  N   UNL     1      -5.342 -10.232  12.399  0.00  0.00    -0.200 NA
ATOM     30  N   UNL     1      -4.452  -9.753  11.390  0.00  0.00    -0.217 NA
BRANCH   5   2
ATOM      1  C   UNL     1      -2.849  -9.335   9.968  0.00  0.00    +0.006 C 
ATOM      2  C   UNL     1      -3.561  -9.274  10.380  0.00  0.00    +0.036 C 
ATOM      3  C   UNL     1      -3.150  -9.301  11.094  0.00  0.00    +0.006 C 
ATOM      4  C   UNL     1      -3.973  -9.247   9.665  0.00  0.00    +0.006 C 
ENDBRANCH   5   2
ENDBRANCH  11  10
BRANCH  15  19
ATOM     19  N   UNL     1      -7.741  -9.998  15.035  0.00  0.00    -0.184 NA
ATOM     20  C   UNL     1      -7.757  -9.643  15.779  0.00  0.00    +0.340 C 
ATOM     21  O   UNL     1      -7.062  -9.349  16.112  0.00  0.00    -0.249 OA
ATOM     22  N   UNL     1      -8.470  -9.581  16.192  0.00  0.00    -0.182 NA
BRANCH  22  23
ATOM     23  C   UNL     1      -8.486  -9.226  16.936  0.00  0.00    +0.143 C 
BRANCH  23  24
ATOM     24  C   UNL     1      -9.208  -9.071  17.304  0.00  0.00    -0.001 A 
ATOM     25  C   UNL     1      -9.592  -8.353  17.176  0.00  0.00    -0.003 A 
ATOM     26  C   UNL     1     -10.313  -8.199  17.544  0.00  0.00    -0.000 A 
ATOM     27  C   UNL     1     -10.651  -8.763  18.041  0.00  0.00    -0.000 A 
ATOM     28  C   UNL     1     -10.268  -9.482  18.171  0.00  0.00    -0.000 A 
ATOM     29  C   UNL     1      -9.545  -9.637  17.802  0.00  0.00    -0.003 A 
ENDBRANCH  23  24
ENDBRANCH  22  23
ENDBRANCH  15  19
TORSDOF 5
ENDMDL
