MODEL 1
REMARK VINA RESULT:      -9.9      0.000      0.000
REMARK  Name = 
REMARK  8 active torsions:
REMARK  status: ('A' for Active; 'I' for Inactive)
REMARK    1  A    between atoms: O_2  and  C_3
REMARK    2  A    between atoms: C_8  and  N_9
REMARK    3  A    between atoms: C_15  and  C_16
REMARK    4  A    between atoms: C_16  and  C_17
REMARK    5  A    between atoms: C_20  and  C_21
REMARK    6  A    between atoms: C_21  and  C_22
REMARK    7  A    between atoms: C_29  and  O_30
REMARK    8  A    between atoms: C_32  and  O_33
REMARK                            x       y       z     vdW  Elec       q    Type
REMARK                         _______ _______ _______ _____ _____    ______ ____
ROOT
ATOM      9  N   UNL     1      -2.235  -1.000  24.411  0.00  0.00    -0.159 NA
ATOM     10  C   UNL     1      -2.522  -0.229  24.454  0.00  0.00    +0.328 C 
ATOM     11  O   UNL     1      -3.334  -0.091  24.483  0.00  0.00    -0.250 OA
ATOM     12  N   UNL     1      -1.995   0.406  24.470  0.00  0.00    -0.263 N 
ATOM     13  C   UNL     1      -1.182   0.269  24.441  0.00  0.00    +0.095 C 
ATOM     14  C   UNL     1      -0.656   0.903  24.457  0.00  0.00    +0.022 C 
ATOM     15  C   UNL     1      -0.941   1.676  24.500  0.00  0.00    +0.015 C 
ATOM     20  C   UNL     1      -1.754   1.813  24.529  0.00  0.00    +0.026 C 
ATOM     36  C   UNL     1      -2.280   1.179  24.513  0.00  0.00    +0.095 C 
ENDROOT
BRANCH   9   8
ATOM      3  C   UNL     1      -2.499  -2.395  24.582  0.00  0.00    +0.154 A 
ATOM      4  C   UNL     1      -3.025  -3.030  24.567  0.00  0.00    +0.038 A 
ATOM      5  C   UNL     1      -3.816  -2.906  24.365  0.00  0.00    +0.003 A 
ATOM      6  C   UNL     1      -4.079  -2.146  24.178  0.00  0.00    +0.002 A 
ATOM      7  C   UNL     1      -3.552  -1.511  24.193  0.00  0.00    +0.020 A 
ATOM      8  C   UNL     1      -2.762  -1.635  24.395  0.00  0.00    +0.109 A 
BRANCH   3   2
ATOM      1  C   UNL     1      -1.349  -3.243  24.618  0.00  0.00    +0.253 C 
ATOM      2  O   UNL     1      -1.709  -2.519  24.785  0.00  0.00    -0.470 OA
ENDBRANCH   3   2
ENDBRANCH   9   8
BRANCH  15  16
ATOM     16  C   UNL     1      -0.415   2.311  24.516  0.00  0.00    +0.114 C 
BRANCH  16  17
ATOM     17  C   UNL     1       0.368   2.191  24.746  0.00  0.00    +0.365 C 
ATOM     18  O   UNL     1       0.941   2.005  24.182  0.00  0.00    -0.246 OA
ATOM     19  O   UNL     1       0.579   2.258  25.541  0.00  0.00    -0.246 OA
ENDBRANCH  16  17
ENDBRANCH  15  16
BRANCH  20  21
ATOM     21  C   UNL     1      -2.041   2.586  24.573  0.00  0.00    +0.047 C 
BRANCH  21  22
ATOM     22  C   UNL     1      -2.727   2.796  24.166  0.00  0.00    +0.054 C 
ATOM     23  N   UNL     1      -2.792   2.640  23.358  0.00  0.00    -0.274 NA
ATOM     24  C   UNL     1      -3.479   2.849  22.951  0.00  0.00    +0.130 C 
ATOM     25  C   UNL     1      -4.101   3.214  23.353  0.00  0.00    +0.053 C 
ATOM     26  C   UNL     1      -4.036   3.370  24.161  0.00  0.00    -0.016 A 
ATOM     27  C   UNL     1      -3.349   3.161  24.568  0.00  0.00    +0.012 A 
ATOM     28  C   UNL     1      -3.284   3.316  25.375  0.00  0.00    +0.041 A 
ATOM     29  C   UNL     1      -3.905   3.681  25.776  0.00  0.00    +0.172 A 
ATOM     32  C   UNL     1      -4.593   3.890  25.369  0.00  0.00    +0.172 A 
ATOM     35  C   UNL     1      -4.657   3.735  24.562  0.00  0.00    +0.036 A 
BRANCH  29  30
ATOM     30  O   UNL     1      -3.841   3.837  26.584  0.00  0.00    -0.468 OA
ATOM     31  C   UNL     1      -3.149   4.167  26.887  0.00  0.00    +0.253 C 
ENDBRANCH  29  30
BRANCH  32  33
ATOM     33  O   UNL     1      -5.214   4.255  25.771  0.00  0.00    -0.468 OA
ATOM     34  C   UNL     1      -5.987   4.180  25.493  0.00  0.00    +0.253 C 
ENDBRANCH  32  33
ENDBRANCH  21  22
ENDBRANCH  20  21
TORSDOF 8
ENDMDL
MODEL 2
REMARK VINA RESULT:      -9.7      1.669      3.174
REMARK  Name = 
REMARK  8 active torsions:
REMARK  status: ('A' for Active; 'I' for Inactive)
REMARK    1  A    between atoms: O_2  and  C_3
REMARK    2  A    between atoms: C_8  and  N_9
REMARK    3  A    between atoms: C_15  and  C_16
REMARK    4  A    between atoms: C_16  and  C_17
REMARK    5  A    between atoms: C_20  and  C_21
REMARK    6  A    between atoms: C_21  and  C_22
REMARK    7  A    between atoms: C_29  and  O_30
REMARK    8  A    between atoms: C_32  and  O_33
REMARK                            x       y       z     vdW  Elec       q    Type
REMARK                         _______ _______ _______ _____ _____    ______ ____
ROOT
ATOM      9  N   UNL     1      -3.441  -1.072  24.833  0.00  0.00    -0.159 NA
ATOM     10  C   UNL     1      -3.242  -0.275  24.774  0.00  0.00    +0.328 C 
ATOM     11  O   UNL     1      -2.454  -0.053  24.673  0.00  0.00    -0.250 OA
ATOM     12  N   UNL     1      -3.831   0.301  24.816  0.00  0.00    -0.263 N 
ATOM     13  C   UNL     1      -4.619   0.080  24.916  0.00  0.00    +0.095 C 
ATOM     14  C   UNL     1      -5.207   0.656  24.958  0.00  0.00    +0.022 C 
ATOM     15  C   UNL     1      -5.008   1.454  24.899  0.00  0.00    +0.015 C 
ATOM     20  C   UNL     1      -4.220   1.675  24.798  0.00  0.00    +0.026 C 
ATOM     36  C   UNL     1      -3.632   1.100  24.757  0.00  0.00    +0.095 C 
ENDROOT
BRANCH   9   8
ATOM      3  C   UNL     1      -3.030  -2.401  24.500  0.00  0.00    +0.154 A 
ATOM      4  C   UNL     1      -2.441  -2.977  24.458  0.00  0.00    +0.038 A 
ATOM      5  C   UNL     1      -1.674  -2.802  24.707  0.00  0.00    +0.003 A 
ATOM      6  C   UNL     1      -1.496  -2.051  24.998  0.00  0.00    +0.002 A 
ATOM      7  C   UNL     1      -2.085  -1.474  25.040  0.00  0.00    +0.020 A 
ATOM      8  C   UNL     1      -2.852  -1.649  24.791  0.00  0.00    +0.109 A 
BRANCH   3   2
ATOM      1  C   UNL     1      -3.958  -3.300  23.890  0.00  0.00    +0.253 C 
ATOM      2  O   UNL     1      -3.797  -2.575  24.251  0.00  0.00    -0.470 OA
ENDBRANCH   3   2
ENDBRANCH   9   8
BRANCH  15  16
ATOM     16  C   UNL     1      -5.597   2.030  24.941  0.00  0.00    +0.114 C 
BRANCH  16  17
ATOM     17  C   UNL     1      -6.313   1.862  25.313  0.00  0.00    +0.365 C 
ATOM     18  O   UNL     1      -6.382   1.940  26.132  0.00  0.00    -0.246 OA
ATOM     19  O   UNL     1      -6.963   1.614  24.867  0.00  0.00    -0.246 OA
ENDBRANCH  16  17
ENDBRANCH  15  16
BRANCH  20  21
ATOM     21  C   UNL     1      -4.021   2.475  24.739  0.00  0.00    +0.047 C 
BRANCH  21  22
ATOM     22  C   UNL     1      -3.397   2.709  24.254  0.00  0.00    +0.054 C 
ATOM     23  N   UNL     1      -3.322   2.392  23.496  0.00  0.00    -0.274 NA
ATOM     24  C   UNL     1      -2.697   2.627  23.010  0.00  0.00    +0.130 C 
ATOM     25  C   UNL     1      -2.148   3.179  23.283  0.00  0.00    +0.053 C 
ATOM     26  C   UNL     1      -2.222   3.496  24.041  0.00  0.00    -0.016 A 
ATOM     27  C   UNL     1      -2.847   3.261  24.527  0.00  0.00    +0.012 A 
ATOM     28  C   UNL     1      -2.922   3.578  25.284  0.00  0.00    +0.041 A 
ATOM     29  C   UNL     1      -2.373   4.129  25.557  0.00  0.00    +0.172 A 
ATOM     32  C   UNL     1      -1.748   4.364  25.071  0.00  0.00    +0.172 A 
ATOM     35  C   UNL     1      -1.673   4.048  24.314  0.00  0.00    +0.036 A 
BRANCH  29  30
ATOM     30  O   UNL     1      -2.447   4.446  26.315  0.00  0.00    -0.468 OA
ATOM     31  C   UNL     1      -3.147   4.345  26.739  0.00  0.00    +0.253 C 
ENDBRANCH  29  30
BRANCH  32  33
ATOM     33  O   UNL     1      -1.199   4.916  25.344  0.00  0.00    -0.468 OA
ATOM     34  C   UNL     1      -0.563   5.137  24.868  0.00  0.00    +0.253 C 
ENDBRANCH  32  33
ENDBRANCH  21  22
ENDBRANCH  20  21
TORSDOF 8
ENDMDL
MODEL 3
REMARK VINA RESULT:      -9.0      1.789      5.775
REMARK  Name = 
REMARK  8 active torsions:
REMARK  status: ('A' for Active; 'I' for Inactive)
REMARK    1  A    between atoms: O_2  and  C_3
REMARK    2  A    between atoms: C_8  and  N_9
REMARK    3  A    between atoms: C_15  and  C_16
REMARK    4  A    between atoms: C_16  and  C_17
REMARK    5  A    between atoms: C_20  and  C_21
REMARK    6  A    between atoms: C_21  and  C_22
REMARK    7  A    between atoms: C_29  and  O_30
REMARK    8  A    between atoms: C_32  and  O_33
REMARK                            x       y       z     vdW  Elec       q    Type
REMARK                         _______ _______ _______ _____ _____    ______ ____
ROOT
ATOM      9  N   UNL     1      -2.386   3.099  24.743  0.00  0.00    -0.159 NA
ATOM     10  C   UNL     1      -2.548   2.291  24.721  0.00  0.00    +0.328 C 
ATOM     11  O   UNL     1      -1.939   1.751  24.589  0.00  0.00    -0.250 OA
ATOM     12  N   UNL     1      -3.321   2.022  24.830  0.00  0.00    -0.263 N 
ATOM     13  C   UNL     1      -3.931   2.561  24.961  0.00  0.00    +0.095 C 
ATOM     14  C   UNL     1      -4.702   2.293  25.070  0.00  0.00    +0.022 C 
ATOM     15  C   UNL     1      -4.865   1.484  25.048  0.00  0.00    +0.015 C 
ATOM     20  C   UNL     1      -4.255   0.945  24.917  0.00  0.00    +0.026 C 
ATOM     36  C   UNL     1      -3.484   1.214  24.808  0.00  0.00    +0.095 C 
ENDROOT
BRANCH   9   8
ATOM      3  C   UNL     1      -1.409   4.136  24.856  0.00  0.00    +0.154 A 
ATOM      4  C   UNL     1      -0.636   4.405  24.747  0.00  0.00    +0.038 A 
ATOM      5  C   UNL     1      -0.068   3.905  24.415  0.00  0.00    +0.003 A 
ATOM      6  C   UNL     1      -0.274   3.138  24.193  0.00  0.00    +0.002 A 
ATOM      7  C   UNL     1      -1.046   2.869  24.302  0.00  0.00    +0.020 A 
ATOM      8  C   UNL     1      -1.614   3.367  24.634  0.00  0.00    +0.109 A 
BRANCH   3   2
ATOM      1  C   UNL     1      -1.815   5.438  25.280  0.00  0.00    +0.253 C 
ATOM      2  O   UNL     1      -1.976   4.634  25.187  0.00  0.00    -0.470 OA
ENDBRANCH   3   2
ENDBRANCH   9   8
BRANCH  15  16
ATOM     16  C   UNL     1      -5.638   1.216  25.158  0.00  0.00    +0.114 C 
BRANCH  16  17
ATOM     17  C   UNL     1      -6.243   1.753  25.310  0.00  0.00    +0.365 C 
ATOM     18  O   UNL     1      -6.370   2.026  26.078  0.00  0.00    -0.246 OA
ATOM     19  O   UNL     1      -6.724   2.020  24.693  0.00  0.00    -0.246 OA
ENDBRANCH  16  17
ENDBRANCH  15  16
BRANCH  20  21
ATOM     21  C   UNL     1      -4.418   0.136  24.895  0.00  0.00    +0.047 C 
BRANCH  21  22
ATOM     22  C   UNL     1      -3.947  -0.391  25.320  0.00  0.00    +0.054 C 
ATOM     23  N   UNL     1      -3.641  -0.170  26.054  0.00  0.00    -0.274 NA
ATOM     24  C   UNL     1      -3.170  -0.698  26.480  0.00  0.00    +0.130 C 
ATOM     25  C   UNL     1      -3.007  -1.446  26.172  0.00  0.00    +0.053 C 
ATOM     26  C   UNL     1      -3.313  -1.667  25.438  0.00  0.00    -0.016 A 
ATOM     27  C   UNL     1      -3.784  -1.139  25.012  0.00  0.00    +0.012 A 
ATOM     28  C   UNL     1      -4.090  -1.359  24.279  0.00  0.00    +0.041 A 
ATOM     29  C   UNL     1      -3.926  -2.106  23.971  0.00  0.00    +0.172 A 
ATOM     32  C   UNL     1      -3.455  -2.634  24.397  0.00  0.00    +0.172 A 
ATOM     35  C   UNL     1      -3.149  -2.414  25.130  0.00  0.00    +0.036 A 
BRANCH  29  30
ATOM     30  O   UNL     1      -4.232  -2.327  23.237  0.00  0.00    -0.468 OA
ATOM     31  C   UNL     1      -5.038  -2.480  23.155  0.00  0.00    +0.253 C 
ENDBRANCH  29  30
BRANCH  32  33
ATOM     33  O   UNL     1      -3.291  -3.382  24.089  0.00  0.00    -0.468 OA
ATOM     34  C   UNL     1      -2.513  -3.652  24.052  0.00  0.00    +0.253 C 
ENDBRANCH  32  33
ENDBRANCH  21  22
ENDBRANCH  20  21
TORSDOF 8
ENDMDL
MODEL 4
REMARK VINA RESULT:      -8.4      1.493      3.516
REMARK  Name = 
REMARK  8 active torsions:
REMARK  status: ('A' for Active; 'I' for Inactive)
REMARK    1  A    between atoms: O_2  and  C_3
REMARK    2  A    between atoms: C_8  and  N_9
REMARK    3  A    between atoms: C_15  and  C_16
REMARK    4  A    between atoms: C_16  and  C_17
REMARK    5  A    between atoms: C_20  and  C_21
REMARK    6  A    between atoms: C_21  and  C_22
REMARK    7  A    between atoms: C_29  and  O_30
REMARK    8  A    between atoms: C_32  and  O_33
REMARK                            x       y       z     vdW  Elec       q    Type
REMARK                         _______ _______ _______ _____ _____    ______ ____
ROOT
ATOM      9  N   UNL     1      -0.573   0.389  24.036  0.00  0.00    -0.159 NA
ATOM     10  C   UNL     1      -1.261   0.825  24.161  0.00  0.00    +0.328 C 
ATOM     11  O   UNL     1      -1.226   1.647  24.206  0.00  0.00    -0.250 OA
ATOM     12  N   UNL     1      -1.985   0.438  24.242  0.00  0.00    -0.263 N 
ATOM     13  C   UNL     1      -2.021  -0.385  24.198  0.00  0.00    +0.095 C 
ATOM     14  C   UNL     1      -2.744  -0.772  24.279  0.00  0.00    +0.022 C 
ATOM     15  C   UNL     1      -3.433  -0.336  24.405  0.00  0.00    +0.015 C 
ATOM     20  C   UNL     1      -3.397   0.486  24.449  0.00  0.00    +0.026 C 
ATOM     36  C   UNL     1      -2.674   0.873  24.368  0.00  0.00    +0.095 C 
ENDROOT
BRANCH   9   8
ATOM      3  C   UNL     1       0.739   0.456  23.471  0.00  0.00    +0.154 A 
ATOM      4  C   UNL     1       1.463   0.843  23.389  0.00  0.00    +0.038 A 
ATOM      5  C   UNL     1       1.600   1.551  23.792  0.00  0.00    +0.003 A 
ATOM      6  C   UNL     1       1.013   1.870  24.275  0.00  0.00    +0.002 A 
ATOM      7  C   UNL     1       0.289   1.483  24.356  0.00  0.00    +0.020 A 
ATOM      8  C   UNL     1       0.151   0.776  23.954  0.00  0.00    +0.109 A 
BRANCH   3   2
ATOM      1  C   UNL     1       1.135  -0.509  22.494  0.00  0.00    +0.253 C 
ATOM      2  O   UNL     1       0.601  -0.251  23.069  0.00  0.00    -0.470 OA
ENDBRANCH   3   2
ENDBRANCH   9   8
BRANCH  15  16
ATOM     16  C   UNL     1      -4.157  -0.723  24.486  0.00  0.00    +0.114 C 
BRANCH  16  17
ATOM     17  C   UNL     1      -4.200  -1.541  24.392  0.00  0.00    +0.365 C 
ATOM     18  O   UNL     1      -4.421  -1.863  23.666  0.00  0.00    -0.246 OA
ATOM     19  O   UNL     1      -4.021  -2.039  25.027  0.00  0.00    -0.246 OA
ENDBRANCH  16  17
ENDBRANCH  15  16
BRANCH  20  21
ATOM     21  C   UNL     1      -4.087   0.923  24.575  0.00  0.00    +0.047 C 
BRANCH  21  22
ATOM     22  C   UNL     1      -4.152   1.688  24.273  0.00  0.00    +0.054 C 
ATOM     23  N   UNL     1      -3.775   1.885  23.566  0.00  0.00    -0.274 NA
ATOM     24  C   UNL     1      -3.841   2.651  23.263  0.00  0.00    +0.130 C 
ATOM     25  C   UNL     1      -4.283   3.217  23.668  0.00  0.00    +0.053 C 
ATOM     26  C   UNL     1      -4.660   3.020  24.375  0.00  0.00    -0.016 A 
ATOM     27  C   UNL     1      -4.595   2.254  24.678  0.00  0.00    +0.012 A 
ATOM     28  C   UNL     1      -4.971   2.057  25.384  0.00  0.00    +0.041 A 
ATOM     29  C   UNL     1      -5.413   2.623  25.788  0.00  0.00    +0.172 A 
ATOM     32  C   UNL     1      -5.479   3.389  25.486  0.00  0.00    +0.172 A 
ATOM     35  C   UNL     1      -5.102   3.586  24.780  0.00  0.00    +0.036 A 
BRANCH  29  30
ATOM     30  O   UNL     1      -5.791   2.426  26.495  0.00  0.00    -0.468 OA
ATOM     31  C   UNL     1      -6.249   1.742  26.542  0.00  0.00    +0.253 C 
ENDBRANCH  29  30
BRANCH  32  33
ATOM     33  O   UNL     1      -5.921   3.955  25.891  0.00  0.00    -0.468 OA
ATOM     34  C   UNL     1      -5.889   4.746  25.661  0.00  0.00    +0.253 C 
ENDBRANCH  32  33
ENDBRANCH  21  22
ENDBRANCH  20  21
TORSDOF 8
ENDMDL
MODEL 5
REMARK VINA RESULT:      -8.2      2.226      4.631
REMARK  Name = 
REMARK  8 active torsions:
REMARK  status: ('A' for Active; 'I' for Inactive)
REMARK    1  A    between atoms: O_2  and  C_3
REMARK    2  A    between atoms: C_8  and  N_9
REMARK    3  A    between atoms: C_15  and  C_16
REMARK    4  A    between atoms: C_16  and  C_17
REMARK    5  A    between atoms: C_20  and  C_21
REMARK    6  A    between atoms: C_21  and  C_22
REMARK    7  A    between atoms: C_29  and  O_30
REMARK    8  A    between atoms: C_32  and  O_33
REMARK                            x       y       z     vdW  Elec       q    Type
REMARK                         _______ _______ _______ _____ _____    ______ ____
ROOT
ATOM      9  N   UNL     1       1.433   0.809  23.262  0.00  0.00    -0.159 NA
ATOM     10  C   UNL     1       0.705   0.513  23.511  0.00  0.00    +0.328 C 
ATOM     11  O   UNL     1       0.401  -0.175  23.173  0.00  0.00    -0.250 OA
ATOM     12  N   UNL     1       0.280   0.906  24.099  0.00  0.00    -0.263 N 
ATOM     13  C   UNL     1       0.583   1.595  24.438  0.00  0.00    +0.095 C 
ATOM     14  C   UNL     1       0.158   1.987  25.024  0.00  0.00    +0.022 C 
ATOM     15  C   UNL     1      -0.571   1.692  25.274  0.00  0.00    +0.015 C 
ATOM     20  C   UNL     1      -0.874   1.004  24.935  0.00  0.00    +0.026 C 
ATOM     36  C   UNL     1      -0.449   0.612  24.348  0.00  0.00    +0.095 C 
ENDROOT
BRANCH   9   8
ATOM      3  C   UNL     1       2.675   0.524  22.614  0.00  0.00    +0.154 A 
ATOM      4  C   UNL     1       3.100   0.131  22.026  0.00  0.00    +0.038 A 
ATOM      5  C   UNL     1       2.710  -0.371  21.499  0.00  0.00    +0.003 A 
ATOM      6  C   UNL     1       1.894  -0.479  21.561  0.00  0.00    +0.002 A 
ATOM      7  C   UNL     1       1.469  -0.086  22.148  0.00  0.00    +0.020 A 
ATOM      8  C   UNL     1       1.859   0.416  22.675  0.00  0.00    +0.109 A 
BRANCH   3   2
ATOM      1  C   UNL     1       3.884   1.118  23.092  0.00  0.00    +0.253 C 
ATOM      2  O   UNL     1       3.064   1.025  23.140  0.00  0.00    -0.470 OA
ENDBRANCH   3   2
ENDBRANCH   9   8
BRANCH  15  16
ATOM     16  C   UNL     1      -0.997   2.086  25.861  0.00  0.00    +0.114 C 
BRANCH  16  17
ATOM     17  C   UNL     1      -0.718   2.800  26.163  0.00  0.00    +0.365 C 
ATOM     18  O   UNL     1      -0.993   3.515  25.854  0.00  0.00    -0.246 OA
ATOM     19  O   UNL     1      -0.164   2.802  26.775  0.00  0.00    -0.246 OA
ENDBRANCH  16  17
ENDBRANCH  15  16
BRANCH  20  21
ATOM     21  C   UNL     1      -1.604   0.709  25.185  0.00  0.00    +0.047 C 
BRANCH  21  22
ATOM     22  C   UNL     1      -1.711  -0.105  25.273  0.00  0.00    +0.054 C 
ATOM     23  N   UNL     1      -1.127  -0.560  25.638  0.00  0.00    -0.274 NA
ATOM     24  C   UNL     1      -1.235  -1.374  25.726  0.00  0.00    +0.130 C 
ATOM     25  C   UNL     1      -1.926  -1.731  25.450  0.00  0.00    +0.053 C 
ATOM     26  C   UNL     1      -2.509  -1.276  25.085  0.00  0.00    -0.016 A 
ATOM     27  C   UNL     1      -2.402  -0.461  24.997  0.00  0.00    +0.012 A 
ATOM     28  C   UNL     1      -2.985  -0.006  24.633  0.00  0.00    +0.041 A 
ATOM     29  C   UNL     1      -3.675  -0.363  24.357  0.00  0.00    +0.172 A 
ATOM     32  C   UNL     1      -3.782  -1.177  24.445  0.00  0.00    +0.172 A 
ATOM     35  C   UNL     1      -3.199  -1.632  24.809  0.00  0.00    +0.036 A 
BRANCH  29  30
ATOM     30  O   UNL     1      -4.258   0.092  23.992  0.00  0.00    -0.468 OA
ATOM     31  C   UNL     1      -4.486   0.813  24.322  0.00  0.00    +0.253 C 
ENDBRANCH  29  30
BRANCH  32  33
ATOM     33  O   UNL     1      -4.473  -1.534  24.169  0.00  0.00    -0.468 OA
ATOM     34  C   UNL     1      -4.453  -2.308  23.887  0.00  0.00    +0.253 C 
ENDBRANCH  32  33
ENDBRANCH  21  22
ENDBRANCH  20  21
TORSDOF 8
ENDMDL
MODEL 6
REMARK VINA RESULT:      -7.8      2.546      4.523
REMARK  Name = 
REMARK  8 active torsions:
REMARK  status: ('A' for Active; 'I' for Inactive)
REMARK    1  A    between atoms: O_2  and  C_3
REMARK    2  A    between atoms: C_8  and  N_9
REMARK    3  A    between atoms: C_15  and  C_16
REMARK    4  A    between atoms: C_16  and  C_17
REMARK    5  A    between atoms: C_20  and  C_21
REMARK    6  A    between atoms: C_21  and  C_22
REMARK    7  A    between atoms: C_29  and  O_30
REMARK    8  A    between atoms: C_32  and  O_33
REMARK                            x       y       z     vdW  Elec       q    Type
REMARK                         _______ _______ _______ _____ _____    ______ ____
ROOT
ATOM      9  N   UNL     1       2.092  -0.088  23.257  0.00  0.00    -0.159 NA
ATOM     10  C   UNL     1       1.510   0.442  23.503  0.00  0.00    +0.328 C 
ATOM     11  O   UNL     1       1.659   1.253  23.493  0.00  0.00    -0.250 OA
ATOM     12  N   UNL     1       0.778   0.161  23.759  0.00  0.00    -0.263 N 
ATOM     13  C   UNL     1       0.627  -0.650  23.770  0.00  0.00    +0.095 C 
ATOM     14  C   UNL     1      -0.104  -0.931  24.026  0.00  0.00    +0.022 C 
ATOM     15  C   UNL     1      -0.686  -0.402  24.272  0.00  0.00    +0.015 C 
ATOM     20  C   UNL     1      -0.536   0.409  24.261  0.00  0.00    +0.026 C 
ATOM     36  C   UNL     1       0.195   0.690  24.005  0.00  0.00    +0.095 C 
ENDROOT
BRANCH   9   8
ATOM      3  C   UNL     1       3.505  -0.257  23.122  0.00  0.00    +0.154 A 
ATOM      4  C   UNL     1       4.237   0.024  22.866  0.00  0.00    +0.038 A 
ATOM      5  C   UNL     1       4.288   0.756  22.488  0.00  0.00    +0.003 A 
ATOM      6  C   UNL     1       3.608   1.206  22.367  0.00  0.00    +0.002 A 
ATOM      7  C   UNL     1       2.876   0.925  22.624  0.00  0.00    +0.020 A 
ATOM      8  C   UNL     1       2.824   0.194  23.001  0.00  0.00    +0.109 A 
BRANCH   3   2
ATOM      1  C   UNL     1       4.140  -1.386  23.725  0.00  0.00    +0.253 C 
ATOM      2  O   UNL     1       3.452  -0.989  23.499  0.00  0.00    -0.470 OA
ENDBRANCH   3   2
ENDBRANCH   9   8
BRANCH  15  16
ATOM     16  C   UNL     1      -1.418  -0.683  24.528  0.00  0.00    +0.114 C 
BRANCH  16  17
ATOM     17  C   UNL     1      -1.545  -1.494  24.603  0.00  0.00    +0.365 C 
ATOM     18  O   UNL     1      -1.315  -1.886  25.292  0.00  0.00    -0.246 OA
ATOM     19  O   UNL     1      -1.902  -1.915  23.989  0.00  0.00    -0.246 OA
ENDBRANCH  16  17
ENDBRANCH  15  16
BRANCH  20  21
ATOM     21  C   UNL     1      -1.119   0.940  24.507  0.00  0.00    +0.047 C 
BRANCH  21  22
ATOM     22  C   UNL     1      -0.936   1.529  25.055  0.00  0.00    +0.054 C 
ATOM     23  N   UNL     1      -0.353   1.396  25.624  0.00  0.00    -0.274 NA
ATOM     24  C   UNL     1      -0.170   1.985  26.173  0.00  0.00    +0.130 C 
ATOM     25  C   UNL     1      -0.571   2.706  26.152  0.00  0.00    +0.053 C 
ATOM     26  C   UNL     1      -1.154   2.839  25.583  0.00  0.00    -0.016 A 
ATOM     27  C   UNL     1      -1.337   2.250  25.034  0.00  0.00    +0.012 A 
ATOM     28  C   UNL     1      -1.920   2.382  24.466  0.00  0.00    +0.041 A 
ATOM     29  C   UNL     1      -2.320   3.103  24.446  0.00  0.00    +0.172 A 
ATOM     32  C   UNL     1      -2.137   3.692  24.995  0.00  0.00    +0.172 A 
ATOM     35  C   UNL     1      -1.554   3.560  25.563  0.00  0.00    +0.036 A 
BRANCH  29  30
ATOM     30  O   UNL     1      -2.903   3.236  23.877  0.00  0.00    -0.468 OA
ATOM     31  C   UNL     1      -3.456   2.649  23.708  0.00  0.00    +0.253 C 
ENDBRANCH  29  30
BRANCH  32  33
ATOM     33  O   UNL     1      -2.537   4.413  24.974  0.00  0.00    -0.468 OA
ATOM     34  C   UNL     1      -2.218   5.074  25.350  0.00  0.00    +0.253 C 
ENDBRANCH  32  33
ENDBRANCH  21  22
ENDBRANCH  20  21
TORSDOF 8
ENDMDL
MODEL 7
REMARK VINA RESULT:      -7.7      1.613      2.532
REMARK  Name = 
REMARK  8 active torsions:
REMARK  status: ('A' for Active; 'I' for Inactive)
REMARK    1  A    between atoms: O_2  and  C_3
REMARK    2  A    between atoms: C_8  and  N_9
REMARK    3  A    between atoms: C_15  and  C_16
REMARK    4  A    between atoms: C_16  and  C_17
REMARK    5  A    between atoms: C_20  and  C_21
REMARK    6  A    between atoms: C_21  and  C_22
REMARK    7  A    between atoms: C_29  and  O_30
REMARK    8  A    between atoms: C_32  and  O_33
REMARK                            x       y       z     vdW  Elec       q    Type
REMARK                         _______ _______ _______ _____ _____    ______ ____
ROOT
ATOM      9  N   UNL     1      -1.677  -1.444  24.578  0.00  0.00    -0.159 NA
ATOM     10  C   UNL     1      -1.593  -0.625  24.625  0.00  0.00    +0.328 C 
ATOM     11  O   UNL     1      -2.177  -0.170  24.986  0.00  0.00    -0.250 OA
ATOM     12  N   UNL     1      -0.922  -0.262  24.311  0.00  0.00    -0.263 N 
ATOM     13  C   UNL     1      -0.336  -0.717  23.951  0.00  0.00    +0.095 C 
ATOM     14  C   UNL     1       0.334  -0.354  23.637  0.00  0.00    +0.022 C 
ATOM     15  C   UNL     1       0.420   0.465  23.683  0.00  0.00    +0.015 C 
ATOM     20  C   UNL     1      -0.166   0.920  24.044  0.00  0.00    +0.026 C 
ATOM     36  C   UNL     1      -0.836   0.557  24.358  0.00  0.00    +0.095 C 
ENDROOT
BRANCH   9   8
ATOM      3  C   UNL     1      -2.618  -2.521  24.576  0.00  0.00    +0.154 A 
ATOM      4  C   UNL     1      -3.288  -2.884  24.890  0.00  0.00    +0.038 A 
ATOM      5  C   UNL     1      -3.690  -2.535  25.521  0.00  0.00    +0.003 A 
ATOM      6  C   UNL     1      -3.421  -1.823  25.837  0.00  0.00    +0.002 A 
ATOM      7  C   UNL     1      -2.750  -1.459  25.523  0.00  0.00    +0.020 A 
ATOM      8  C   UNL     1      -2.348  -1.808  24.892  0.00  0.00    +0.109 A 
BRANCH   3   2
ATOM      1  C   UNL     1      -2.509  -3.561  23.601  0.00  0.00    +0.253 C 
ATOM      2  O   UNL     1      -2.216  -2.869  23.945  0.00  0.00    -0.470 OA
ENDBRANCH   3   2
ENDBRANCH   9   8
BRANCH  15  16
ATOM     16  C   UNL     1       1.090   0.829  23.369  0.00  0.00    +0.114 C 
BRANCH  16  17
ATOM     17  C   UNL     1       1.624   0.391  22.920  0.00  0.00    +0.365 C 
ATOM     18  O   UNL     1       1.398   0.092  22.185  0.00  0.00    -0.246 OA
ATOM     19  O   UNL     1       2.387   0.250  23.206  0.00  0.00    -0.246 OA
ENDBRANCH  16  17
ENDBRANCH  15  16
BRANCH  20  21
ATOM     21  C   UNL     1      -0.081   1.740  24.091  0.00  0.00    +0.047 C 
BRANCH  21  22
ATOM     22  C   UNL     1      -0.171   2.124  24.816  0.00  0.00    +0.054 C 
ATOM     23  N   UNL     1       0.339   1.949  25.440  0.00  0.00    -0.274 NA
ATOM     24  C   UNL     1       0.249   2.333  26.166  0.00  0.00    +0.130 C 
ATOM     25  C   UNL     1      -0.351   2.891  26.265  0.00  0.00    +0.053 C 
ATOM     26  C   UNL     1      -0.861   3.066  25.641  0.00  0.00    -0.016 A 
ATOM     27  C   UNL     1      -0.771   2.682  24.915  0.00  0.00    +0.012 A 
ATOM     28  C   UNL     1      -1.280   2.856  24.291  0.00  0.00    +0.041 A 
ATOM     29  C   UNL     1      -1.879   3.413  24.390  0.00  0.00    +0.172 A 
ATOM     32  C   UNL     1      -1.969   3.797  25.116  0.00  0.00    +0.172 A 
ATOM     35  C   UNL     1      -1.460   3.623  25.740  0.00  0.00    +0.036 A 
BRANCH  29  30
ATOM     30  O   UNL     1      -2.389   3.588  23.766  0.00  0.00    -0.468 OA
ATOM     31  C   UNL     1      -2.903   3.011  23.479  0.00  0.00    +0.253 C 
ENDBRANCH  29  30
BRANCH  32  33
ATOM     33  O   UNL     1      -2.569   4.355  25.215  0.00  0.00    -0.468 OA
ATOM     34  C   UNL     1      -2.746   4.642  25.968  0.00  0.00    +0.253 C 
ENDBRANCH  32  33
ENDBRANCH  21  22
ENDBRANCH  20  21
TORSDOF 8
ENDMDL
MODEL 8
REMARK VINA RESULT:      -7.6      1.814      5.430
REMARK  Name = 
REMARK  8 active torsions:
REMARK  status: ('A' for Active; 'I' for Inactive)
REMARK    1  A    between atoms: O_2  and  C_3
REMARK    2  A    between atoms: C_8  and  N_9
REMARK    3  A    between atoms: C_15  and  C_16
REMARK    4  A    between atoms: C_16  and  C_17
REMARK    5  A    between atoms: C_20  and  C_21
REMARK    6  A    between atoms: C_21  and  C_22
REMARK    7  A    between atoms: C_29  and  O_30
REMARK    8  A    between atoms: C_32  and  O_33
REMARK                            x       y       z     vdW  Elec       q    Type
REMARK                         _______ _______ _______ _____ _____    ______ ____
ROOT
ATOM      9  N   UNL     1      -3.908   1.626  25.044  0.00  0.00    -0.159 NA
ATOM     10  C   UNL     1      -3.169   1.577  24.680  0.00  0.00    +0.328 C 
ATOM     11  O   UNL     1      -2.829   2.250  24.347  0.00  0.00    -0.250 OA
ATOM     12  N   UNL     1      -2.771   0.856  24.650  0.00  0.00    -0.263 N 
ATOM     13  C   UNL     1      -3.111   0.182  24.982  0.00  0.00    +0.095 C 
ATOM     14  C   UNL     1      -2.713  -0.539  24.952  0.00  0.00    +0.022 C 
ATOM     15  C   UNL     1      -1.974  -0.588  24.588  0.00  0.00    +0.015 C 
ATOM     20  C   UNL     1      -1.634   0.086  24.255  0.00  0.00    +0.026 C 
ATOM     36  C   UNL     1      -2.032   0.807  24.286  0.00  0.00    +0.095 C 
ENDROOT
BRANCH   9   8
ATOM      3  C   UNL     1      -5.073   2.383  25.377  0.00  0.00    +0.154 A 
ATOM      4  C   UNL     1      -5.471   3.105  25.408  0.00  0.00    +0.038 A 
ATOM      5  C   UNL     1      -5.103   3.792  25.135  0.00  0.00    +0.003 A 
ATOM      6  C   UNL     1      -4.337   3.756  24.832  0.00  0.00    +0.002 A 
ATOM      7  C   UNL     1      -3.938   3.034  24.802  0.00  0.00    +0.020 A 
ATOM      8  C   UNL     1      -4.306   2.347  25.074  0.00  0.00    +0.109 A 
BRANCH   3   2
ATOM      1  C   UNL     1      -6.216   1.729  25.931  0.00  0.00    +0.253 C 
ATOM      2  O   UNL     1      -5.441   1.697  25.650  0.00  0.00    -0.470 OA
ENDBRANCH   3   2
ENDBRANCH   9   8
BRANCH  15  16
ATOM     16  C   UNL     1      -1.576  -1.310  24.558  0.00  0.00    +0.114 C 
BRANCH  16  17
ATOM     17  C   UNL     1      -1.973  -2.008  24.745  0.00  0.00    +0.365 C 
ATOM     18  O   UNL     1      -2.011  -2.265  25.528  0.00  0.00    -0.246 OA
ATOM     19  O   UNL     1      -2.333  -2.450  24.147  0.00  0.00    -0.246 OA
ENDBRANCH  16  17
ENDBRANCH  15  16
BRANCH  20  21
ATOM     21  C   UNL     1      -0.895   0.037  23.891  0.00  0.00    +0.047 C 
BRANCH  21  22
ATOM     22  C   UNL     1      -0.305   0.582  24.081  0.00  0.00    +0.054 C 
ATOM     23  N   UNL     1      -0.442   1.152  24.662  0.00  0.00    -0.274 NA
ATOM     24  C   UNL     1       0.149   1.697  24.852  0.00  0.00    +0.130 C 
ATOM     25  C   UNL     1       0.875   1.671  24.461  0.00  0.00    +0.053 C 
ATOM     26  C   UNL     1       1.012   1.101  23.880  0.00  0.00    -0.016 A 
ATOM     27  C   UNL     1       0.421   0.556  23.690  0.00  0.00    +0.012 A 
ATOM     28  C   UNL     1       0.558  -0.014  23.110  0.00  0.00    +0.041 A 
ATOM     29  C   UNL     1       1.283  -0.039  22.719  0.00  0.00    +0.172 A 
ATOM     32  C   UNL     1       1.874   0.506  22.910  0.00  0.00    +0.172 A 
ATOM     35  C   UNL     1       1.737   1.075  23.490  0.00  0.00    +0.036 A 
BRANCH  29  30
ATOM     30  O   UNL     1       1.420  -0.609  22.139  0.00  0.00    -0.468 OA
ATOM     31  C   UNL     1       0.951  -0.629  21.461  0.00  0.00    +0.253 C 
ENDBRANCH  29  30
BRANCH  32  33
ATOM     33  O   UNL     1       2.600   0.480  22.518  0.00  0.00    -0.468 OA
ATOM     34  C   UNL     1       3.250   0.881  22.827  0.00  0.00    +0.253 C 
ENDBRANCH  32  33
ENDBRANCH  21  22
ENDBRANCH  20  21
TORSDOF 8
ENDMDL
MODEL 9
REMARK VINA RESULT:      -7.6      1.765      2.266
REMARK  Name = 
REMARK  8 active torsions:
REMARK  status: ('A' for Active; 'I' for Inactive)
REMARK    1  A    between atoms: O_2  and  C_3
REMARK    2  A    between atoms: C_8  and  N_9
REMARK    3  A    between atoms: C_15  and  C_16
REMARK    4  A    between atoms: C_16  and  C_17
REMARK    5  A    between atoms: C_20  and  C_21
REMARK    6  A    between atoms: C_21  and  C_22
REMARK    7  A    between atoms: C_29  and  O_30
REMARK    8  A    between atoms: C_32  and  O_33
REMARK                            x       y       z     vdW  Elec       q    Type
REMARK                         _______ _______ _______ _____ _____    ______ ____
ROOT
ATOM      9  N   UNL     1      -0.421   0.781  24.616  0.00  0.00    -0.159 NA
ATOM     10  C   UNL     1      -1.149   1.165  24.659  0.00  0.00    +0.328 C 
ATOM     11  O   UNL     1      -1.842   0.726  24.741  0.00  0.00    -0.250 OA
ATOM     12  N   UNL     1      -1.185   1.988  24.620  0.00  0.00    -0.263 N 
ATOM     13  C   UNL     1      -0.492   2.428  24.538  0.00  0.00    +0.095 C 
ATOM     14  C   UNL     1      -0.527   3.250  24.498  0.00  0.00    +0.022 C 
ATOM     15  C   UNL     1      -1.255   3.635  24.541  0.00  0.00    +0.015 C 
ATOM     20  C   UNL     1      -1.948   3.195  24.624  0.00  0.00    +0.026 C 
ATOM     36  C   UNL     1      -1.913   2.373  24.663  0.00  0.00    +0.095 C 
ENDROOT
BRANCH   9   8
ATOM      3  C   UNL     1       0.041  -0.465  24.088  0.00  0.00    +0.154 A 
ATOM      4  C   UNL     1       0.077  -1.288  24.127  0.00  0.00    +0.038 A 
ATOM      5  C   UNL     1      -0.315  -1.690  24.733  0.00  0.00    +0.003 A 
ATOM      6  C   UNL     1      -0.741  -1.268  25.299  0.00  0.00    +0.002 A 
ATOM      7  C   UNL     1      -0.777  -0.444  25.260  0.00  0.00    +0.020 A 
ATOM      8  C   UNL     1      -0.386  -0.042  24.655  0.00  0.00    +0.109 A 
BRANCH   3   2
ATOM      1  C   UNL     1       0.963  -0.466  22.997  0.00  0.00    +0.253 C 
ATOM      2  O   UNL     1       0.432  -0.063  23.483  0.00  0.00    -0.470 OA
ENDBRANCH   3   2
ENDBRANCH   9   8
BRANCH  15  16
ATOM     16  C   UNL     1      -1.291   4.458  24.502  0.00  0.00    +0.114 C 
BRANCH  16  17
ATOM     17  C   UNL     1      -0.597   4.902  24.534  0.00  0.00    +0.365 C 
ATOM     18  O   UNL     1      -0.152   5.024  23.850  0.00  0.00    -0.246 OA
ATOM     19  O   UNL     1      -0.346   5.225  25.252  0.00  0.00    -0.246 OA
ENDBRANCH  16  17
ENDBRANCH  15  16
BRANCH  20  21
ATOM     21  C   UNL     1      -2.678   3.579  24.667  0.00  0.00    +0.047 C 
BRANCH  21  22
ATOM     22  C   UNL     1      -3.351   3.223  24.350  0.00  0.00    +0.054 C 
ATOM     23  N   UNL     1      -3.349   2.957  23.569  0.00  0.00    -0.274 NA
ATOM     24  C   UNL     1      -4.023   2.600  23.253  0.00  0.00    +0.130 C 
ATOM     25  C   UNL     1      -4.699   2.511  23.718  0.00  0.00    +0.053 C 
ATOM     26  C   UNL     1      -4.701   2.777  24.499  0.00  0.00    -0.016 A 
ATOM     27  C   UNL     1      -4.027   3.134  24.816  0.00  0.00    +0.012 A 
ATOM     28  C   UNL     1      -4.029   3.400  25.596  0.00  0.00    +0.041 A 
ATOM     29  C   UNL     1      -4.704   3.311  26.060  0.00  0.00    +0.172 A 
ATOM     32  C   UNL     1      -5.379   2.954  25.744  0.00  0.00    +0.172 A 
ATOM     35  C   UNL     1      -5.377   2.688  24.964  0.00  0.00    +0.036 A 
BRANCH  29  30
ATOM     30  O   UNL     1      -4.707   3.577  26.841  0.00  0.00    -0.468 OA
ATOM     31  C   UNL     1      -4.115   4.085  27.107  0.00  0.00    +0.253 C 
ENDBRANCH  29  30
BRANCH  32  33
ATOM     33  O   UNL     1      -6.055   2.865  26.209  0.00  0.00    -0.468 OA
ATOM     34  C   UNL     1      -6.470   2.153  26.201  0.00  0.00    +0.253 C 
ENDBRANCH  32  33
ENDBRANCH  21  22
ENDBRANCH  20  21
TORSDOF 8
ENDMDL
MODEL 10
REMARK VINA RESULT:      -7.2      1.829      5.248
REMARK  Name = 
REMARK  8 active torsions:
REMARK  status: ('A' for Active; 'I' for Inactive)
REMARK    1  A    between atoms: O_2  and  C_3
REMARK    2  A    between atoms: C_8  and  N_9
REMARK    3  A    between atoms: C_15  and  C_16
REMARK    4  A    between atoms: C_16  and  C_17
REMARK    5  A    between atoms: C_20  and  C_21
REMARK    6  A    between atoms: C_21  and  C_22
REMARK    7  A    between atoms: C_29  and  O_30
REMARK    8  A    between atoms: C_32  and  O_33
REMARK                            x       y       z     vdW  Elec       q    Type
REMARK                         _______ _______ _______ _____ _____    ______ ____
ROOT
ATOM      9  N   UNL     1      -1.099   3.167  24.849  0.00  0.00    -0.159 NA
ATOM     10  C   UNL     1      -1.369   2.389  24.835  0.00  0.00    +0.328 C 
ATOM     11  O   UNL     1      -2.109   2.203  25.147  0.00  0.00    -0.250 OA
ATOM     12  N   UNL     1      -0.899   1.795  24.509  0.00  0.00    -0.263 N 
ATOM     13  C   UNL     1      -0.158   1.980  24.197  0.00  0.00    +0.095 C 
ATOM     14  C   UNL     1       0.312   1.387  23.871  0.00  0.00    +0.022 C 
ATOM     15  C   UNL     1       0.043   0.607  23.856  0.00  0.00    +0.015 C 
ATOM     20  C   UNL     1      -0.698   0.422  24.169  0.00  0.00    +0.026 C 
ATOM     36  C   UNL     1      -1.168   1.015  24.495  0.00  0.00    +0.095 C 
ENDROOT
BRANCH   9   8
ATOM      3  C   UNL     1      -1.369   4.555  25.066  0.00  0.00    +0.154 A 
ATOM      4  C   UNL     1      -1.839   5.148  25.392  0.00  0.00    +0.038 A 
ATOM      5  C   UNL     1      -2.512   4.950  25.829  0.00  0.00    +0.003 A 
ATOM      6  C   UNL     1      -2.712   4.157  25.938  0.00  0.00    +0.002 A 
ATOM      7  C   UNL     1      -2.241   3.563  25.611  0.00  0.00    +0.020 A 
ATOM      8  C   UNL     1      -1.570   3.761  25.176  0.00  0.00    +0.109 A 
BRANCH   3   2
ATOM      1  C   UNL     1      -0.486   5.545  24.535  0.00  0.00    +0.253 C 
ATOM      2  O   UNL     1      -0.697   4.753  24.630  0.00  0.00    -0.470 OA
ENDBRANCH   3   2
ENDBRANCH   9   8
BRANCH  15  16
ATOM     16  C   UNL     1       0.513   0.013  23.530  0.00  0.00    +0.114 C 
BRANCH  16  17
ATOM     17  C   UNL     1       1.079   0.202  22.960  0.00  0.00    +0.365 C 
ATOM     18  O   UNL     1       0.916   0.081  22.161  0.00  0.00    -0.246 OA
ATOM     19  O   UNL     1       1.809   0.512  23.190  0.00  0.00    -0.246 OA
ENDBRANCH  16  17
ENDBRANCH  15  16
BRANCH  20  21
ATOM     21  C   UNL     1      -0.968  -0.358  24.155  0.00  0.00    +0.047 C 
BRANCH  21  22
ATOM     22  C   UNL     1      -1.193  -0.729  24.856  0.00  0.00    +0.054 C 
ATOM     23  N   UNL     1      -0.727  -0.650  25.532  0.00  0.00    -0.274 NA
ATOM     24  C   UNL     1      -0.953  -1.022  26.235  0.00  0.00    +0.130 C 
ATOM     25  C   UNL     1      -1.644  -1.472  26.259  0.00  0.00    +0.053 C 
ATOM     26  C   UNL     1      -2.110  -1.552  25.582  0.00  0.00    -0.016 A 
ATOM     27  C   UNL     1      -1.884  -1.180  24.880  0.00  0.00    +0.012 A 
ATOM     28  C   UNL     1      -2.350  -1.259  24.204  0.00  0.00    +0.041 A 
ATOM     29  C   UNL     1      -3.040  -1.709  24.229  0.00  0.00    +0.172 A 
ATOM     32  C   UNL     1      -3.265  -2.081  24.931  0.00  0.00    +0.172 A 
ATOM     35  C   UNL     1      -2.800  -2.002  25.607  0.00  0.00    +0.036 A 
BRANCH  29  30
ATOM     30  O   UNL     1      -3.506  -1.789  23.552  0.00  0.00    -0.468 OA
ATOM     31  C   UNL     1      -3.949  -1.150  23.279  0.00  0.00    +0.253 C 
ENDBRANCH  29  30
BRANCH  32  33
ATOM     33  O   UNL     1      -3.956  -2.532  24.955  0.00  0.00    -0.468 OA
ATOM     34  C   UNL     1      -3.914  -3.346  25.074  0.00  0.00    +0.253 C 
ENDBRANCH  32  33
ENDBRANCH  21  22
ENDBRANCH  20  21
TORSDOF 8
ENDMDL
