MODEL 1
REMARK VINA RESULT:      -9.2      0.000      0.000
REMARK  Name = 
REMARK  7 active torsions:
REMARK  status: ('A' for Active; 'I' for Inactive)
REMARK    1  A    between atoms: C_2  and  C_3
REMARK    2  A    between atoms: C_4  and  C_17
REMARK    3  A    between atoms: N_9  and  C_10
REMARK    4  A    between atoms: C_10  and  C_11
REMARK    5  A    between atoms: C_20  and  N_21
REMARK    6  A    between atoms: C_22  and  C_24
REMARK    7  A    between atoms: C_27  and  C_30
REMARK                            x       y       z     vdW  Elec       q    Type
REMARK                         _______ _______ _______ _____ _____    ______ ____
ROOT
ATOM     17  C   UNL     1      -1.840   0.162  24.645  0.00  0.00    +0.006 A 
ATOM     18  C   UNL     1      -1.340   0.758  24.920  0.00  0.00    -0.001 A 
ATOM     19  C   UNL     1      -0.541   0.753  24.717  0.00  0.00    +0.016 A 
ATOM     20  C   UNL     1      -0.241   0.150  24.239  0.00  0.00    +0.074 A 
ATOM     34  C   UNL     1      -0.741  -0.446  23.964  0.00  0.00    +0.016 A 
ATOM     35  C   UNL     1      -1.541  -0.439  24.168  0.00  0.00    -0.001 A 
ENDROOT
BRANCH  17   4
ATOM      3  C   UNL     1      -3.148   0.722  24.509  0.00  0.00    +0.140 C 
ATOM      4  C   UNL     1      -2.640   0.169  24.849  0.00  0.00    +0.159 C 
ATOM      5  O   UNL     1      -2.931  -0.379  25.394  0.00  0.00    -0.341 OA
ATOM      6  C   UNL     1      -3.730  -0.373  25.598  0.00  0.00    +0.227 C 
ATOM      7  C   UNL     1      -4.238   0.180  25.258  0.00  0.00    +0.256 C 
ATOM      8  O   UNL     1      -5.038   0.187  25.461  0.00  0.00    -0.272 OA
ATOM      9  N   UNL     1      -3.947   0.729  24.713  0.00  0.00    -0.270 N 
BRANCH   3   2
ATOM      1  O   UNL     1      -3.076   1.219  23.171  0.00  0.00    -0.218 OA
ATOM      2  C   UNL     1      -2.857   1.270  23.965  0.00  0.00    +0.205 C 
ENDBRANCH   3   2
BRANCH   9  10
ATOM     10  C   UNL     1      -4.456   1.282  24.373  0.00  0.00    +0.120 C 
BRANCH  10  11
ATOM     11  C   UNL     1      -4.766   1.895  24.830  0.00  0.00    +0.001 A 
ATOM     12  C   UNL     1      -5.558   1.874  25.065  0.00  0.00    +0.018 A 
ATOM     13  C   UNL     1      -5.868   2.486  25.522  0.00  0.00    +0.099 A 
ATOM     14  N   UNL     1      -5.389   3.118  25.745  0.00  0.00    -0.242 NA
ATOM     15  C   UNL     1      -4.597   3.139  25.511  0.00  0.00    +0.099 A 
ATOM     16  C   UNL     1      -4.286   2.527  25.053  0.00  0.00    +0.018 A 
ENDBRANCH  10  11
ENDBRANCH   9  10
ENDBRANCH  17   4
BRANCH  20  21
ATOM     21  N   UNL     1       0.558   0.144  24.036  0.00  0.00    -0.175 NA
ATOM     22  C   UNL     1       0.800   0.429  23.301  0.00  0.00    +0.269 C 
ATOM     23  O   UNL     1       0.242   0.719  22.768  0.00  0.00    -0.268 OA
BRANCH  22  24
ATOM     24  C   UNL     1       1.600   0.423  23.099  0.00  0.00    +0.055 A 
ATOM     25  C   UNL     1       2.096   1.028  23.360  0.00  0.00    +0.005 A 
ATOM     26  C   UNL     1       2.895   1.022  23.158  0.00  0.00    +0.004 A 
ATOM     27  C   UNL     1       3.200   0.411  22.694  0.00  0.00    +0.071 A 
ATOM     28  C   UNL     1       2.703  -0.194  22.433  0.00  0.00    +0.004 A 
ATOM     29  C   UNL     1       1.903  -0.188  22.635  0.00  0.00    +0.005 A 
BRANCH  27  30
ATOM     30  C   UNL     1       3.999   0.405  22.491  0.00  0.00    +0.419 C 
ATOM     31  F   UNL     1       4.799   0.399  22.289  0.00  0.00    -0.166 F 
ATOM     32  F   UNL     1       3.844   0.915  21.862  0.00  0.00    -0.166 F 
ATOM     33  F   UNL     1       4.155  -0.105  23.121  0.00  0.00    -0.166 F 
ENDBRANCH  27  30
ENDBRANCH  22  24
ENDBRANCH  20  21
TORSDOF 7
ENDMDL
MODEL 2
REMARK VINA RESULT:      -8.6      1.603      2.459
REMARK  Name = 
REMARK  7 active torsions:
REMARK  status: ('A' for Active; 'I' for Inactive)
REMARK    1  A    between atoms: C_2  and  C_3
REMARK    2  A    between atoms: C_4  and  C_17
REMARK    3  A    between atoms: N_9  and  C_10
REMARK    4  A    between atoms: C_10  and  C_11
REMARK    5  A    between atoms: C_20  and  N_21
REMARK    6  A    between atoms: C_22  and  C_24
REMARK    7  A    between atoms: C_27  and  C_30
REMARK                            x       y       z     vdW  Elec       q    Type
REMARK                         _______ _______ _______ _____ _____    ______ ____
ROOT
ATOM     17  C   UNL     1      -0.641   0.897  23.760  0.00  0.00    +0.006 A 
ATOM     18  C   UNL     1      -0.178   1.533  24.007  0.00  0.00    -0.001 A 
ATOM     19  C   UNL     1       0.645   1.471  24.004  0.00  0.00    +0.016 A 
ATOM     20  C   UNL     1       1.005   0.771  23.753  0.00  0.00    +0.074 A 
ATOM     34  C   UNL     1       0.541   0.135  23.506  0.00  0.00    +0.016 A 
ATOM     35  C   UNL     1      -0.281   0.198  23.509  0.00  0.00    -0.001 A 
ENDROOT
BRANCH  17   4
ATOM      3  C   UNL     1      -1.906   0.560  24.333  0.00  0.00    +0.140 C 
ATOM      4  C   UNL     1      -1.464   0.960  23.764  0.00  0.00    +0.159 C 
ATOM      5  O   UNL     1      -1.844   1.425  23.196  0.00  0.00    -0.341 OA
ATOM      6  C   UNL     1      -2.666   1.488  23.200  0.00  0.00    +0.227 C 
ATOM      7  C   UNL     1      -3.108   1.088  23.769  0.00  0.00    +0.256 C 
ATOM      8  O   UNL     1      -3.931   1.152  23.773  0.00  0.00    -0.272 OA
ATOM      9  N   UNL     1      -2.728   0.624  24.336  0.00  0.00    -0.270 N 
BRANCH   3   2
ATOM      1  O   UNL     1      -1.444   0.373  25.672  0.00  0.00    -0.218 OA
ATOM      2  C   UNL     1      -1.526   0.096  24.899  0.00  0.00    +0.205 C 
ENDBRANCH   3   2
BRANCH   9  10
ATOM     10  C   UNL     1      -3.171   0.224  24.906  0.00  0.00    +0.120 C 
BRANCH  10  11
ATOM     11  C   UNL     1      -3.473  -0.527  24.743  0.00  0.00    +0.001 A 
ATOM     12  C   UNL     1      -3.248  -1.171  25.208  0.00  0.00    +0.018 A 
ATOM     13  C   UNL     1      -3.550  -1.921  25.046  0.00  0.00    +0.099 A 
ATOM     14  N   UNL     1      -4.075  -2.028  24.420  0.00  0.00    -0.242 NA
ATOM     15  C   UNL     1      -4.300  -1.384  23.955  0.00  0.00    +0.099 A 
ATOM     16  C   UNL     1      -3.998  -0.634  24.117  0.00  0.00    +0.018 A 
ENDBRANCH  10  11
ENDBRANCH   9  10
ENDBRANCH  17   4
BRANCH  20  21
ATOM     21  N   UNL     1       1.827   0.709  23.750  0.00  0.00    -0.175 NA
ATOM     22  C   UNL     1       2.216   0.412  23.087  0.00  0.00    +0.269 C 
ATOM     23  O   UNL     1       1.783   0.177  22.425  0.00  0.00    -0.268 OA
BRANCH  22  24
ATOM     24  C   UNL     1       3.039   0.350  23.084  0.00  0.00    +0.055 A 
ATOM     25  C   UNL     1       3.499   0.974  22.800  0.00  0.00    +0.005 A 
ATOM     26  C   UNL     1       4.321   0.912  22.797  0.00  0.00    +0.004 A 
ATOM     27  C   UNL     1       4.685   0.226  23.079  0.00  0.00    +0.071 A 
ATOM     28  C   UNL     1       4.225  -0.397  23.363  0.00  0.00    +0.004 A 
ATOM     29  C   UNL     1       3.401  -0.335  23.366  0.00  0.00    +0.005 A 
BRANCH  27  30
ATOM     30  C   UNL     1       5.507   0.164  23.076  0.00  0.00    +0.419 C 
ATOM     31  F   UNL     1       6.330   0.102  23.074  0.00  0.00    -0.166 F 
ATOM     32  F   UNL     1       5.500   0.102  22.254  0.00  0.00    -0.166 F 
ATOM     33  F   UNL     1       5.514   0.227  23.899  0.00  0.00    -0.166 F 
ENDBRANCH  27  30
ENDBRANCH  22  24
ENDBRANCH  20  21
TORSDOF 7
ENDMDL
MODEL 3
REMARK VINA RESULT:      -8.4      1.524      1.997
REMARK  Name = 
REMARK  7 active torsions:
REMARK  status: ('A' for Active; 'I' for Inactive)
REMARK    1  A    between atoms: C_2  and  C_3
REMARK    2  A    between atoms: C_4  and  C_17
REMARK    3  A    between atoms: N_9  and  C_10
REMARK    4  A    between atoms: C_10  and  C_11
REMARK    5  A    between atoms: C_20  and  N_21
REMARK    6  A    between atoms: C_22  and  C_24
REMARK    7  A    between atoms: C_27  and  C_30
REMARK                            x       y       z     vdW  Elec       q    Type
REMARK                         _______ _______ _______ _____ _____    ______ ____
ROOT
ATOM     17  C   UNL     1      -1.306   2.690  24.877  0.00  0.00    +0.006 A 
ATOM     18  C   UNL     1      -0.852   3.133  24.350  0.00  0.00    -0.001 A 
ATOM     19  C   UNL     1      -0.116   2.853  24.102  0.00  0.00    +0.016 A 
ATOM     20  C   UNL     1       0.165   2.129  24.382  0.00  0.00    +0.074 A 
ATOM     34  C   UNL     1      -0.290   1.686  24.909  0.00  0.00    +0.016 A 
ATOM     35  C   UNL     1      -1.025   1.967  25.156  0.00  0.00    -0.001 A 
ENDROOT
BRANCH  17   4
ATOM      3  C   UNL     1      -2.722   2.774  24.704  0.00  0.00    +0.140 C 
ATOM      4  C   UNL     1      -2.041   2.971  25.125  0.00  0.00    +0.159 C 
ATOM      5  O   UNL     1      -2.095   3.451  25.795  0.00  0.00    -0.341 OA
ATOM      6  C   UNL     1      -2.829   3.732  26.043  0.00  0.00    +0.227 C 
ATOM      7  C   UNL     1      -3.510   3.535  25.622  0.00  0.00    +0.256 C 
ATOM      8  O   UNL     1      -4.245   3.816  25.869  0.00  0.00    -0.272 OA
ATOM      9  N   UNL     1      -3.456   3.055  24.951  0.00  0.00    -0.270 N 
BRANCH   3   2
ATOM      1  O   UNL     1      -2.831   2.608  23.288  0.00  0.00    -0.218 OA
ATOM      2  C   UNL     1      -2.668   2.295  24.034  0.00  0.00    +0.205 C 
ENDBRANCH   3   2
BRANCH   9  10
ATOM     10  C   UNL     1      -4.138   2.858  24.530  0.00  0.00    +0.120 C 
BRANCH  10  11
ATOM     11  C   UNL     1      -4.689   2.338  24.855  0.00  0.00    +0.001 A 
ATOM     12  C   UNL     1      -5.420   2.621  25.115  0.00  0.00    +0.018 A 
ATOM     13  C   UNL     1      -5.972   2.101  25.440  0.00  0.00    +0.099 A 
ATOM     14  N   UNL     1      -5.793   1.299  25.506  0.00  0.00    -0.242 NA
ATOM     15  C   UNL     1      -5.062   1.016  25.247  0.00  0.00    +0.099 A 
ATOM     16  C   UNL     1      -4.511   1.536  24.921  0.00  0.00    +0.018 A 
ENDBRANCH  10  11
ENDBRANCH   9  10
ENDBRANCH  17   4
BRANCH  20  21
ATOM     21  N   UNL     1       0.900   1.849  24.134  0.00  0.00    -0.175 NA
ATOM     22  C   UNL     1       0.944   1.257  23.562  0.00  0.00    +0.269 C 
ATOM     23  O   UNL     1       0.254   0.944  23.237  0.00  0.00    -0.268 OA
BRANCH  22  24
ATOM     24  C   UNL     1       1.680   0.977  23.314  0.00  0.00    +0.055 A 
ATOM     25  C   UNL     1       2.347   1.459  23.376  0.00  0.00    +0.005 A 
ATOM     26  C   UNL     1       3.082   1.179  23.129  0.00  0.00    +0.004 A 
ATOM     27  C   UNL     1       3.151   0.418  22.818  0.00  0.00    +0.071 A 
ATOM     28  C   UNL     1       2.484  -0.064  22.755  0.00  0.00    +0.004 A 
ATOM     29  C   UNL     1       1.748   0.216  23.003  0.00  0.00    +0.005 A 
BRANCH  27  30
ATOM     30  C   UNL     1       3.886   0.138  22.570  0.00  0.00    +0.419 C 
ATOM     31  F   UNL     1       4.622  -0.142  22.322  0.00  0.00    -0.166 F 
ATOM     32  F   UNL     1       3.840  -0.474  23.121  0.00  0.00    -0.166 F 
ATOM     33  F   UNL     1       3.933   0.749  22.018  0.00  0.00    -0.166 F 
ENDBRANCH  27  30
ENDBRANCH  22  24
ENDBRANCH  20  21
TORSDOF 7
ENDMDL
