MODEL 1
REMARK VINA RESULT:     -11.4      0.000      0.000
REMARK  Name = 
REMARK  6 active torsions:
REMARK  status: ('A' for Active; 'I' for Inactive)
REMARK    1  A    between atoms: C_3  and  C_4
REMARK    2  A    between atoms: C_4  and  N_5
REMARK    3  A    between atoms: N_5  and  S_6
REMARK    4  A    between atoms: S_6  and  C_9
REMARK    5  A    between atoms: C_17  and  N_18
REMARK    6  A    between atoms: N_18  and  C_19
REMARK                            x       y       z     vdW  Elec       q    Type
REMARK                         _______ _______ _______ _____ _____    ______ ____
ROOT
ATOM      1  O   UNL     1      -4.142   1.304  25.068  0.00  0.00    -0.219 OA
ATOM      2  C   UNL     1      -3.436   0.878  25.043  0.00  0.00    +0.199 C 
ATOM      3  C   UNL     1      -2.681   1.196  24.949  0.00  0.00    +0.166 C 
ATOM     15  O   UNL     1      -2.139   0.574  24.954  0.00  0.00    -0.350 OA
ATOM     16  C   UNL     1      -2.559  -0.129  25.052  0.00  0.00    +0.162 C 
ATOM     17  C   UNL     1      -3.361   0.058  25.106  0.00  0.00    +0.135 C 
ENDROOT
BRANCH   3   4
ATOM      4  C   UNL     1      -2.499   1.997  24.864  0.00  0.00    +0.148 C 
BRANCH   4   5
ATOM      5  N   UNL     1      -1.756   2.278  25.089  0.00  0.00    -0.075 NA
BRANCH   5   6
ATOM      6  S   UNL     1      -1.596   3.086  25.063  0.00  0.00    +0.077 S 
ATOM      7  O   UNL     1      -1.604   3.114  25.886  0.00  0.00    -0.152 OA
ATOM      8  O   UNL     1      -1.588   3.057  24.238  0.00  0.00    -0.152 OA
BRANCH   6   9
ATOM      9  C   UNL     1      -1.436   3.895  25.036  0.00  0.00    +0.124 A 
ATOM     10  C   UNL     1      -0.712   4.163  24.745  0.00  0.00    +0.020 A 
ATOM     11  C   UNL     1      -0.551   4.971  24.719  0.00  0.00    +0.001 A 
ATOM     12  C   UNL     1      -1.115   5.512  24.983  0.00  0.00    +0.000 A 
ATOM     13  C   UNL     1      -1.839   5.245  25.274  0.00  0.00    +0.001 A 
ATOM     14  C   UNL     1      -1.999   4.436  25.301  0.00  0.00    +0.020 A 
ENDBRANCH   6   9
ENDBRANCH   5   6
ENDBRANCH   4   5
ENDBRANCH   3   4
BRANCH  17  18
ATOM     18  N   UNL     1      -3.978  -0.478  25.206  0.00  0.00    -0.216 NA
BRANCH  18  19
ATOM     19  C   UNL     1      -3.927  -1.233  24.877  0.00  0.00    +0.073 C 
ATOM     20  C   UNL     1      -4.243  -1.379  24.129  0.00  0.00    +0.023 C 
ATOM     21  C   UNL     1      -4.192  -2.134  23.800  0.00  0.00    +0.068 C 
ATOM     22  C   UNL     1      -3.825  -2.743  24.218  0.00  0.00    +0.264 C 
ATOM     23  F   UNL     1      -4.040  -3.149  23.533  0.00  0.00    -0.204 F 
ATOM     24  F   UNL     1      -3.533  -3.492  24.399  0.00  0.00    -0.204 F 
ATOM     25  C   UNL     1      -3.509  -2.597  24.966  0.00  0.00    +0.068 C 
ATOM     26  C   UNL     1      -3.560  -1.842  25.295  0.00  0.00    +0.023 C 
ENDBRANCH  18  19
ENDBRANCH  17  18
TORSDOF 6
ENDMDL
MODEL 2
REMARK VINA RESULT:     -11.3      2.902      6.027
REMARK  Name = 
REMARK  6 active torsions:
REMARK  status: ('A' for Active; 'I' for Inactive)
REMARK    1  A    between atoms: C_3  and  C_4
REMARK    2  A    between atoms: C_4  and  N_5
REMARK    3  A    between atoms: N_5  and  S_6
REMARK    4  A    between atoms: S_6  and  C_9
REMARK    5  A    between atoms: C_17  and  N_18
REMARK    6  A    between atoms: N_18  and  C_19
REMARK                            x       y       z     vdW  Elec       q    Type
REMARK                         _______ _______ _______ _____ _____    ______ ____
ROOT
ATOM      1  O   UNL     1      -1.178   1.104  25.634  0.00  0.00    -0.219 OA
ATOM      2  C   UNL     1      -1.797   1.554  25.325  0.00  0.00    +0.199 C 
ATOM      3  C   UNL     1      -2.448   1.263  24.912  0.00  0.00    +0.166 C 
ATOM     15  O   UNL     1      -2.927   1.903  24.707  0.00  0.00    -0.350 OA
ATOM     16  C   UNL     1      -2.571   2.590  24.993  0.00  0.00    +0.162 C 
ATOM     17  C   UNL     1      -1.872   2.374  25.375  0.00  0.00    +0.135 C 
ENDROOT
BRANCH   3   4
ATOM      4  C   UNL     1      -2.596   0.470  24.736  0.00  0.00    +0.148 C 
BRANCH   4   5
ATOM      5  N   UNL     1      -3.371   0.187  24.728  0.00  0.00    -0.075 NA
BRANCH   5   6
ATOM      6  S   UNL     1      -3.515  -0.615  24.602  0.00  0.00    +0.077 S 
ATOM      7  O   UNL     1      -3.243  -0.543  23.827  0.00  0.00    -0.152 OA
ATOM      8  O   UNL     1      -3.788  -0.688  25.377  0.00  0.00    -0.152 OA
BRANCH   6   9
ATOM      9  C   UNL     1      -3.659  -1.418  24.476  0.00  0.00    +0.124 A 
ATOM     10  C   UNL     1      -3.273  -1.984  24.936  0.00  0.00    +0.020 A 
ATOM     11  C   UNL     1      -3.417  -2.786  24.810  0.00  0.00    +0.001 A 
ATOM     12  C   UNL     1      -3.948  -3.023  24.225  0.00  0.00    +0.000 A 
ATOM     13  C   UNL     1      -4.334  -2.458  23.764  0.00  0.00    +0.001 A 
ATOM     14  C   UNL     1      -4.190  -1.655  23.890  0.00  0.00    +0.020 A 
ENDBRANCH   6   9
ENDBRANCH   5   6
ENDBRANCH   4   5
ENDBRANCH   3   4
BRANCH  17  18
ATOM     18  N   UNL     1      -1.342   2.888  25.742  0.00  0.00    -0.216 NA
BRANCH  18  19
ATOM     19  C   UNL     1      -1.273   3.667  25.481  0.00  0.00    +0.073 C 
ATOM     20  C   UNL     1      -1.838   4.227  25.698  0.00  0.00    +0.023 C 
ATOM     21  C   UNL     1      -1.770   5.007  25.437  0.00  0.00    +0.068 C 
ATOM     22  C   UNL     1      -1.136   5.226  24.957  0.00  0.00    +0.264 C 
ATOM     23  F   UNL     1      -1.528   5.949  25.015  0.00  0.00    -0.204 F 
ATOM     24  F   UNL     1      -0.638   5.696  24.497  0.00  0.00    -0.204 F 
ATOM     25  C   UNL     1      -0.570   4.666  24.739  0.00  0.00    +0.068 C 
ATOM     26  C   UNL     1      -0.639   3.887  25.001  0.00  0.00    +0.023 C 
ENDBRANCH  18  19
ENDBRANCH  17  18
TORSDOF 6
ENDMDL
