MODEL 1
REMARK VINA RESULT:      -8.9      0.000      0.000
REMARK  Name = 
REMARK  9 active torsions:
REMARK  status: ('A' for Active; 'I' for Inactive)
REMARK    1  A    between atoms: S_2  and  C_3
REMARK    2  A    between atoms: C_3  and  C_4
REMARK    3  A    between atoms: C_8  and  N_24
REMARK    4  A    between atoms: C_10  and  C_11
REMARK    5  A    between atoms: N_13  and  C_14
REMARK    6  A    between atoms: C_14  and  C_15
REMARK    7  A    between atoms: C_14  and  C_21
REMARK    8  A    between atoms: C_15  and  C_16
REMARK    9  A    between atoms: N_27  and  C_28
REMARK                            x       y       z     vdW  Elec       q    Type
REMARK                         _______ _______ _______ _____ _____    ______ ____
ROOT
ATOM      4  C   UNL     1      -1.108   1.709  25.423  0.00  0.00    +0.237 C 
ATOM      5  O   UNL     1      -0.445   1.509  25.870  0.00  0.00    -0.274 OA
ATOM      6  N   UNL     1      -1.522   1.123  25.014  0.00  0.00    -0.270 N 
ATOM      7  C   UNL     1      -1.338   0.319  25.001  0.00  0.00    +0.116 C 
ATOM      8  C   UNL     1      -1.894  -0.062  24.526  0.00  0.00    +0.119 C 
ATOM      9  C   UNL     1      -2.422   0.507  24.245  0.00  0.00    +0.053 C 
ATOM     10  C   UNL     1      -2.191   1.239  24.547  0.00  0.00    +0.155 C 
ENDROOT
BRANCH   8  24
ATOM     24  N   UNL     1      -1.919  -0.870  24.361  0.00  0.00    -0.187 NA
ATOM     25  C   UNL     1      -2.554  -1.325  24.625  0.00  0.00    +0.339 C 
ATOM     26  O   UNL     1      -3.165  -0.973  25.053  0.00  0.00    -0.249 OA
ATOM     27  N   UNL     1      -2.579  -2.134  24.459  0.00  0.00    -0.189 NA
BRANCH  27  28
ATOM     28  C   UNL     1      -3.214  -2.589  24.723  0.00  0.00    +0.097 C 
ATOM     29  C   UNL     1      -3.831  -2.774  24.206  0.00  0.00    +0.023 C 
ATOM     30  C   UNL     1      -3.234  -2.858  25.502  0.00  0.00    +0.023 C 
ENDBRANCH  27  28
ENDBRANCH   8  24
BRANCH  10  11
ATOM     11  C   UNL     1      -2.566   1.961  24.406  0.00  0.00    +0.260 C 
ATOM     12  O   UNL     1      -2.118   2.648  24.316  0.00  0.00    -0.272 OA
ATOM     13  N   UNL     1      -3.389   1.995  24.354  0.00  0.00    -0.196 NA
BRANCH  13  14
ATOM     14  C   UNL     1      -3.763   2.717  24.213  0.00  0.00    +0.179 C 
BRANCH  14  21
ATOM     21  C   UNL     1      -3.739   3.053  23.460  0.00  0.00    +0.281 C 
ATOM     22  N   UNL     1      -3.655   3.869  23.376  0.00  0.00    -0.086 NA
ATOM     23  O   UNL     1      -3.800   2.573  22.792  0.00  0.00    -0.270 OA
ENDBRANCH  14  21
BRANCH  14  15
ATOM     15  C   UNL     1      -4.161   3.101  24.825  0.00  0.00    +0.064 C 
BRANCH  15  16
ATOM     16  C   UNL     1      -4.859   2.781  25.127  0.00  0.00    +0.010 A 
ATOM     17  C   UNL     1      -5.362   2.258  24.736  0.00  0.00    +0.003 A 
ATOM     18  C   UNL     1      -5.990   2.082  25.241  0.00  0.00    +0.007 A 
ATOM     19  C   UNL     1      -5.875   2.498  25.944  0.00  0.00    +0.035 A 
ATOM     20  S   UNL     1      -5.177   2.930  25.874  0.00  0.00    -0.091 S 
ENDBRANCH  15  16
ENDBRANCH  14  15
ENDBRANCH  13  14
ENDBRANCH  10  11
BRANCH   4   3
ATOM      3  C   UNL     1      -1.358   2.494  25.383  0.00  0.00    +0.143 C 
BRANCH   3   2
ATOM      1  C   UNL     1      -0.664   3.733  25.541  0.00  0.00    +0.070 C 
ATOM      2  S   UNL     1      -1.012   3.062  25.871  0.00  0.00    -0.130 S 
ENDBRANCH   3   2
ENDBRANCH   4   3
TORSDOF 9
ENDMDL
MODEL 2
REMARK VINA RESULT:      -8.7      1.365      3.198
REMARK  Name = 
REMARK  9 active torsions:
REMARK  status: ('A' for Active; 'I' for Inactive)
REMARK    1  A    between atoms: S_2  and  C_3
REMARK    2  A    between atoms: C_3  and  C_4
REMARK    3  A    between atoms: C_8  and  N_24
REMARK    4  A    between atoms: C_10  and  C_11
REMARK    5  A    between atoms: N_13  and  C_14
REMARK    6  A    between atoms: C_14  and  C_15
REMARK    7  A    between atoms: C_14  and  C_21
REMARK    8  A    between atoms: C_15  and  C_16
REMARK    9  A    between atoms: N_27  and  C_28
REMARK                            x       y       z     vdW  Elec       q    Type
REMARK                         _______ _______ _______ _____ _____    ______ ____
ROOT
ATOM      4  C   UNL     1      -5.084   1.911  25.102  0.00  0.00    +0.237 C 
ATOM      5  O   UNL     1      -5.878   1.692  25.069  0.00  0.00    -0.274 OA
ATOM      6  N   UNL     1      -4.502   1.398  24.818  0.00  0.00    -0.270 N 
ATOM      7  C   UNL     1      -4.633   0.653  24.488  0.00  0.00    +0.116 C 
ATOM      8  C   UNL     1      -3.900   0.336  24.280  0.00  0.00    +0.119 C 
ATOM      9  C   UNL     1      -3.318   0.885  24.482  0.00  0.00    +0.053 C 
ATOM     10  C   UNL     1      -3.691   1.541  24.814  0.00  0.00    +0.155 C 
ENDROOT
BRANCH   8  24
ATOM     24  N   UNL     1      -3.773  -0.402  23.932  0.00  0.00    -0.187 NA
ATOM     25  C   UNL     1      -3.481  -1.026  24.385  0.00  0.00    +0.339 C 
ATOM     26  O   UNL     1      -3.317  -0.914  25.186  0.00  0.00    -0.249 OA
ATOM     27  N   UNL     1      -3.354  -1.764  24.036  0.00  0.00    -0.189 NA
BRANCH  27  28
ATOM     28  C   UNL     1      -3.062  -2.388  24.489  0.00  0.00    +0.097 C 
ATOM     29  C   UNL     1      -2.248  -2.518  24.538  0.00  0.00    +0.023 C 
ATOM     30  C   UNL     1      -3.583  -2.883  24.894  0.00  0.00    +0.023 C 
ENDBRANCH  27  28
ENDBRANCH   8  24
BRANCH  10  11
ATOM     11  C   UNL     1      -3.316   2.221  25.093  0.00  0.00    +0.260 C 
ATOM     12  O   UNL     1      -3.647   2.649  25.716  0.00  0.00    -0.272 OA
ATOM     13  N   UNL     1      -2.609   2.472  24.749  0.00  0.00    -0.196 NA
BRANCH  13  14
ATOM     14  C   UNL     1      -2.234   3.152  25.028  0.00  0.00    +0.179 C 
BRANCH  14  21
ATOM     21  C   UNL     1      -2.337   3.871  24.637  0.00  0.00    +0.281 C 
ATOM     22  N   UNL     1      -2.354   4.575  25.065  0.00  0.00    -0.086 NA
ATOM     23  O   UNL     1      -2.423   3.884  23.816  0.00  0.00    -0.270 OA
ENDBRANCH  14  21
BRANCH  14  15
ATOM     15  C   UNL     1      -1.756   3.113  25.700  0.00  0.00    +0.064 C 
BRANCH  15  16
ATOM     16  C   UNL     1      -0.981   2.837  25.638  0.00  0.00    +0.010 A 
ATOM     17  C   UNL     1      -0.509   2.862  24.962  0.00  0.00    +0.003 A 
ATOM     18  C   UNL     1       0.222   2.528  25.148  0.00  0.00    +0.007 A 
ATOM     19  C   UNL     1       0.201   2.296  25.939  0.00  0.00    +0.035 A 
ATOM     20  S   UNL     1      -0.542   2.487  26.242  0.00  0.00    -0.091 S 
ENDBRANCH  15  16
ENDBRANCH  14  15
ENDBRANCH  13  14
ENDBRANCH  10  11
BRANCH   4   3
ATOM      3  C   UNL     1      -4.870   2.642  25.418  0.00  0.00    +0.143 C 
BRANCH   3   2
ATOM      1  C   UNL     1      -5.674   3.817  25.535  0.00  0.00    +0.070 C 
ATOM      2  S   UNL     1      -5.424   3.090  25.833  0.00  0.00    -0.130 S 
ENDBRANCH   3   2
ENDBRANCH   4   3
TORSDOF 9
ENDMDL
MODEL 3
REMARK VINA RESULT:      -8.5      1.738      4.321
REMARK  Name = 
REMARK  9 active torsions:
REMARK  status: ('A' for Active; 'I' for Inactive)
REMARK    1  A    between atoms: S_2  and  C_3
REMARK    2  A    between atoms: C_3  and  C_4
REMARK    3  A    between atoms: C_8  and  N_24
REMARK    4  A    between atoms: C_10  and  C_11
REMARK    5  A    between atoms: N_13  and  C_14
REMARK    6  A    between atoms: C_14  and  C_15
REMARK    7  A    between atoms: C_14  and  C_21
REMARK    8  A    between atoms: C_15  and  C_16
REMARK    9  A    between atoms: N_27  and  C_28
REMARK                            x       y       z     vdW  Elec       q    Type
REMARK                         _______ _______ _______ _____ _____    ______ ____
ROOT
ATOM      4  C   UNL     1      -1.006   2.102  24.145  0.00  0.00    +0.237 C 
ATOM      5  O   UNL     1      -0.714   2.867  24.058  0.00  0.00    -0.274 OA
ATOM      6  N   UNL     1      -1.821   1.969  24.155  0.00  0.00    -0.270 N 
ATOM      7  C   UNL     1      -2.406   2.547  24.084  0.00  0.00    +0.116 C 
ATOM      8  C   UNL     1      -3.139   2.171  24.123  0.00  0.00    +0.119 C 
ATOM      9  C   UNL     1      -3.007   1.361  24.218  0.00  0.00    +0.053 C 
ATOM     10  C   UNL     1      -2.192   1.238  24.238  0.00  0.00    +0.155 C 
ENDROOT
BRANCH   8  24
ATOM     24  N   UNL     1      -3.876   2.540  24.075  0.00  0.00    -0.187 NA
ATOM     25  C   UNL     1      -4.292   2.721  24.764  0.00  0.00    +0.339 C 
ATOM     26  O   UNL     1      -3.971   2.534  25.501  0.00  0.00    -0.249 OA
ATOM     27  N   UNL     1      -5.029   3.090  24.716  0.00  0.00    -0.189 NA
BRANCH  27  28
ATOM     28  C   UNL     1      -5.444   3.272  25.405  0.00  0.00    +0.097 C 
ATOM     29  C   UNL     1      -5.417   4.037  25.713  0.00  0.00    +0.023 C 
ATOM     30  C   UNL     1      -5.886   2.689  25.786  0.00  0.00    +0.023 C 
ENDBRANCH  27  28
ENDBRANCH   8  24
BRANCH  10  11
ATOM     11  C   UNL     1      -1.815   0.509  24.326  0.00  0.00    +0.260 C 
ATOM     12  O   UNL     1      -1.122   0.350  23.908  0.00  0.00    -0.272 OA
ATOM     13  N   UNL     1      -2.132  -0.061  24.832  0.00  0.00    -0.196 NA
BRANCH  13  14
ATOM     14  C   UNL     1      -1.755  -0.789  24.920  0.00  0.00    +0.179 C 
BRANCH  14  21
ATOM     21  C   UNL     1      -1.273  -0.929  25.574  0.00  0.00    +0.281 C 
ATOM     22  N   UNL     1      -0.559  -1.330  25.483  0.00  0.00    -0.086 NA
ATOM     23  O   UNL     1      -1.506  -0.665  26.321  0.00  0.00    -0.270 OA
ENDBRANCH  14  21
BRANCH  14  15
ATOM     15  C   UNL     1      -1.861  -1.379  24.352  0.00  0.00    +0.064 C 
BRANCH  15  16
ATOM     16  C   UNL     1      -2.505  -1.892  24.406  0.00  0.00    +0.010 A 
ATOM     17  C   UNL     1      -3.293  -1.699  24.262  0.00  0.00    +0.003 A 
ATOM     18  C   UNL     1      -3.748  -2.377  24.382  0.00  0.00    +0.007 A 
ATOM     19  C   UNL     1      -3.240  -2.989  24.600  0.00  0.00    +0.035 A 
ATOM     20  S   UNL     1      -2.472  -2.690  24.615  0.00  0.00    -0.091 S 
ENDBRANCH  15  16
ENDBRANCH  14  15
ENDBRANCH  13  14
ENDBRANCH  10  11
BRANCH   4   3
ATOM      3  C   UNL     1      -0.484   1.467  24.223  0.00  0.00    +0.143 C 
BRANCH   3   2
ATOM      1  C   UNL     1       0.878   1.398  23.797  0.00  0.00    +0.070 C 
ATOM      2  S   UNL     1       0.316   1.606  24.364  0.00  0.00    -0.130 S 
ENDBRANCH   3   2
ENDBRANCH   4   3
TORSDOF 9
ENDMDL
MODEL 4
REMARK VINA RESULT:      -8.2      1.104      1.301
REMARK  Name = 
REMARK  9 active torsions:
REMARK  status: ('A' for Active; 'I' for Inactive)
REMARK    1  A    between atoms: S_2  and  C_3
REMARK    2  A    between atoms: C_3  and  C_4
REMARK    3  A    between atoms: C_8  and  N_24
REMARK    4  A    between atoms: C_10  and  C_11
REMARK    5  A    between atoms: N_13  and  C_14
REMARK    6  A    between atoms: C_14  and  C_15
REMARK    7  A    between atoms: C_14  and  C_21
REMARK    8  A    between atoms: C_15  and  C_16
REMARK    9  A    between atoms: N_27  and  C_28
REMARK                            x       y       z     vdW  Elec       q    Type
REMARK                         _______ _______ _______ _____ _____    ______ ____
ROOT
ATOM      4  C   UNL     1      -0.624   1.855  24.499  0.00  0.00    +0.237 C 
ATOM      5  O   UNL     1       0.162   1.637  24.379  0.00  0.00    -0.274 OA
ATOM      6  N   UNL     1      -1.167   1.303  24.785  0.00  0.00    -0.270 N 
ATOM      7  C   UNL     1      -1.004   0.516  24.975  0.00  0.00    +0.116 C 
ATOM      8  C   UNL     1      -1.704   0.168  25.239  0.00  0.00    +0.119 C 
ATOM      9  C   UNL     1      -2.299   0.739  25.212  0.00  0.00    +0.053 C 
ATOM     10  C   UNL     1      -1.967   1.440  24.931  0.00  0.00    +0.155 C 
ENDROOT
BRANCH   8  24
ATOM     24  N   UNL     1      -1.792  -0.614  25.486  0.00  0.00    -0.187 NA
ATOM     25  C   UNL     1      -2.156  -1.164  24.990  0.00  0.00    +0.339 C 
ATOM     26  O   UNL     1      -2.431  -0.932  24.248  0.00  0.00    -0.249 OA
ATOM     27  N   UNL     1      -2.245  -1.947  25.238  0.00  0.00    -0.189 NA
BRANCH  27  28
ATOM     28  C   UNL     1      -2.609  -2.496  24.742  0.00  0.00    +0.097 C 
ATOM     29  C   UNL     1      -3.425  -2.616  24.788  0.00  0.00    +0.023 C 
ATOM     30  C   UNL     1      -2.159  -2.927  24.201  0.00  0.00    +0.023 C 
ENDBRANCH  27  28
ENDBRANCH   8  24
BRANCH  10  11
ATOM     11  C   UNL     1      -2.366   2.154  24.817  0.00  0.00    +0.260 C 
ATOM     12  O   UNL     1      -2.188   2.626  24.165  0.00  0.00    -0.272 OA
ATOM     13  N   UNL     1      -2.943   2.393  25.357  0.00  0.00    -0.196 NA
BRANCH  13  14
ATOM     14  C   UNL     1      -3.342   3.106  25.243  0.00  0.00    +0.179 C 
BRANCH  14  21
ATOM     21  C   UNL     1      -3.111   3.780  25.659  0.00  0.00    +0.281 C 
ATOM     22  N   UNL     1      -2.944   3.730  26.465  0.00  0.00    -0.086 NA
ATOM     23  O   UNL     1      -3.046   4.504  25.268  0.00  0.00    -0.270 OA
ENDBRANCH  14  21
BRANCH  14  15
ATOM     15  C   UNL     1      -3.973   3.145  24.712  0.00  0.00    +0.064 C 
BRANCH  15  16
ATOM     16  C   UNL     1      -4.719   2.876  24.939  0.00  0.00    +0.010 A 
ATOM     17  C   UNL     1      -5.121   2.231  24.618  0.00  0.00    +0.003 A 
ATOM     18  C   UNL     1      -5.844   2.161  25.008  0.00  0.00    +0.007 A 
ATOM     19  C   UNL     1      -5.889   2.763  25.570  0.00  0.00    +0.035 A 
ATOM     20  S   UNL     1      -5.194   3.205  25.528  0.00  0.00    -0.091 S 
ENDBRANCH  15  16
ENDBRANCH  14  15
ENDBRANCH  13  14
ENDBRANCH  10  11
BRANCH   4   3
ATOM      3  C   UNL     1      -0.869   2.626  24.332  0.00  0.00    +0.143 C 
BRANCH   3   2
ATOM      1  C   UNL     1      -0.037   3.787  24.298  0.00  0.00    +0.070 C 
ATOM      2  S   UNL     1      -0.371   3.135  23.917  0.00  0.00    -0.130 S 
ENDBRANCH   3   2
ENDBRANCH   4   3
TORSDOF 9
ENDMDL
MODEL 5
REMARK VINA RESULT:      -8.2      1.824      4.415
REMARK  Name = 
REMARK  9 active torsions:
REMARK  status: ('A' for Active; 'I' for Inactive)
REMARK    1  A    between atoms: S_2  and  C_3
REMARK    2  A    between atoms: C_3  and  C_4
REMARK    3  A    between atoms: C_8  and  N_24
REMARK    4  A    between atoms: C_10  and  C_11
REMARK    5  A    between atoms: N_13  and  C_14
REMARK    6  A    between atoms: C_14  and  C_15
REMARK    7  A    between atoms: C_14  and  C_21
REMARK    8  A    between atoms: C_15  and  C_16
REMARK    9  A    between atoms: N_27  and  C_28
REMARK                            x       y       z     vdW  Elec       q    Type
REMARK                         _______ _______ _______ _____ _____    ______ ____
ROOT
ATOM      4  C   UNL     1      -3.119  -1.296  24.577  0.00  0.00    +0.237 C 
ATOM      5  O   UNL     1      -3.683  -1.897  24.548  0.00  0.00    -0.274 OA
ATOM      6  N   UNL     1      -3.354  -0.506  24.530  0.00  0.00    -0.270 N 
ATOM      7  C   UNL     1      -4.130  -0.236  24.453  0.00  0.00    +0.116 C 
ATOM      8  C   UNL     1      -4.110   0.588  24.427  0.00  0.00    +0.119 C 
ATOM      9  C   UNL     1      -3.322   0.827  24.488  0.00  0.00    +0.053 C 
ATOM     10  C   UNL     1      -2.855   0.150  24.551  0.00  0.00    +0.155 C 
ENDROOT
BRANCH   8  24
ATOM     24  N   UNL     1      -4.764   1.087  24.352  0.00  0.00    -0.187 NA
ATOM     25  C   UNL     1      -4.986   1.571  24.982  0.00  0.00    +0.339 C 
ATOM     26  O   UNL     1      -4.555   1.558  25.685  0.00  0.00    -0.249 OA
ATOM     27  N   UNL     1      -5.640   2.070  24.908  0.00  0.00    -0.189 NA
BRANCH  27  28
ATOM     28  C   UNL     1      -5.862   2.554  25.537  0.00  0.00    +0.097 C 
ATOM     29  C   UNL     1      -6.343   2.255  26.138  0.00  0.00    +0.023 C 
ATOM     30  C   UNL     1      -5.603   3.337  25.568  0.00  0.00    +0.023 C 
ENDBRANCH  27  28
ENDBRANCH   8  24
BRANCH  10  11
ATOM     11  C   UNL     1      -2.034   0.133  24.624  0.00  0.00    +0.260 C 
ATOM     12  O   UNL     1      -1.667  -0.488  25.023  0.00  0.00    -0.272 OA
ATOM     13  N   UNL     1      -1.579   0.740  24.297  0.00  0.00    -0.196 NA
BRANCH  13  14
ATOM     14  C   UNL     1      -0.757   0.724  24.370  0.00  0.00    +0.179 C 
BRANCH  14  21
ATOM     21  C   UNL     1      -0.292   0.480  23.734  0.00  0.00    +0.281 C 
ATOM     22  N   UNL     1       0.362  -0.006  23.864  0.00  0.00    -0.086 NA
ATOM     23  O   UNL     1      -0.480   0.724  22.968  0.00  0.00    -0.270 OA
ENDBRANCH  14  21
BRANCH  14  15
ATOM     15  C   UNL     1      -0.402   0.951  25.079  0.00  0.00    +0.064 C 
BRANCH  15  16
ATOM     16  C   UNL     1      -0.305   1.752  25.253  0.00  0.00    +0.010 A 
ATOM     17  C   UNL     1      -0.182   2.356  24.706  0.00  0.00    +0.003 A 
ATOM     18  C   UNL     1      -0.116   3.066  25.121  0.00  0.00    +0.007 A 
ATOM     19  C   UNL     1      -0.198   2.900  25.924  0.00  0.00    +0.035 A 
ATOM     20  S   UNL     1      -0.315   2.088  26.007  0.00  0.00    -0.091 S 
ENDBRANCH  15  16
ENDBRANCH  14  15
ENDBRANCH  13  14
ENDBRANCH  10  11
BRANCH   4   3
ATOM      3  C   UNL     1      -2.319  -1.484  24.654  0.00  0.00    +0.143 C 
BRANCH   3   2
ATOM      1  C   UNL     1      -1.748  -2.734  24.264  0.00  0.00    +0.070 C 
ATOM      2  S   UNL     1      -2.092  -2.255  24.840  0.00  0.00    -0.130 S 
ENDBRANCH   3   2
ENDBRANCH   4   3
TORSDOF 9
ENDMDL
MODEL 6
REMARK VINA RESULT:      -8.1      2.421      4.649
REMARK  Name = 
REMARK  9 active torsions:
REMARK  status: ('A' for Active; 'I' for Inactive)
REMARK    1  A    between atoms: S_2  and  C_3
REMARK    2  A    between atoms: C_3  and  C_4
REMARK    3  A    between atoms: C_8  and  N_24
REMARK    4  A    between atoms: C_10  and  C_11
REMARK    5  A    between atoms: N_13  and  C_14
REMARK    6  A    between atoms: C_14  and  C_15
REMARK    7  A    between atoms: C_14  and  C_21
REMARK    8  A    between atoms: C_15  and  C_16
REMARK    9  A    between atoms: N_27  and  C_28
REMARK                            x       y       z     vdW  Elec       q    Type
REMARK                         _______ _______ _______ _____ _____    ______ ____
ROOT
ATOM      4  C   UNL     1       0.440   0.961  23.903  0.00  0.00    +0.237 C 
ATOM      5  O   UNL     1       0.996   1.422  23.507  0.00  0.00    -0.274 OA
ATOM      6  N   UNL     1      -0.028   1.295  24.496  0.00  0.00    -0.270 N 
ATOM      7  C   UNL     1      -0.000   2.081  24.749  0.00  0.00    +0.116 C 
ATOM      8  C   UNL     1      -0.560   2.174  25.348  0.00  0.00    +0.119 C 
ATOM      9  C   UNL     1      -0.933   1.447  25.464  0.00  0.00    +0.053 C 
ATOM     10  C   UNL     1      -0.604   0.905  24.937  0.00  0.00    +0.155 C 
ENDROOT
BRANCH   8  24
ATOM     24  N   UNL     1      -0.718   2.873  25.758  0.00  0.00    -0.187 NA
ATOM     25  C   UNL     1      -1.239   3.428  25.441  0.00  0.00    +0.339 C 
ATOM     26  O   UNL     1      -1.602   3.285  24.714  0.00  0.00    -0.249 OA
ATOM     27  N   UNL     1      -1.397   4.126  25.852  0.00  0.00    -0.189 NA
BRANCH  27  28
ATOM     28  C   UNL     1      -1.919   4.681  25.534  0.00  0.00    +0.097 C 
ATOM     29  C   UNL     1      -2.732   4.597  25.651  0.00  0.00    +0.023 C 
ATOM     30  C   UNL     1      -1.628   5.320  25.100  0.00  0.00    +0.023 C 
ENDBRANCH  27  28
ENDBRANCH   8  24
BRANCH  10  11
ATOM     11  C   UNL     1      -0.816   0.110  24.866  0.00  0.00    +0.260 C 
ATOM     12  O   UNL     1      -0.248  -0.450  24.658  0.00  0.00    -0.272 OA
ATOM     13  N   UNL     1      -1.596  -0.122  25.002  0.00  0.00    -0.196 NA
BRANCH  13  14
ATOM     14  C   UNL     1      -1.807  -0.916  24.930  0.00  0.00    +0.179 C 
BRANCH  14  21
ATOM     21  C   UNL     1      -1.620  -1.449  25.531  0.00  0.00    +0.281 C 
ATOM     22  N   UNL     1      -1.270  -2.172  25.347  0.00  0.00    -0.086 NA
ATOM     23  O   UNL     1      -1.784  -1.258  26.317  0.00  0.00    -0.270 OA
ENDBRANCH  14  21
BRANCH  14  15
ATOM     15  C   UNL     1      -2.206  -1.177  24.256  0.00  0.00    +0.064 C 
BRANCH  15  16
ATOM     16  C   UNL     1      -3.028  -1.115  24.214  0.00  0.00    +0.010 A 
ATOM     17  C   UNL     1      -3.459  -0.414  24.157  0.00  0.00    +0.003 A 
ATOM     18  C   UNL     1      -4.260  -0.609  24.129  0.00  0.00    +0.007 A 
ATOM     19  C   UNL     1      -4.323  -1.430  24.168  0.00  0.00    +0.035 A 
ATOM     20  S   UNL     1      -3.562  -1.743  24.220  0.00  0.00    -0.091 S 
ENDBRANCH  15  16
ENDBRANCH  14  15
ENDBRANCH  13  14
ENDBRANCH  10  11
BRANCH   4   3
ATOM      3  C   UNL     1       0.349   0.164  23.708  0.00  0.00    +0.143 C 
BRANCH   3   2
ATOM      1  C   UNL     1       0.772  -0.341  22.440  0.00  0.00    +0.070 C 
ATOM      2  S   UNL     1       0.916  -0.213  23.242  0.00  0.00    -0.130 S 
ENDBRANCH   3   2
ENDBRANCH   4   3
TORSDOF 9
ENDMDL
