MODEL 1
REMARK VINA RESULT:      -9.0      0.000      0.000
REMARK  Name = 
REMARK  9 active torsions:
REMARK  status: ('A' for Active; 'I' for Inactive)
REMARK    1  A    between atoms: S_2  and  C_3
REMARK    2  A    between atoms: C_3  and  C_4
REMARK    3  A    between atoms: C_8  and  N_28
REMARK    4  A    between atoms: C_10  and  C_11
REMARK    5  A    between atoms: N_13  and  C_14
REMARK    6  A    between atoms: C_14  and  C_15
REMARK    7  A    between atoms: C_14  and  C_25
REMARK    8  A    between atoms: C_15  and  C_16
REMARK    9  A    between atoms: N_31  and  C_32
REMARK                            x       y       z     vdW  Elec       q    Type
REMARK                         _______ _______ _______ _____ _____    ______ ____
ROOT
ATOM      4  C   UNL     1      -4.989   1.514  25.220  0.00  0.00    +0.237 C 
ATOM      5  O   UNL     1      -5.576   1.379  25.785  0.00  0.00    -0.274 OA
ATOM      6  N   UNL     1      -4.661   0.880  24.807  0.00  0.00    -0.270 N 
ATOM      7  C   UNL     1      -4.862   0.086  24.898  0.00  0.00    +0.116 C 
ATOM      8  C   UNL     1      -4.398  -0.356  24.377  0.00  0.00    +0.119 C 
ATOM      9  C   UNL     1      -3.911   0.166  23.964  0.00  0.00    +0.053 C 
ATOM     10  C   UNL     1      -4.073   0.930  24.230  0.00  0.00    +0.155 C 
ENDROOT
BRANCH   8  28
ATOM     28  N   UNL     1      -4.419  -1.175  24.285  0.00  0.00    -0.187 NA
ATOM     29  C   UNL     1      -3.795  -1.637  24.566  0.00  0.00    +0.339 C 
ATOM     30  O   UNL     1      -3.152  -1.280  24.938  0.00  0.00    -0.249 OA
ATOM     31  N   UNL     1      -3.816  -2.457  24.475  0.00  0.00    -0.189 NA
BRANCH  31  32
ATOM     32  C   UNL     1      -3.192  -2.919  24.756  0.00  0.00    +0.097 C 
ATOM     33  C   UNL     1      -2.560  -3.103  24.259  0.00  0.00    +0.023 C 
ATOM     34  C   UNL     1      -3.202  -3.196  25.533  0.00  0.00    +0.023 C 
ENDBRANCH  31  32
ENDBRANCH   8  28
BRANCH  10  11
ATOM     11  C   UNL     1      -3.712   1.623  23.965  0.00  0.00    +0.260 C 
ATOM     12  O   UNL     1      -4.151   2.318  23.900  0.00  0.00    -0.272 OA
ATOM     13  N   UNL     1      -2.911   1.622  23.767  0.00  0.00    -0.196 NA
BRANCH  13  14
ATOM     14  C   UNL     1      -2.550   2.314  23.502  0.00  0.00    +0.179 C 
BRANCH  14  25
ATOM     25  C   UNL     1      -2.670   2.574  22.729  0.00  0.00    +0.281 C 
ATOM     26  N   UNL     1      -2.504   2.072  22.095  0.00  0.00    -0.086 NA
ATOM     27  O   UNL     1      -2.955   3.335  22.588  0.00  0.00    -0.270 OA
ENDBRANCH  14  25
BRANCH  14  15
ATOM     15  C   UNL     1      -2.067   2.748  24.013  0.00  0.00    +0.059 C 
BRANCH  15  16
ATOM     16  C   UNL     1      -1.336   2.445  24.246  0.00  0.00    +0.001 A 
ATOM     17  C   UNL     1      -0.851   1.952  23.799  0.00  0.00    +0.095 A 
ATOM     18  N   UNL     1      -0.176   1.784  24.244  0.00  0.00    -0.244 NA
ATOM     19  C   UNL     1      -0.246   2.176  24.967  0.00  0.00    +0.081 A 
ATOM     20  C   UNL     1      -0.963   2.584  24.968  0.00  0.00    +0.015 A 
ATOM     21  C   UNL     1      -1.183   3.030  25.627  0.00  0.00    +0.001 A 
ATOM     22  C   UNL     1      -0.686   3.067  26.285  0.00  0.00    +0.000 A 
ATOM     23  C   UNL     1       0.031   2.658  26.283  0.00  0.00    +0.002 A 
ATOM     24  C   UNL     1       0.251   2.212  25.625  0.00  0.00    +0.019 A 
ENDBRANCH  15  16
ENDBRANCH  14  15
ENDBRANCH  13  14
ENDBRANCH  10  11
BRANCH   4   3
ATOM      3  C   UNL     1      -4.732   2.283  25.070  0.00  0.00    +0.143 C 
BRANCH   3   2
ATOM      1  C   UNL     1      -4.820   3.450  25.892  0.00  0.00    +0.070 C 
ATOM      2  S   UNL     1      -5.164   2.926  25.354  0.00  0.00    -0.130 S 
ENDBRANCH   3   2
ENDBRANCH   4   3
TORSDOF 9
ENDMDL
MODEL 2
REMARK VINA RESULT:      -8.8      1.803      3.723
REMARK  Name = 
REMARK  9 active torsions:
REMARK  status: ('A' for Active; 'I' for Inactive)
REMARK    1  A    between atoms: S_2  and  C_3
REMARK    2  A    between atoms: C_3  and  C_4
REMARK    3  A    between atoms: C_8  and  N_28
REMARK    4  A    between atoms: C_10  and  C_11
REMARK    5  A    between atoms: N_13  and  C_14
REMARK    6  A    between atoms: C_14  and  C_15
REMARK    7  A    between atoms: C_14  and  C_25
REMARK    8  A    between atoms: C_15  and  C_16
REMARK    9  A    between atoms: N_31  and  C_32
REMARK                            x       y       z     vdW  Elec       q    Type
REMARK                         _______ _______ _______ _____ _____    ______ ____
ROOT
ATOM      4  C   UNL     1      -0.599   2.773  25.062  0.00  0.00    +0.237 C 
ATOM      5  O   UNL     1       0.024   2.902  25.589  0.00  0.00    -0.274 OA
ATOM      6  N   UNL     1      -0.683   2.039  24.695  0.00  0.00    -0.270 N 
ATOM      7  C   UNL     1      -0.190   1.386  24.799  0.00  0.00    +0.116 C 
ATOM      8  C   UNL     1      -0.477   0.772  24.327  0.00  0.00    +0.119 C 
ATOM      9  C   UNL     1      -1.147   1.046  23.932  0.00  0.00    +0.053 C 
ATOM     10  C   UNL     1      -1.274   1.829  24.159  0.00  0.00    +0.155 C 
ENDROOT
BRANCH   8  28
ATOM     28  N   UNL     1      -0.151   0.018  24.263  0.00  0.00    -0.187 NA
ATOM     29  C   UNL     1      -0.507  -0.620  24.649  0.00  0.00    +0.339 C 
ATOM     30  O   UNL     1      -1.188  -0.502  25.098  0.00  0.00    -0.249 OA
ATOM     31  N   UNL     1      -0.180  -1.375  24.585  0.00  0.00    -0.189 NA
BRANCH  31  32
ATOM     32  C   UNL     1      -0.536  -2.012  24.970  0.00  0.00    +0.097 C 
ATOM     33  C   UNL     1      -1.161  -2.413  24.611  0.00  0.00    +0.023 C 
ATOM     34  C   UNL     1      -0.267  -2.247  25.714  0.00  0.00    +0.023 C 
ENDBRANCH  31  32
ENDBRANCH   8  28
BRANCH  10  11
ATOM     11  C   UNL     1      -1.885   2.317  23.897  0.00  0.00    +0.260 C 
ATOM     12  O   UNL     1      -1.741   3.117  23.751  0.00  0.00    -0.272 OA
ATOM     13  N   UNL     1      -2.641   2.008  23.781  0.00  0.00    -0.196 NA
BRANCH  13  14
ATOM     14  C   UNL     1      -3.252   2.496  23.519  0.00  0.00    +0.179 C 
BRANCH  14  25
ATOM     25  C   UNL     1      -3.315   2.686  22.719  0.00  0.00    +0.281 C 
ATOM     26  N   UNL     1      -3.590   3.430  22.493  0.00  0.00    -0.086 NA
ATOM     27  O   UNL     1      -3.105   2.133  22.144  0.00  0.00    -0.270 OA
ENDBRANCH  14  25
BRANCH  14  15
ATOM     15  C   UNL     1      -3.800   2.795  24.058  0.00  0.00    +0.059 C 
BRANCH  15  16
ATOM     16  C   UNL     1      -4.354   2.291  24.405  0.00  0.00    +0.001 A 
ATOM     17  C   UNL     1      -4.463   1.494  24.227  0.00  0.00    +0.095 A 
ATOM     18  N   UNL     1      -5.073   1.207  24.704  0.00  0.00    -0.244 NA
ATOM     19  C   UNL     1      -5.340   1.828  25.177  0.00  0.00    +0.081 A 
ATOM     20  C   UNL     1      -4.896   2.498  24.992  0.00  0.00    +0.015 A 
ATOM     21  C   UNL     1      -5.041   3.210  25.383  0.00  0.00    +0.001 A 
ATOM     22  C   UNL     1      -5.632   3.252  25.958  0.00  0.00    +0.000 A 
ATOM     23  C   UNL     1      -6.076   2.581  26.142  0.00  0.00    +0.002 A 
ATOM     24  C   UNL     1      -5.930   1.869  25.752  0.00  0.00    +0.019 A 
ENDBRANCH  15  16
ENDBRANCH  14  15
ENDBRANCH  13  14
ENDBRANCH  10  11
BRANCH   4   3
ATOM      3  C   UNL     1      -1.137   3.377  24.904  0.00  0.00    +0.143 C 
BRANCH   3   2
ATOM      1  C   UNL     1      -1.019   4.797  25.021  0.00  0.00    +0.070 C 
ATOM      2  S   UNL     1      -1.142   4.059  25.369  0.00  0.00    -0.130 S 
ENDBRANCH   3   2
ENDBRANCH   4   3
TORSDOF 9
ENDMDL
MODEL 3
REMARK VINA RESULT:      -8.8      2.704      4.777
REMARK  Name = 
REMARK  9 active torsions:
REMARK  status: ('A' for Active; 'I' for Inactive)
REMARK    1  A    between atoms: S_2  and  C_3
REMARK    2  A    between atoms: C_3  and  C_4
REMARK    3  A    between atoms: C_8  and  N_28
REMARK    4  A    between atoms: C_10  and  C_11
REMARK    5  A    between atoms: N_13  and  C_14
REMARK    6  A    between atoms: C_14  and  C_15
REMARK    7  A    between atoms: C_14  and  C_25
REMARK    8  A    between atoms: C_15  and  C_16
REMARK    9  A    between atoms: N_31  and  C_32
REMARK                            x       y       z     vdW  Elec       q    Type
REMARK                         _______ _______ _______ _____ _____    ______ ____
ROOT
ATOM      4  C   UNL     1      -0.862  -0.766  24.746  0.00  0.00    +0.237 C 
ATOM      5  O   UNL     1      -0.854  -1.586  24.646  0.00  0.00    -0.274 OA
ATOM      6  N   UNL     1      -0.377  -0.290  24.279  0.00  0.00    -0.270 N 
ATOM      7  C   UNL     1       0.141  -0.552  23.693  0.00  0.00    +0.116 C 
ATOM      8  C   UNL     1       0.513   0.109  23.367  0.00  0.00    +0.119 C 
ATOM      9  C   UNL     1       0.225   0.779  23.752  0.00  0.00    +0.053 C 
ATOM     10  C   UNL     1      -0.325   0.533  24.316  0.00  0.00    +0.155 C 
ENDROOT
BRANCH   8  28
ATOM     28  N   UNL     1       1.074   0.100  22.763  0.00  0.00    -0.187 NA
ATOM     29  C   UNL     1       1.873   0.205  22.941  0.00  0.00    +0.339 C 
ATOM     30  O   UNL     1       2.110   0.319  23.723  0.00  0.00    -0.249 OA
ATOM     31  N   UNL     1       2.435   0.196  22.337  0.00  0.00    -0.189 NA
BRANCH  31  32
ATOM     32  C   UNL     1       3.234   0.301  22.516  0.00  0.00    +0.097 C 
ATOM     33  C   UNL     1       3.693  -0.345  22.744  0.00  0.00    +0.023 C 
ATOM     34  C   UNL     1       3.573   1.052  22.466  0.00  0.00    +0.023 C 
ENDBRANCH  31  32
ENDBRANCH   8  28
BRANCH  10  11
ATOM     11  C   UNL     1      -0.749   1.023  24.826  0.00  0.00    +0.260 C 
ATOM     12  O   UNL     1      -0.796   0.839  25.630  0.00  0.00    -0.272 OA
ATOM     13  N   UNL     1      -1.128   1.695  24.535  0.00  0.00    -0.196 NA
BRANCH  13  14
ATOM     14  C   UNL     1      -1.552   2.185  25.046  0.00  0.00    +0.179 C 
BRANCH  14  25
ATOM     25  C   UNL     1      -1.177   2.819  25.417  0.00  0.00    +0.281 C 
ATOM     26  N   UNL     1      -0.737   3.356  24.970  0.00  0.00    -0.086 NA
ATOM     27  O   UNL     1      -1.242   2.918  26.233  0.00  0.00    -0.270 OA
ENDBRANCH  14  25
BRANCH  14  15
ATOM     15  C   UNL     1      -2.352   2.040  25.186  0.00  0.00    +0.059 C 
BRANCH  15  16
ATOM     16  C   UNL     1      -2.923   2.347  24.675  0.00  0.00    +0.001 A 
ATOM     17  C   UNL     1      -2.776   2.776  23.987  0.00  0.00    +0.095 A 
ATOM     18  N   UNL     1      -3.504   2.973  23.649  0.00  0.00    -0.244 NA
ATOM     19  C   UNL     1      -4.099   2.664  24.130  0.00  0.00    +0.081 A 
ATOM     20  C   UNL     1      -3.740   2.277  24.764  0.00  0.00    +0.015 A 
ATOM     21  C   UNL     1      -4.203   1.911  25.340  0.00  0.00    +0.001 A 
ATOM     22  C   UNL     1      -5.026   1.933  25.282  0.00  0.00    +0.000 A 
ATOM     23  C   UNL     1      -5.385   2.320  24.648  0.00  0.00    +0.002 A 
ATOM     24  C   UNL     1      -4.922   2.686  24.072  0.00  0.00    +0.019 A 
ENDBRANCH  15  16
ENDBRANCH  14  15
ENDBRANCH  13  14
ENDBRANCH  10  11
BRANCH   4   3
ATOM      3  C   UNL     1      -1.353  -0.425  25.313  0.00  0.00    +0.143 C 
BRANCH   3   2
ATOM      1  C   UNL     1      -2.491  -1.150  25.787  0.00  0.00    +0.070 C 
ATOM      2  S   UNL     1      -1.712  -0.897  25.888  0.00  0.00    -0.130 S 
ENDBRANCH   3   2
ENDBRANCH   4   3
TORSDOF 9
ENDMDL
MODEL 4
REMARK VINA RESULT:      -8.7      2.271      3.779
REMARK  Name = 
REMARK  9 active torsions:
REMARK  status: ('A' for Active; 'I' for Inactive)
REMARK    1  A    between atoms: S_2  and  C_3
REMARK    2  A    between atoms: C_3  and  C_4
REMARK    3  A    between atoms: C_8  and  N_28
REMARK    4  A    between atoms: C_10  and  C_11
REMARK    5  A    between atoms: N_13  and  C_14
REMARK    6  A    between atoms: C_14  and  C_15
REMARK    7  A    between atoms: C_14  and  C_25
REMARK    8  A    between atoms: C_15  and  C_16
REMARK    9  A    between atoms: N_31  and  C_32
REMARK                            x       y       z     vdW  Elec       q    Type
REMARK                         _______ _______ _______ _____ _____    ______ ____
ROOT
ATOM      4  C   UNL     1       0.086  -0.019  23.946  0.00  0.00    +0.237 C 
ATOM      5  O   UNL     1       0.508  -0.650  23.622  0.00  0.00    -0.274 OA
ATOM      6  N   UNL     1      -0.603  -0.161  24.376  0.00  0.00    -0.270 N 
ATOM      7  C   UNL     1      -0.937  -0.900  24.526  0.00  0.00    +0.116 C 
ATOM      8  C   UNL     1      -1.621  -0.785  24.974  0.00  0.00    +0.119 C 
ATOM      9  C   UNL     1      -1.709   0.025  25.100  0.00  0.00    +0.053 C 
ATOM     10  C   UNL     1      -1.081   0.411  24.730  0.00  0.00    +0.155 C 
ENDROOT
BRANCH   8  28
ATOM     28  N   UNL     1      -2.126  -1.376  25.247  0.00  0.00    -0.187 NA
ATOM     29  C   UNL     1      -2.675  -1.719  24.734  0.00  0.00    +0.339 C 
ATOM     30  O   UNL     1      -2.717  -1.470  23.949  0.00  0.00    -0.249 OA
ATOM     31  N   UNL     1      -3.180  -2.311  25.008  0.00  0.00    -0.189 NA
BRANCH  31  32
ATOM     32  C   UNL     1      -3.729  -2.654  24.494  0.00  0.00    +0.097 C 
ATOM     33  C   UNL     1      -3.641  -3.441  24.264  0.00  0.00    +0.023 C 
ATOM     34  C   UNL     1      -4.364  -2.210  24.213  0.00  0.00    +0.023 C 
ENDBRANCH  31  32
ENDBRANCH   8  28
BRANCH  10  11
ATOM     11  C   UNL     1      -0.951   1.226  24.717  0.00  0.00    +0.260 C 
ATOM     12  O   UNL     1      -0.615   1.579  24.051  0.00  0.00    -0.272 OA
ATOM     13  N   UNL     1      -1.158   1.688  25.368  0.00  0.00    -0.196 NA
BRANCH  13  14
ATOM     14  C   UNL     1      -1.028   2.502  25.354  0.00  0.00    +0.179 C 
BRANCH  14  25
ATOM     25  C   UNL     1      -0.375   2.824  25.742  0.00  0.00    +0.281 C 
ATOM     26  N   UNL     1      -0.144   2.526  26.476  0.00  0.00    -0.086 NA
ATOM     27  O   UNL     1       0.047   3.442  25.397  0.00  0.00    -0.270 OA
ENDBRANCH  14  25
BRANCH  14  15
ATOM     15  C   UNL     1      -1.553   2.997  24.953  0.00  0.00    +0.059 C 
BRANCH  15  16
ATOM     16  C   UNL     1      -2.220   3.291  25.339  0.00  0.00    +0.001 A 
ATOM     17  C   UNL     1      -2.260   3.522  26.129  0.00  0.00    +0.095 A 
ATOM     18  N   UNL     1      -3.029   3.781  26.282  0.00  0.00    -0.244 NA
ATOM     19  C   UNL     1      -3.464   3.708  25.584  0.00  0.00    +0.081 A 
ATOM     20  C   UNL     1      -2.964   3.406  25.002  0.00  0.00    +0.015 A 
ATOM     21  C   UNL     1      -3.251   3.274  24.240  0.00  0.00    +0.001 A 
ATOM     22  C   UNL     1      -4.038   3.445  24.060  0.00  0.00    +0.000 A 
ATOM     23  C   UNL     1      -4.538   3.747  24.643  0.00  0.00    +0.002 A 
ATOM     24  C   UNL     1      -4.251   3.879  25.405  0.00  0.00    +0.019 A 
ENDBRANCH  15  16
ENDBRANCH  14  15
ENDBRANCH  13  14
ENDBRANCH  10  11
BRANCH   4   3
ATOM      3  C   UNL     1       0.354   0.754  23.840  0.00  0.00    +0.143 C 
BRANCH   3   2
ATOM      1  C   UNL     1       1.714   1.065  23.525  0.00  0.00    +0.070 C 
ATOM      2  S   UNL     1       0.940   0.915  23.281  0.00  0.00    -0.130 S 
ENDBRANCH   3   2
ENDBRANCH   4   3
TORSDOF 9
ENDMDL
MODEL 5
REMARK VINA RESULT:      -8.4      2.479      5.659
REMARK  Name = 
REMARK  9 active torsions:
REMARK  status: ('A' for Active; 'I' for Inactive)
REMARK    1  A    between atoms: S_2  and  C_3
REMARK    2  A    between atoms: C_3  and  C_4
REMARK    3  A    between atoms: C_8  and  N_28
REMARK    4  A    between atoms: C_10  and  C_11
REMARK    5  A    between atoms: N_13  and  C_14
REMARK    6  A    between atoms: C_14  and  C_15
REMARK    7  A    between atoms: C_14  and  C_25
REMARK    8  A    between atoms: C_15  and  C_16
REMARK    9  A    between atoms: N_31  and  C_32
REMARK                            x       y       z     vdW  Elec       q    Type
REMARK                         _______ _______ _______ _____ _____    ______ ____
ROOT
ATOM      4  C   UNL     1       0.905   1.068  23.725  0.00  0.00    +0.237 C 
ATOM      5  O   UNL     1       1.554   1.490  23.438  0.00  0.00    -0.274 OA
ATOM      6  N   UNL     1       0.390   1.421  24.265  0.00  0.00    -0.270 N 
ATOM      7  C   UNL     1       0.453   2.186  24.566  0.00  0.00    +0.116 C 
ATOM      8  C   UNL     1      -0.177   2.308  25.085  0.00  0.00    +0.119 C 
ATOM      9  C   UNL     1      -0.629   1.618  25.105  0.00  0.00    +0.053 C 
ATOM     10  C   UNL     1      -0.279   1.069  24.598  0.00  0.00    +0.155 C 
ENDROOT
BRANCH   8  28
ATOM     28  N   UNL     1      -0.328   2.999  25.510  0.00  0.00    -0.187 NA
ATOM     29  C   UNL     1      -0.852   3.562  25.209  0.00  0.00    +0.339 C 
ATOM     30  O   UNL     1      -1.224   3.433  24.484  0.00  0.00    -0.249 OA
ATOM     31  N   UNL     1      -1.002   4.253  25.633  0.00  0.00    -0.189 NA
BRANCH  31  32
ATOM     32  C   UNL     1      -1.526   4.815  25.332  0.00  0.00    +0.097 C 
ATOM     33  C   UNL     1      -1.240   5.445  24.883  0.00  0.00    +0.023 C 
ATOM     34  C   UNL     1      -2.335   4.748  25.481  0.00  0.00    +0.023 C 
ENDBRANCH  31  32
ENDBRANCH   8  28
BRANCH  10  11
ATOM     11  C   UNL     1      -0.548   0.304  24.450  0.00  0.00    +0.260 C 
ATOM     12  O   UNL     1      -0.454  -0.028  23.700  0.00  0.00    -0.272 OA
ATOM     13  N   UNL     1      -0.913  -0.129  25.049  0.00  0.00    -0.196 NA
BRANCH  13  14
ATOM     14  C   UNL     1      -1.182  -0.894  24.900  0.00  0.00    +0.179 C 
BRANCH  14  25
ATOM     25  C   UNL     1      -0.719  -1.544  25.109  0.00  0.00    +0.281 C 
ATOM     26  N   UNL     1      -0.693  -2.206  24.616  0.00  0.00    -0.086 NA
ATOM     27  O   UNL     1      -0.282  -1.533  25.808  0.00  0.00    -0.270 OA
ENDBRANCH  14  25
BRANCH  14  15
ATOM     15  C   UNL     1      -1.917  -1.010  24.543  0.00  0.00    +0.059 C 
BRANCH  15  16
ATOM     16  C   UNL     1      -2.608  -0.948  24.990  0.00  0.00    +0.001 A 
ATOM     17  C   UNL     1      -2.701  -1.186  25.774  0.00  0.00    +0.095 A 
ATOM     18  N   UNL     1      -3.478  -1.022  26.000  0.00  0.00    -0.244 NA
ATOM     19  C   UNL     1      -3.864  -0.683  25.354  0.00  0.00    +0.081 A 
ATOM     20  C   UNL     1      -3.327  -0.637  24.730  0.00  0.00    +0.015 A 
ATOM     21  C   UNL     1      -3.561  -0.319  24.006  0.00  0.00    +0.001 A 
ATOM     22  C   UNL     1      -4.334  -0.046  23.907  0.00  0.00    +0.000 A 
ATOM     23  C   UNL     1      -4.871  -0.091  24.531  0.00  0.00    +0.002 A 
ATOM     24  C   UNL     1      -4.637  -0.410  25.255  0.00  0.00    +0.019 A 
ENDBRANCH  15  16
ENDBRANCH  14  15
ENDBRANCH  13  14
ENDBRANCH  10  11
BRANCH   4   3
ATOM      3  C   UNL     1       0.771   0.295  23.472  0.00  0.00    +0.143 C 
BRANCH   3   2
ATOM      1  C   UNL     1       1.853  -0.409  22.856  0.00  0.00    +0.070 C 
ATOM      2  S   UNL     1       1.145   0.012  22.793  0.00  0.00    -0.130 S 
ENDBRANCH   3   2
ENDBRANCH   4   3
TORSDOF 9
ENDMDL
MODEL 6
REMARK VINA RESULT:      -8.3      2.011      4.508
REMARK  Name = 
REMARK  9 active torsions:
REMARK  status: ('A' for Active; 'I' for Inactive)
REMARK    1  A    between atoms: S_2  and  C_3
REMARK    2  A    between atoms: C_3  and  C_4
REMARK    3  A    between atoms: C_8  and  N_28
REMARK    4  A    between atoms: C_10  and  C_11
REMARK    5  A    between atoms: N_13  and  C_14
REMARK    6  A    between atoms: C_14  and  C_15
REMARK    7  A    between atoms: C_14  and  C_25
REMARK    8  A    between atoms: C_15  and  C_16
REMARK    9  A    between atoms: N_31  and  C_32
REMARK                            x       y       z     vdW  Elec       q    Type
REMARK                         _______ _______ _______ _____ _____    ______ ____
ROOT
ATOM      4  C   UNL     1      -1.191   2.807  25.552  0.00  0.00    +0.237 C 
ATOM      5  O   UNL     1      -1.133   3.602  25.765  0.00  0.00    -0.274 OA
ATOM      6  N   UNL     1      -1.882   2.523  25.203  0.00  0.00    -0.270 N 
ATOM      7  C   UNL     1      -2.558   2.965  25.034  0.00  0.00    +0.116 C 
ATOM      8  C   UNL     1      -3.113   2.461  24.688  0.00  0.00    +0.119 C 
ATOM      9  C   UNL     1      -2.781   1.708  24.644  0.00  0.00    +0.053 C 
ATOM     10  C   UNL     1      -2.020   1.745  24.962  0.00  0.00    +0.155 C 
ENDROOT
BRANCH   8  28
ATOM     28  N   UNL     1      -3.867   2.675  24.432  0.00  0.00    -0.187 NA
ATOM     29  C   UNL     1      -4.529   2.462  24.877  0.00  0.00    +0.339 C 
ATOM     30  O   UNL     1      -4.436   2.037  25.578  0.00  0.00    -0.249 OA
ATOM     31  N   UNL     1      -5.283   2.676  24.621  0.00  0.00    -0.189 NA
BRANCH  31  32
ATOM     32  C   UNL     1      -5.945   2.463  25.067  0.00  0.00    +0.097 C 
ATOM     33  C   UNL     1      -6.179   2.930  25.705  0.00  0.00    +0.023 C 
ATOM     34  C   UNL     1      -6.372   1.785  24.873  0.00  0.00    +0.023 C 
ENDBRANCH  31  32
ENDBRANCH   8  28
BRANCH  10  11
ATOM     11  C   UNL     1      -1.490   1.117  25.028  0.00  0.00    +0.260 C 
ATOM     12  O   UNL     1      -0.984   1.071  25.678  0.00  0.00    -0.272 OA
ATOM     13  N   UNL     1      -1.465   0.534  24.445  0.00  0.00    -0.196 NA
BRANCH  13  14
ATOM     14  C   UNL     1      -0.935  -0.095  24.511  0.00  0.00    +0.179 C 
BRANCH  14  25
ATOM     25  C   UNL     1      -0.222  -0.079  24.098  0.00  0.00    +0.281 C 
ATOM     26  N   UNL     1      -0.199   0.215  23.327  0.00  0.00    -0.086 NA
ATOM     27  O   UNL     1       0.468  -0.356  24.454  0.00  0.00    -0.270 OA
ENDBRANCH  14  25
BRANCH  14  15
ATOM     15  C   UNL     1      -1.119  -0.740  24.992  0.00  0.00    +0.059 C 
BRANCH  15  16
ATOM     16  C   UNL     1      -1.513  -1.393  24.673  0.00  0.00    +0.001 A 
ATOM     17  C   UNL     1      -1.283  -1.818  24.006  0.00  0.00    +0.095 A 
ATOM     18  N   UNL     1      -1.834  -2.422  23.887  0.00  0.00    -0.244 NA
ATOM     19  C   UNL     1      -2.403  -2.368  24.482  0.00  0.00    +0.081 A 
ATOM     20  C   UNL     1      -2.204  -1.732  24.968  0.00  0.00    +0.015 A 
ATOM     21  C   UNL     1      -2.679  -1.543  25.616  0.00  0.00    +0.001 A 
ATOM     22  C   UNL     1      -3.353  -1.992  25.778  0.00  0.00    +0.000 A 
ATOM     23  C   UNL     1      -3.551  -2.628  25.292  0.00  0.00    +0.002 A 
ATOM     24  C   UNL     1      -3.076  -2.817  24.644  0.00  0.00    +0.019 A 
ENDBRANCH  15  16
ENDBRANCH  14  15
ENDBRANCH  13  14
ENDBRANCH  10  11
BRANCH   4   3
ATOM      3  C   UNL     1      -0.558   2.296  25.688  0.00  0.00    +0.143 C 
BRANCH   3   2
ATOM      1  C   UNL     1       0.421   2.470  26.716  0.00  0.00    +0.070 C 
ATOM      2  S   UNL     1       0.168   2.597  25.940  0.00  0.00    -0.130 S 
ENDBRANCH   3   2
ENDBRANCH   4   3
TORSDOF 9
ENDMDL
MODEL 7
REMARK VINA RESULT:      -8.2      1.766      4.706
REMARK  Name = 
REMARK  9 active torsions:
REMARK  status: ('A' for Active; 'I' for Inactive)
REMARK    1  A    between atoms: S_2  and  C_3
REMARK    2  A    between atoms: C_3  and  C_4
REMARK    3  A    between atoms: C_8  and  N_28
REMARK    4  A    between atoms: C_10  and  C_11
REMARK    5  A    between atoms: N_13  and  C_14
REMARK    6  A    between atoms: C_14  and  C_15
REMARK    7  A    between atoms: C_14  and  C_25
REMARK    8  A    between atoms: C_15  and  C_16
REMARK    9  A    between atoms: N_31  and  C_32
REMARK                            x       y       z     vdW  Elec       q    Type
REMARK                         _______ _______ _______ _____ _____    ______ ____
ROOT
ATOM      4  C   UNL     1      -5.100   2.717  25.545  0.00  0.00    +0.237 C 
ATOM      5  O   UNL     1      -5.607   3.133  26.046  0.00  0.00    -0.274 OA
ATOM      6  N   UNL     1      -4.313   2.950  25.468  0.00  0.00    -0.270 N 
ATOM      7  C   UNL     1      -3.955   3.584  25.856  0.00  0.00    +0.116 C 
ATOM      8  C   UNL     1      -3.165   3.616  25.617  0.00  0.00    +0.119 C 
ATOM      9  C   UNL     1      -3.035   3.001  25.083  0.00  0.00    +0.053 C 
ATOM     10  C   UNL     1      -3.744   2.589  24.990  0.00  0.00    +0.155 C 
ENDROOT
BRANCH   8  28
ATOM     28  N   UNL     1      -2.605   4.166  25.870  0.00  0.00    -0.187 NA
ATOM     29  C   UNL     1      -2.095   4.515  25.323  0.00  0.00    +0.339 C 
ATOM     30  O   UNL     1      -2.146   4.314  24.524  0.00  0.00    -0.249 OA
ATOM     31  N   UNL     1      -1.535   5.065  25.576  0.00  0.00    -0.189 NA
BRANCH  31  32
ATOM     32  C   UNL     1      -1.024   5.415  25.029  0.00  0.00    +0.097 C 
ATOM     33  C   UNL     1      -1.198   6.161  24.722  0.00  0.00    +0.023 C 
ATOM     34  C   UNL     1      -0.342   5.019  24.789  0.00  0.00    +0.023 C 
ENDBRANCH  31  32
ENDBRANCH   8  28
BRANCH  10  11
ATOM     11  C   UNL     1      -3.865   1.933  24.506  0.00  0.00    +0.260 C 
ATOM     12  O   UNL     1      -4.550   1.878  24.049  0.00  0.00    -0.272 OA
ATOM     13  N   UNL     1      -3.302   1.331  24.478  0.00  0.00    -0.196 NA
BRANCH  13  14
ATOM     14  C   UNL     1      -3.422   0.675  23.994  0.00  0.00    +0.179 C 
BRANCH  14  25
ATOM     25  C   UNL     1      -3.176   0.690  23.207  0.00  0.00    +0.281 C 
ATOM     26  N   UNL     1      -2.435   0.999  23.014  0.00  0.00    -0.086 NA
ATOM     27  O   UNL     1      -3.668   0.398  22.613  0.00  0.00    -0.270 OA
ENDBRANCH  14  25
BRANCH  14  15
ATOM     15  C   UNL     1      -3.790   0.000  24.296  0.00  0.00    +0.059 C 
BRANCH  15  16
ATOM     16  C   UNL     1      -3.340  -0.584  24.667  0.00  0.00    +0.001 A 
ATOM     17  C   UNL     1      -2.681  -0.457  25.145  0.00  0.00    +0.095 A 
ATOM     18  N   UNL     1      -2.404  -1.193  25.399  0.00  0.00    -0.244 NA
ATOM     19  C   UNL     1      -2.894  -1.773  25.076  0.00  0.00    +0.081 A 
ATOM     20  C   UNL     1      -3.472  -1.397  24.624  0.00  0.00    +0.015 A 
ATOM     21  C   UNL     1      -4.044  -1.843  24.231  0.00  0.00    +0.001 A 
ATOM     22  C   UNL     1      -4.037  -2.666  24.290  0.00  0.00    +0.000 A 
ATOM     23  C   UNL     1      -3.459  -3.042  24.742  0.00  0.00    +0.002 A 
ATOM     24  C   UNL     1      -2.887  -2.596  25.135  0.00  0.00    +0.019 A 
ENDBRANCH  15  16
ENDBRANCH  14  15
ENDBRANCH  13  14
ENDBRANCH  10  11
BRANCH   4   3
ATOM      3  C   UNL     1      -5.382   2.068  25.120  0.00  0.00    +0.143 C 
BRANCH   3   2
ATOM      1  C   UNL     1      -6.522   1.350  25.599  0.00  0.00    +0.070 C 
ATOM      2  S   UNL     1      -6.192   1.913  25.092  0.00  0.00    -0.130 S 
ENDBRANCH   3   2
ENDBRANCH   4   3
TORSDOF 9
ENDMDL
MODEL 8
REMARK VINA RESULT:      -8.2      2.275      4.856
REMARK  Name = 
REMARK  9 active torsions:
REMARK  status: ('A' for Active; 'I' for Inactive)
REMARK    1  A    between atoms: S_2  and  C_3
REMARK    2  A    between atoms: C_3  and  C_4
REMARK    3  A    between atoms: C_8  and  N_28
REMARK    4  A    between atoms: C_10  and  C_11
REMARK    5  A    between atoms: N_13  and  C_14
REMARK    6  A    between atoms: C_14  and  C_15
REMARK    7  A    between atoms: C_14  and  C_25
REMARK    8  A    between atoms: C_15  and  C_16
REMARK    9  A    between atoms: N_31  and  C_32
REMARK                            x       y       z     vdW  Elec       q    Type
REMARK                         _______ _______ _______ _____ _____    ______ ____
ROOT
ATOM      4  C   UNL     1      -0.418   2.296  24.872  0.00  0.00    +0.237 C 
ATOM      5  O   UNL     1       0.192   2.844  24.970  0.00  0.00    -0.274 OA
ATOM      6  N   UNL     1      -0.318   1.656  24.362  0.00  0.00    -0.270 N 
ATOM      7  C   UNL     1       0.355   1.492  23.914  0.00  0.00    +0.116 C 
ATOM      8  C   UNL     1       0.214   0.802  23.484  0.00  0.00    +0.119 C 
ATOM      9  C   UNL     1      -0.546   0.539  23.666  0.00  0.00    +0.053 C 
ATOM     10  C   UNL     1      -0.876   1.066  24.208  0.00  0.00    +0.155 C 
ENDROOT
BRANCH   8  28
ATOM     28  N   UNL     1       0.742   0.439  22.965  0.00  0.00    -0.187 NA
ATOM     29  C   UNL     1       1.554   0.472  23.112  0.00  0.00    +0.339 C 
ATOM     30  O   UNL     1       1.836   0.867  23.778  0.00  0.00    -0.249 OA
ATOM     31  N   UNL     1       2.081   0.109  22.592  0.00  0.00    -0.189 NA
BRANCH  31  32
ATOM     32  C   UNL     1       2.893   0.142  22.739  0.00  0.00    +0.097 C 
ATOM     33  C   UNL     1       3.334   0.784  22.469  0.00  0.00    +0.023 C 
ATOM     34  C   UNL     1       3.262  -0.467  23.155  0.00  0.00    +0.023 C 
ENDBRANCH  31  32
ENDBRANCH   8  28
BRANCH  10  11
ATOM     11  C   UNL     1      -1.629   1.015  24.539  0.00  0.00    +0.260 C 
ATOM     12  O   UNL     1      -1.738   1.170  25.343  0.00  0.00    -0.272 OA
ATOM     13  N   UNL     1      -2.274   0.808  24.069  0.00  0.00    -0.196 NA
BRANCH  13  14
ATOM     14  C   UNL     1      -3.028   0.757  24.400  0.00  0.00    +0.179 C 
BRANCH  14  25
ATOM     25  C   UNL     1      -3.567   1.372  24.298  0.00  0.00    +0.281 C 
ATOM     26  N   UNL     1      -4.054   1.600  24.925  0.00  0.00    -0.086 NA
ATOM     27  O   UNL     1      -3.620   1.760  23.573  0.00  0.00    -0.270 OA
ENDBRANCH  14  25
BRANCH  14  15
ATOM     15  C   UNL     1      -3.243   0.088  24.833  0.00  0.00    +0.059 C 
BRANCH  15  16
ATOM     16  C   UNL     1      -3.538  -0.578  24.445  0.00  0.00    +0.001 A 
ATOM     17  C   UNL     1      -3.922  -0.584  23.717  0.00  0.00    +0.095 A 
ATOM     18  N   UNL     1      -4.122  -1.365  23.539  0.00  0.00    -0.244 NA
ATOM     19  C   UNL     1      -3.859  -1.841  24.159  0.00  0.00    +0.081 A 
ATOM     20  C   UNL     1      -3.498  -1.355  24.719  0.00  0.00    +0.015 A 
ATOM     21  C   UNL     1      -3.180  -1.683  25.406  0.00  0.00    +0.001 A 
ATOM     22  C   UNL     1      -3.223  -2.497  25.533  0.00  0.00    +0.000 A 
ATOM     23  C   UNL     1      -3.584  -2.983  24.972  0.00  0.00    +0.002 A 
ATOM     24  C   UNL     1      -3.902  -2.656  24.285  0.00  0.00    +0.019 A 
ENDBRANCH  15  16
ENDBRANCH  14  15
ENDBRANCH  13  14
ENDBRANCH  10  11
BRANCH   4   3
ATOM      3  C   UNL     1      -1.126   2.388  25.285  0.00  0.00    +0.143 C 
BRANCH   3   2
ATOM      1  C   UNL     1      -1.528   3.675  25.761  0.00  0.00    +0.070 C 
ATOM      2  S   UNL     1      -1.178   2.940  25.897  0.00  0.00    -0.130 S 
ENDBRANCH   3   2
ENDBRANCH   4   3
TORSDOF 9
ENDMDL
MODEL 9
REMARK VINA RESULT:      -7.9      2.167      4.164
REMARK  Name = 
REMARK  9 active torsions:
REMARK  status: ('A' for Active; 'I' for Inactive)
REMARK    1  A    between atoms: S_2  and  C_3
REMARK    2  A    between atoms: C_3  and  C_4
REMARK    3  A    between atoms: C_8  and  N_28
REMARK    4  A    between atoms: C_10  and  C_11
REMARK    5  A    between atoms: N_13  and  C_14
REMARK    6  A    between atoms: C_14  and  C_15
REMARK    7  A    between atoms: C_14  and  C_25
REMARK    8  A    between atoms: C_15  and  C_16
REMARK    9  A    between atoms: N_31  and  C_32
REMARK                            x       y       z     vdW  Elec       q    Type
REMARK                         _______ _______ _______ _____ _____    ______ ____
ROOT
ATOM      4  C   UNL     1      -4.016  -1.096  24.256  0.00  0.00    +0.237 C 
ATOM      5  O   UNL     1      -4.802  -1.345  24.217  0.00  0.00    -0.274 OA
ATOM      6  N   UNL     1      -3.837  -0.291  24.228  0.00  0.00    -0.270 N 
ATOM      7  C   UNL     1      -4.381   0.325  24.163  0.00  0.00    +0.116 C 
ATOM      8  C   UNL     1      -3.962   1.036  24.156  0.00  0.00    +0.119 C 
ATOM      9  C   UNL     1      -3.159   0.859  24.216  0.00  0.00    +0.053 C 
ATOM     10  C   UNL     1      -3.081   0.039  24.261  0.00  0.00    +0.155 C 
ENDROOT
BRANCH   8  28
ATOM     28  N   UNL     1      -4.289   1.791  24.098  0.00  0.00    -0.187 NA
ATOM     29  C   UNL     1      -4.489   2.206  24.783  0.00  0.00    +0.339 C 
ATOM     30  O   UNL     1      -4.361   1.867  25.524  0.00  0.00    -0.249 OA
ATOM     31  N   UNL     1      -4.817   2.961  24.726  0.00  0.00    -0.189 NA
BRANCH  31  32
ATOM     32  C   UNL     1      -5.017   3.377  25.410  0.00  0.00    +0.097 C 
ATOM     33  C   UNL     1      -5.782   3.329  25.713  0.00  0.00    +0.023 C 
ATOM     34  C   UNL     1      -4.450   3.841  25.792  0.00  0.00    +0.023 C 
ENDBRANCH  31  32
ENDBRANCH   8  28
BRANCH  10  11
ATOM     11  C   UNL     1      -2.373  -0.379  24.326  0.00  0.00    +0.260 C 
ATOM     12  O   UNL     1      -2.301  -1.126  23.981  0.00  0.00    -0.272 OA
ATOM     13  N   UNL     1      -1.736  -0.052  24.736  0.00  0.00    -0.196 NA
BRANCH  13  14
ATOM     14  C   UNL     1      -1.028  -0.470  24.802  0.00  0.00    +0.179 C 
BRANCH  14  25
ATOM     25  C   UNL     1      -0.842  -0.859  25.504  0.00  0.00    +0.281 C 
ATOM     26  N   UNL     1      -1.016  -0.507  26.230  0.00  0.00    -0.086 NA
ATOM     27  O   UNL     1      -0.481  -1.601  25.482  0.00  0.00    -0.270 OA
ENDBRANCH  14  25
BRANCH  14  15
ATOM     15  C   UNL     1      -0.505  -0.498  24.163  0.00  0.00    +0.059 C 
BRANCH  15  16
ATOM     16  C   UNL     1       0.035   0.115  24.045  0.00  0.00    +0.001 A 
ATOM     17  C   UNL     1       0.031   0.844  24.429  0.00  0.00    +0.095 A 
ATOM     18  N   UNL     1       0.667   1.286  24.143  0.00  0.00    -0.244 NA
ATOM     19  C   UNL     1       1.062   0.828  23.581  0.00  0.00    +0.081 A 
ATOM     20  C   UNL     1       0.672   0.105  23.521  0.00  0.00    +0.015 A 
ATOM     21  C   UNL     1       0.946  -0.470  22.997  0.00  0.00    +0.001 A 
ATOM     22  C   UNL     1       1.612  -0.321  22.533  0.00  0.00    +0.000 A 
ATOM     23  C   UNL     1       2.003   0.403  22.593  0.00  0.00    +0.002 A 
ATOM     24  C   UNL     1       1.729   0.978  23.117  0.00  0.00    +0.019 A 
ENDBRANCH  15  16
ENDBRANCH  14  15
ENDBRANCH  13  14
ENDBRANCH  10  11
BRANCH   4   3
ATOM      3  C   UNL     1      -3.411  -1.652  24.321  0.00  0.00    +0.143 C 
BRANCH   3   2
ATOM      1  C   UNL     1      -3.534  -2.970  24.862  0.00  0.00    +0.070 C 
ATOM      2  S   UNL     1      -3.573  -2.454  24.218  0.00  0.00    -0.130 S 
ENDBRANCH   3   2
ENDBRANCH   4   3
TORSDOF 9
ENDMDL
