MODEL 1
REMARK VINA RESULT:     -11.5      0.000      0.000
REMARK  Name = 
REMARK  4 active torsions:
REMARK  status: ('A' for Active; 'I' for Inactive)
REMARK    1  A    between atoms: N_4  and  C_5
REMARK    2  A    between atoms: C_5  and  C_6
REMARK    3  A    between atoms: C_8  and  C_9
REMARK    4  A    between atoms: C_9  and  C_10
REMARK                            x       y       z     vdW  Elec       q    Type
REMARK                         _______ _______ _______ _____ _____    ______ ____
ROOT
ATOM      6  C   UNL     1      -3.969   2.826  25.169  0.00  0.00    +0.170 C 
ATOM      7  O   UNL     1      -3.785   2.065  24.911  0.00  0.00    -0.351 OA
ATOM      8  C   UNL     1      -4.494   1.666  24.768  0.00  0.00    +0.157 C 
ATOM     21  C   UNL     1      -5.116   2.182  24.937  0.00  0.00    +0.212 C 
ATOM     22  O   UNL     1      -5.920   2.011  24.870  0.00  0.00    -0.218 OA
ATOM     23  C   UNL     1      -4.791   2.899  25.185  0.00  0.00    +0.213 C 
ATOM     24  O   UNL     1      -5.215   3.571  25.409  0.00  0.00    -0.218 OA
ENDROOT
BRANCH   6   5
ATOM      5  C   UNL     1      -3.427   3.413  25.374  0.00  0.00    +0.147 C 
BRANCH   5   4
ATOM      1  C   UNL     1      -1.302   3.852  25.139  0.00  0.00    +0.096 C 
ATOM      2  C   UNL     1      -2.093   3.922  25.366  0.00  0.00    +0.242 C 
ATOM      3  O   UNL     1      -2.337   4.571  25.812  0.00  0.00    -0.273 OA
ATOM      4  N   UNL     1      -2.637   3.343  25.147  0.00  0.00    -0.203 NA
ENDBRANCH   5   4
ENDBRANCH   6   5
BRANCH   8   9
ATOM      9  C   UNL     1      -4.567   0.888  24.502  0.00  0.00    +0.118 C 
BRANCH   9  10
ATOM     10  C   UNL     1      -4.220   0.273  24.928  0.00  0.00    +0.232 C 
ATOM     11  O   UNL     1      -3.960   0.400  25.700  0.00  0.00    -0.274 OA
ATOM     12  N   UNL     1      -4.133  -0.471  24.580  0.00  0.00    -0.259 N 
ATOM     13  C   UNL     1      -4.366  -0.680  23.817  0.00  0.00    +0.103 C 
ATOM     14  C   UNL     1      -4.174  -1.474  23.700  0.00  0.00    +0.049 C 
ATOM     15  C   UNL     1      -3.824  -1.756  24.392  0.00  0.00    -0.007 A 
ATOM     16  C   UNL     1      -3.524  -2.496  24.597  0.00  0.00    -0.003 A 
ATOM     17  C   UNL     1      -3.200  -2.618  25.345  0.00  0.00    -0.000 A 
ATOM     18  C   UNL     1      -3.174  -1.998  25.889  0.00  0.00    +0.001 A 
ATOM     19  C   UNL     1      -3.473  -1.257  25.685  0.00  0.00    +0.015 A 
ATOM     20  C   UNL     1      -3.798  -1.136  24.935  0.00  0.00    +0.050 A 
ENDBRANCH   9  10
ENDBRANCH   8   9
TORSDOF 4
ENDMDL
MODEL 2
REMARK VINA RESULT:     -10.8      1.366      2.392
REMARK  Name = 
REMARK  4 active torsions:
REMARK  status: ('A' for Active; 'I' for Inactive)
REMARK    1  A    between atoms: N_4  and  C_5
REMARK    2  A    between atoms: C_5  and  C_6
REMARK    3  A    between atoms: C_8  and  C_9
REMARK    4  A    between atoms: C_9  and  C_10
REMARK                            x       y       z     vdW  Elec       q    Type
REMARK                         _______ _______ _______ _____ _____    ______ ____
ROOT
ATOM      6  C   UNL     1      -3.170   2.601  24.935  0.00  0.00    +0.170 C 
ATOM      7  O   UNL     1      -3.189   1.776  24.929  0.00  0.00    -0.351 OA
ATOM      8  C   UNL     1      -2.445   1.505  24.698  0.00  0.00    +0.157 C 
ATOM     21  C   UNL     1      -1.965   2.163  24.561  0.00  0.00    +0.212 C 
ATOM     22  O   UNL     1      -1.177   2.147  24.320  0.00  0.00    -0.218 OA
ATOM     23  C   UNL     1      -2.414   2.840  24.708  0.00  0.00    +0.213 C 
ATOM     24  O   UNL     1      -2.152   3.620  24.640  0.00  0.00    -0.218 OA
ENDROOT
BRANCH   6   5
ATOM      5  C   UNL     1      -3.797   3.099  25.134  0.00  0.00    +0.147 C 
BRANCH   5   4
ATOM      1  C   UNL     1      -5.873   2.955  25.793  0.00  0.00    +0.096 C 
ATOM      2  C   UNL     1      -5.156   3.274  25.537  0.00  0.00    +0.242 C 
ATOM      3  O   UNL     1      -5.083   4.089  25.431  0.00  0.00    -0.273 OA
ATOM      4  N   UNL     1      -4.514   2.779  25.389  0.00  0.00    -0.203 NA
ENDBRANCH   5   4
ENDBRANCH   6   5
BRANCH   8   9
ATOM      9  C   UNL     1      -2.219   0.715  24.617  0.00  0.00    +0.118 C 
BRANCH   9  10
ATOM     10  C   UNL     1      -2.766   0.156  24.356  0.00  0.00    +0.232 C 
ATOM     11  O   UNL     1      -3.363   0.375  23.832  0.00  0.00    -0.274 OA
ATOM     12  N   UNL     1      -2.714  -0.625  24.619  0.00  0.00    -0.259 N 
ATOM     13  C   UNL     1      -2.149  -0.924  25.141  0.00  0.00    +0.103 C 
ATOM     14  C   UNL     1      -2.304  -1.727  25.251  0.00  0.00    +0.049 C 
ATOM     15  C   UNL     1      -2.965  -1.924  24.798  0.00  0.00    -0.007 A 
ATOM     16  C   UNL     1      -3.369  -2.635  24.690  0.00  0.00    -0.003 A 
ATOM     17  C   UNL     1      -4.025  -2.665  24.192  0.00  0.00    -0.000 A 
ATOM     18  C   UNL     1      -4.278  -1.984  23.801  0.00  0.00    +0.001 A 
ATOM     19  C   UNL     1      -3.875  -1.272  23.909  0.00  0.00    +0.015 A 
ATOM     20  C   UNL     1      -3.218  -1.242  24.407  0.00  0.00    +0.050 A 
ENDBRANCH   9  10
ENDBRANCH   8   9
TORSDOF 4
ENDMDL
MODEL 3
REMARK VINA RESULT:     -10.5      1.925      2.890
REMARK  Name = 
REMARK  4 active torsions:
REMARK  status: ('A' for Active; 'I' for Inactive)
REMARK    1  A    between atoms: N_4  and  C_5
REMARK    2  A    between atoms: C_5  and  C_6
REMARK    3  A    between atoms: C_8  and  C_9
REMARK    4  A    between atoms: C_9  and  C_10
REMARK                            x       y       z     vdW  Elec       q    Type
REMARK                         _______ _______ _______ _____ _____    ______ ____
ROOT
ATOM      6  C   UNL     1      -1.120   2.266  24.939  0.00  0.00    +0.170 C 
ATOM      7  O   UNL     1      -1.529   1.576  25.130  0.00  0.00    -0.351 OA
ATOM      8  C   UNL     1      -1.098   0.935  24.839  0.00  0.00    +0.157 C 
ATOM     21  C   UNL     1      -0.422   1.230  24.468  0.00  0.00    +0.212 C 
ATOM     22  O   UNL     1       0.164   0.781  24.100  0.00  0.00    -0.218 OA
ATOM     23  C   UNL     1      -0.436   2.052  24.530  0.00  0.00    +0.213 C 
ATOM     24  O   UNL     1       0.135   2.570  24.235  0.00  0.00    -0.218 OA
ENDROOT
BRANCH   6   5
ATOM      5  C   UNL     1      -1.353   3.035  25.124  0.00  0.00    +0.147 C 
BRANCH   5   4
ATOM      1  C   UNL     1      -2.951   4.061  26.201  0.00  0.00    +0.096 C 
ATOM      2  C   UNL     1      -2.278   3.933  25.741  0.00  0.00    +0.242 C 
ATOM      3  O   UNL     1      -1.858   4.575  25.438  0.00  0.00    -0.273 OA
ATOM      4  N   UNL     1      -2.026   3.164  25.584  0.00  0.00    -0.203 NA
ENDBRANCH   5   4
ENDBRANCH   6   5
BRANCH   8   9
ATOM      9  C   UNL     1      -1.306   0.139  24.906  0.00  0.00    +0.118 C 
BRANCH   9  10
ATOM     10  C   UNL     1      -2.045  -0.117  24.643  0.00  0.00    +0.232 C 
ATOM     11  O   UNL     1      -2.586   0.426  24.337  0.00  0.00    -0.274 OA
ATOM     12  N   UNL     1      -2.243  -0.917  24.686  0.00  0.00    -0.259 N 
ATOM     13  C   UNL     1      -1.762  -1.520  24.977  0.00  0.00    +0.103 C 
ATOM     14  C   UNL     1      -2.178  -2.231  24.916  0.00  0.00    +0.049 C 
ATOM     15  C   UNL     1      -2.916  -2.065  24.588  0.00  0.00    -0.007 A 
ATOM     16  C   UNL     1      -3.558  -2.549  24.399  0.00  0.00    -0.003 A 
ATOM     17  C   UNL     1      -4.238  -2.222  24.069  0.00  0.00    -0.000 A 
ATOM     18  C   UNL     1      -4.278  -1.410  23.927  0.00  0.00    +0.001 A 
ATOM     19  C   UNL     1      -3.638  -0.926  24.115  0.00  0.00    +0.015 A 
ATOM     20  C   UNL     1      -2.956  -1.254  24.445  0.00  0.00    +0.050 A 
ENDBRANCH   9  10
ENDBRANCH   8   9
TORSDOF 4
ENDMDL
MODEL 4
REMARK VINA RESULT:     -10.3      1.920      4.416
REMARK  Name = 
REMARK  4 active torsions:
REMARK  status: ('A' for Active; 'I' for Inactive)
REMARK    1  A    between atoms: N_4  and  C_5
REMARK    2  A    between atoms: C_5  and  C_6
REMARK    3  A    between atoms: C_8  and  C_9
REMARK    4  A    between atoms: C_9  and  C_10
REMARK                            x       y       z     vdW  Elec       q    Type
REMARK                         _______ _______ _______ _____ _____    ______ ____
ROOT
ATOM      6  C   UNL     1      -2.698  -1.291  24.672  0.00  0.00    +0.170 C 
ATOM      7  O   UNL     1      -3.067  -0.562  24.781  0.00  0.00    -0.351 OA
ATOM      8  C   UNL     1      -3.850  -0.632  24.530  0.00  0.00    +0.157 C 
ATOM     21  C   UNL     1      -3.964  -1.405  24.266  0.00  0.00    +0.212 C 
ATOM     22  O   UNL     1      -4.668  -1.716  23.966  0.00  0.00    -0.218 OA
ATOM     23  C   UNL     1      -3.253  -1.812  24.353  0.00  0.00    +0.213 C 
ATOM     24  O   UNL     1      -3.119  -2.603  24.156  0.00  0.00    -0.218 OA
ENDROOT
BRANCH   6   5
ATOM      5  C   UNL     1      -1.912  -1.469  24.849  0.00  0.00    +0.147 C 
BRANCH   5   4
ATOM      1  C   UNL     1       0.082  -0.696  24.412  0.00  0.00    +0.096 C 
ATOM      2  C   UNL     1      -0.529  -1.123  24.768  0.00  0.00    +0.242 C 
ATOM      3  O   UNL     1      -0.364  -1.628  25.399  0.00  0.00    -0.273 OA
ATOM      4  N   UNL     1      -1.301  -1.043  24.493  0.00  0.00    -0.203 NA
ENDBRANCH   5   4
ENDBRANCH   6   5
BRANCH   8   9
ATOM      9  C   UNL     1      -4.418  -0.033  24.542  0.00  0.00    +0.118 C 
BRANCH   9  10
ATOM     10  C   UNL     1      -4.195   0.750  24.415  0.00  0.00    +0.232 C 
ATOM     11  O   UNL     1      -3.565   0.923  23.911  0.00  0.00    -0.274 OA
ATOM     12  N   UNL     1      -4.601   1.361  24.793  0.00  0.00    -0.259 N 
ATOM     13  C   UNL     1      -5.238   1.273  25.309  0.00  0.00    +0.103 C 
ATOM     14  C   UNL     1      -5.472   2.025  25.556  0.00  0.00    +0.049 C 
ATOM     15  C   UNL     1      -4.980   2.577  25.192  0.00  0.00    -0.007 A 
ATOM     16  C   UNL     1      -4.951   3.401  25.228  0.00  0.00    -0.003 A 
ATOM     17  C   UNL     1      -4.386   3.815  24.793  0.00  0.00    -0.000 A 
ATOM     18  C   UNL     1      -3.847   3.404  24.322  0.00  0.00    +0.001 A 
ATOM     19  C   UNL     1      -3.875   2.581  24.285  0.00  0.00    +0.015 A 
ATOM     20  C   UNL     1      -4.441   2.167  24.720  0.00  0.00    +0.050 A 
ENDBRANCH   9  10
ENDBRANCH   8   9
TORSDOF 4
ENDMDL
MODEL 5
REMARK VINA RESULT:     -10.1      1.557      4.769
REMARK  Name = 
REMARK  4 active torsions:
REMARK  status: ('A' for Active; 'I' for Inactive)
REMARK    1  A    between atoms: N_4  and  C_5
REMARK    2  A    between atoms: C_5  and  C_6
REMARK    3  A    between atoms: C_8  and  C_9
REMARK    4  A    between atoms: C_9  and  C_10
REMARK                            x       y       z     vdW  Elec       q    Type
REMARK                         _______ _______ _______ _____ _____    ______ ____
ROOT
ATOM      6  C   UNL     1      -3.078  -0.205  24.679  0.00  0.00    +0.170 C 
ATOM      7  O   UNL     1      -2.818   0.560  24.845  0.00  0.00    -0.351 OA
ATOM      8  C   UNL     1      -3.476   1.059  24.839  0.00  0.00    +0.157 C 
ATOM     21  C   UNL     1      -4.141   0.602  24.668  0.00  0.00    +0.212 C 
ATOM     22  O   UNL     1      -4.916   0.877  24.608  0.00  0.00    -0.218 OA
ATOM     23  C   UNL     1      -3.895  -0.179  24.569  0.00  0.00    +0.213 C 
ATOM     24  O   UNL     1      -4.382  -0.822  24.392  0.00  0.00    -0.218 OA
ENDROOT
BRANCH   6   5
ATOM      5  C   UNL     1      -2.603  -0.878  24.630  0.00  0.00    +0.147 C 
BRANCH   5   4
ATOM      1  C   UNL     1      -0.622  -1.546  25.256  0.00  0.00    +0.096 C 
ATOM      2  C   UNL     1      -1.360  -1.532  24.886  0.00  0.00    +0.242 C 
ATOM      3  O   UNL     1      -1.590  -2.161  24.404  0.00  0.00    -0.273 OA
ATOM      4  N   UNL     1      -1.865  -0.892  24.999  0.00  0.00    -0.203 NA
ENDBRANCH   5   4
ENDBRANCH   6   5
BRANCH   8   9
ATOM      9  C   UNL     1      -3.469   1.872  24.979  0.00  0.00    +0.118 C 
BRANCH   9  10
ATOM     10  C   UNL     1      -2.792   2.313  24.810  0.00  0.00    +0.232 C 
ATOM     11  O   UNL     1      -2.209   2.002  24.316  0.00  0.00    -0.274 OA
ATOM     12  N   UNL     1      -2.699   3.067  25.134  0.00  0.00    -0.259 N 
ATOM     13  C   UNL     1      -3.233   3.448  25.634  0.00  0.00    +0.103 C 
ATOM     14  C   UNL     1      -2.920   4.187  25.825  0.00  0.00    +0.049 C 
ATOM     15  C   UNL     1      -2.194   4.262  25.443  0.00  0.00    -0.007 A 
ATOM     16  C   UNL     1      -1.638   4.872  25.428  0.00  0.00    -0.003 A 
ATOM     17  C   UNL     1      -0.946   4.789  24.986  0.00  0.00    -0.000 A 
ATOM     18  C   UNL     1      -0.810   4.097  24.560  0.00  0.00    +0.001 A 
ATOM     19  C   UNL     1      -1.365   3.487  24.574  0.00  0.00    +0.015 A 
ATOM     20  C   UNL     1      -2.057   3.570  25.016  0.00  0.00    +0.050 A 
ENDBRANCH   9  10
ENDBRANCH   8   9
TORSDOF 4
ENDMDL
MODEL 6
REMARK VINA RESULT:     -10.0      2.361      5.194
REMARK  Name = 
REMARK  4 active torsions:
REMARK  status: ('A' for Active; 'I' for Inactive)
REMARK    1  A    between atoms: N_4  and  C_5
REMARK    2  A    between atoms: C_5  and  C_6
REMARK    3  A    between atoms: C_8  and  C_9
REMARK    4  A    between atoms: C_9  and  C_10
REMARK                            x       y       z     vdW  Elec       q    Type
REMARK                         _______ _______ _______ _____ _____    ______ ____
ROOT
ATOM      6  C   UNL     1      -1.074  -0.428  24.514  0.00  0.00    +0.170 C 
ATOM      7  O   UNL     1      -1.475   0.247  24.767  0.00  0.00    -0.351 OA
ATOM      8  C   UNL     1      -1.017   0.905  24.567  0.00  0.00    +0.157 C 
ATOM     21  C   UNL     1      -0.333   0.635  24.192  0.00  0.00    +0.212 C 
ATOM     22  O   UNL     1       0.278   1.106  23.901  0.00  0.00    -0.218 OA
ATOM     23  C   UNL     1      -0.368  -0.188  24.159  0.00  0.00    +0.213 C 
ATOM     24  O   UNL     1       0.202  -0.685  23.829  0.00  0.00    -0.218 OA
ENDROOT
BRANCH   6   5
ATOM      5  C   UNL     1      -1.332  -1.207  24.602  0.00  0.00    +0.147 C 
BRANCH   5   4
ATOM      1  C   UNL     1      -3.204  -2.308  24.819  0.00  0.00    +0.096 C 
ATOM      2  C   UNL     1      -2.400  -2.147  24.727  0.00  0.00    +0.242 C 
ATOM      3  O   UNL     1      -1.860  -2.769  24.670  0.00  0.00    -0.273 OA
ATOM      4  N   UNL     1      -2.137  -1.367  24.693  0.00  0.00    -0.203 NA
ENDBRANCH   5   4
ENDBRANCH   6   5
BRANCH   8   9
ATOM      9  C   UNL     1      -1.210   1.693  24.717  0.00  0.00    +0.118 C 
BRANCH   9  10
ATOM     10  C   UNL     1      -1.991   1.948  24.642  0.00  0.00    +0.232 C 
ATOM     11  O   UNL     1      -2.512   1.542  24.147  0.00  0.00    -0.274 OA
ATOM     12  N   UNL     1      -2.251   2.609  25.062  0.00  0.00    -0.259 N 
ATOM     13  C   UNL     1      -1.796   3.067  25.575  0.00  0.00    +0.103 C 
ATOM     14  C   UNL     1      -2.276   3.669  25.873  0.00  0.00    +0.049 C 
ATOM     15  C   UNL     1      -3.027   3.582  25.544  0.00  0.00    -0.007 A 
ATOM     16  C   UNL     1      -3.724   4.015  25.635  0.00  0.00    -0.003 A 
ATOM     17  C   UNL     1      -4.404   3.793  25.226  0.00  0.00    -0.000 A 
ATOM     18  C   UNL     1      -4.389   3.138  24.725  0.00  0.00    +0.001 A 
ATOM     19  C   UNL     1      -3.693   2.704  24.633  0.00  0.00    +0.015 A 
ATOM     20  C   UNL     1      -3.012   2.927  25.043  0.00  0.00    +0.050 A 
ENDBRANCH   9  10
ENDBRANCH   8   9
TORSDOF 4
ENDMDL
