MODEL 1
REMARK VINA RESULT:     -12.2      0.000      0.000
REMARK  Name = 
REMARK  6 active torsions:
REMARK  status: ('A' for Active; 'I' for Inactive)
REMARK    1  A    between atoms: C_2  and  C_3
REMARK    2  A    between atoms: C_5  and  C_6
REMARK    3  A    between atoms: C_6  and  N_7
REMARK    4  A    between atoms: C_8  and  C_10
REMARK    5  A    between atoms: C_16  and  N_19
REMARK    6  A    between atoms: N_22  and  C_25
REMARK                            x       y       z     vdW  Elec       q    Type
REMARK                         _______ _______ _______ _____ _____    ______ ____
ROOT
ATOM      3  C   UNL     1      -5.842   1.921  25.154  0.00  0.00    +0.180 C 
ATOM      4  O   UNL     1      -5.399   1.250  24.972  0.00  0.00    -0.350 OA
ATOM      5  C   UNL     1      -4.609   1.478  24.897  0.00  0.00    +0.154 C 
ATOM     16  C   UNL     1      -4.565   2.290  25.033  0.00  0.00    +0.120 C 
ATOM     17  C   UNL     1      -5.327   2.564  25.192  0.00  0.00    +0.198 C 
ATOM     18  O   UNL     1      -5.536   3.345  25.359  0.00  0.00    -0.219 OA
ENDROOT
BRANCH  16  19
ATOM     19  N   UNL     1      -3.879   2.748  25.013  0.00  0.00    -0.267 NA
ATOM     20  C   UNL     1      -3.439   2.862  25.702  0.00  0.00    +0.094 C 
ATOM     21  C   UNL     1      -2.753   3.320  25.683  0.00  0.00    +0.108 C 
ATOM     22  N   UNL     1      -2.508   3.665  24.974  0.00  0.00    -0.305 N 
ATOM     23  C   UNL     1      -2.947   3.551  24.286  0.00  0.00    +0.108 C 
ATOM     24  C   UNL     1      -3.633   3.093  24.305  0.00  0.00    +0.094 C 
BRANCH  22  25
ATOM     25  C   UNL     1      -1.821   4.123  24.955  0.00  0.00    +0.048 A 
ATOM     26  C   UNL     1      -1.868   4.940  25.060  0.00  0.00    +0.015 A 
ATOM     27  C   UNL     1      -1.182   5.398  25.040  0.00  0.00    +0.001 A 
ATOM     28  C   UNL     1      -0.449   5.039  24.916  0.00  0.00    +0.000 A 
ATOM     29  C   UNL     1      -0.404   4.222  24.811  0.00  0.00    +0.001 A 
ATOM     30  C   UNL     1      -1.089   3.765  24.830  0.00  0.00    +0.015 A 
ENDBRANCH  22  25
ENDBRANCH  16  19
BRANCH   3   2
ATOM      1  O   UNL     1      -7.168   1.608  24.723  0.00  0.00    -0.218 OA
ATOM      2  C   UNL     1      -6.657   1.945  25.277  0.00  0.00    +0.214 C 
ENDBRANCH   3   2
BRANCH   5   6
ATOM      6  C   UNL     1      -3.976   0.980  24.718  0.00  0.00    +0.146 C 
BRANCH   6   7
ATOM      7  N   UNL     1      -4.084   0.163  24.706  0.00  0.00    -0.199 NA
ATOM      8  C   UNL     1      -3.466  -0.332  24.473  0.00  0.00    +0.265 C 
ATOM      9  O   UNL     1      -2.740  -0.009  24.253  0.00  0.00    -0.268 OA
BRANCH   8  10
ATOM     10  C   UNL     1      -3.574  -1.150  24.462  0.00  0.00    +0.055 A 
ATOM     11  C   UNL     1      -4.020  -1.498  23.863  0.00  0.00    +0.005 A 
ATOM     12  C   UNL     1      -4.129  -2.317  23.851  0.00  0.00    +0.000 A 
ATOM     13  C   UNL     1      -3.791  -2.785  24.440  0.00  0.00    +0.000 A 
ATOM     14  C   UNL     1      -3.344  -2.436  25.040  0.00  0.00    +0.000 A 
ATOM     15  C   UNL     1      -3.236  -1.619  25.051  0.00  0.00    +0.005 A 
ENDBRANCH   8  10
ENDBRANCH   6   7
ENDBRANCH   5   6
TORSDOF 6
ENDMDL
MODEL 2
REMARK VINA RESULT:     -12.0      0.889      4.982
REMARK  Name = 
REMARK  6 active torsions:
REMARK  status: ('A' for Active; 'I' for Inactive)
REMARK    1  A    between atoms: C_2  and  C_3
REMARK    2  A    between atoms: C_5  and  C_6
REMARK    3  A    between atoms: C_6  and  N_7
REMARK    4  A    between atoms: C_8  and  C_10
REMARK    5  A    between atoms: C_16  and  N_19
REMARK    6  A    between atoms: N_22  and  C_25
REMARK                            x       y       z     vdW  Elec       q    Type
REMARK                         _______ _______ _______ _____ _____    ______ ____
ROOT
ATOM      3  C   UNL     1      -5.327   2.934  25.301  0.00  0.00    +0.180 C 
ATOM      4  O   UNL     1      -4.528   3.138  25.327  0.00  0.00    -0.350 OA
ATOM      5  C   UNL     1      -4.085   2.455  25.193  0.00  0.00    +0.154 C 
ATOM     16  C   UNL     1      -4.610   1.828  25.085  0.00  0.00    +0.120 C 
ATOM     17  C   UNL     1      -5.378   2.124  25.151  0.00  0.00    +0.198 C 
ATOM     18  O   UNL     1      -6.074   1.686  25.080  0.00  0.00    -0.219 OA
ENDROOT
BRANCH  16  19
ATOM     19  N   UNL     1      -4.405   1.043  24.937  0.00  0.00    -0.267 NA
ATOM     20  C   UNL     1      -4.206   0.807  24.171  0.00  0.00    +0.094 C 
ATOM     21  C   UNL     1      -4.000   0.021  24.022  0.00  0.00    +0.108 C 
ATOM     22  N   UNL     1      -3.993  -0.527  24.639  0.00  0.00    -0.305 N 
ATOM     23  C   UNL     1      -4.191  -0.290  25.403  0.00  0.00    +0.108 C 
ATOM     24  C   UNL     1      -4.397   0.495  25.552  0.00  0.00    +0.094 C 
BRANCH  22  25
ATOM     25  C   UNL     1      -3.787  -1.312  24.490  0.00  0.00    +0.048 A 
ATOM     26  C   UNL     1      -4.255  -1.773  23.992  0.00  0.00    +0.015 A 
ATOM     27  C   UNL     1      -4.049  -2.559  23.843  0.00  0.00    +0.001 A 
ATOM     28  C   UNL     1      -3.375  -2.882  24.192  0.00  0.00    +0.000 A 
ATOM     29  C   UNL     1      -2.907  -2.420  24.690  0.00  0.00    +0.001 A 
ATOM     30  C   UNL     1      -3.113  -1.635  24.839  0.00  0.00    +0.015 A 
ENDBRANCH  22  25
ENDBRANCH  16  19
BRANCH   3   2
ATOM      1  O   UNL     1      -5.845   4.182  25.764  0.00  0.00    -0.218 OA
ATOM      2  C   UNL     1      -5.962   3.448  25.405  0.00  0.00    +0.214 C 
ENDBRANCH   3   2
BRANCH   5   6
ATOM      6  C   UNL     1      -3.262   2.407  25.172  0.00  0.00    +0.146 C 
BRANCH   6   7
ATOM      7  N   UNL     1      -2.813   3.085  25.036  0.00  0.00    -0.199 NA
ATOM      8  C   UNL     1      -2.009   3.092  25.222  0.00  0.00    +0.265 C 
ATOM      9  O   UNL     1      -1.654   2.421  25.544  0.00  0.00    -0.268 OA
BRANCH   8  10
ATOM     10  C   UNL     1      -1.560   3.771  25.085  0.00  0.00    +0.055 A 
ATOM     11  C   UNL     1      -1.838   4.506  25.332  0.00  0.00    +0.005 A 
ATOM     12  C   UNL     1      -1.389   5.186  25.195  0.00  0.00    +0.000 A 
ATOM     13  C   UNL     1      -0.661   5.127  24.811  0.00  0.00    +0.000 A 
ATOM     14  C   UNL     1      -0.383   4.391  24.564  0.00  0.00    +0.000 A 
ATOM     15  C   UNL     1      -0.832   3.713  24.701  0.00  0.00    +0.005 A 
ENDBRANCH   8  10
ENDBRANCH   6   7
ENDBRANCH   5   6
TORSDOF 6
ENDMDL
MODEL 3
REMARK VINA RESULT:     -11.4      2.224      3.701
REMARK  Name = 
REMARK  6 active torsions:
REMARK  status: ('A' for Active; 'I' for Inactive)
REMARK    1  A    between atoms: C_2  and  C_3
REMARK    2  A    between atoms: C_5  and  C_6
REMARK    3  A    between atoms: C_6  and  N_7
REMARK    4  A    between atoms: C_8  and  C_10
REMARK    5  A    between atoms: C_16  and  N_19
REMARK    6  A    between atoms: N_22  and  C_25
REMARK                            x       y       z     vdW  Elec       q    Type
REMARK                         _______ _______ _______ _____ _____    ______ ____
ROOT
ATOM      3  C   UNL     1       0.372  -0.013  23.649  0.00  0.00    +0.180 C 
ATOM      4  O   UNL     1      -0.298  -0.387  23.952  0.00  0.00    -0.350 OA
ATOM      5  C   UNL     1      -0.789   0.191  24.277  0.00  0.00    +0.154 C 
ATOM     16  C   UNL     1      -0.422   0.923  24.176  0.00  0.00    +0.120 C 
ATOM     17  C   UNL     1       0.295   0.797  23.787  0.00  0.00    +0.198 C 
ATOM     18  O   UNL     1       0.840   1.379  23.575  0.00  0.00    -0.219 OA
ENDROOT
BRANCH  16  19
ATOM     19  N   UNL     1      -0.720   1.653  24.419  0.00  0.00    -0.267 NA
ATOM     20  C   UNL     1      -0.543   1.940  25.172  0.00  0.00    +0.094 C 
ATOM     21  C   UNL     1      -0.840   2.670  25.416  0.00  0.00    +0.108 C 
ATOM     22  N   UNL     1      -1.315   3.113  24.906  0.00  0.00    -0.305 N 
ATOM     23  C   UNL     1      -1.492   2.826  24.154  0.00  0.00    +0.108 C 
ATOM     24  C   UNL     1      -1.194   2.096  23.910  0.00  0.00    +0.094 C 
BRANCH  22  25
ATOM     25  C   UNL     1      -1.613   3.843  25.150  0.00  0.00    +0.048 A 
ATOM     26  C   UNL     1      -1.210   4.537  24.959  0.00  0.00    +0.015 A 
ATOM     27  C   UNL     1      -1.508   5.267  25.203  0.00  0.00    +0.001 A 
ATOM     28  C   UNL     1      -2.208   5.303  25.638  0.00  0.00    +0.000 A 
ATOM     29  C   UNL     1      -2.610   4.608  25.829  0.00  0.00    +0.001 A 
ATOM     30  C   UNL     1      -2.312   3.879  25.585  0.00  0.00    +0.015 A 
ENDBRANCH  22  25
ENDBRANCH  16  19
BRANCH   3   2
ATOM      1  O   UNL     1       0.929  -0.647  22.496  0.00  0.00    -0.218 OA
ATOM      2  C   UNL     1       1.006  -0.383  23.275  0.00  0.00    +0.214 C 
ENDBRANCH   3   2
BRANCH   5   6
ATOM      6  C   UNL     1      -1.518   0.060  24.640  0.00  0.00    +0.146 C 
BRANCH   6   7
ATOM      7  N   UNL     1      -1.981  -0.583  24.415  0.00  0.00    -0.199 NA
ATOM      8  C   UNL     1      -2.674  -0.758  24.829  0.00  0.00    +0.265 C 
ATOM      9  O   UNL     1      -2.902  -0.290  25.467  0.00  0.00    -0.268 OA
BRANCH   8  10
ATOM     10  C   UNL     1      -3.137  -1.402  24.602  0.00  0.00    +0.055 A 
ATOM     11  C   UNL     1      -2.962  -2.156  24.885  0.00  0.00    +0.005 A 
ATOM     12  C   UNL     1      -3.425  -2.801  24.658  0.00  0.00    +0.000 A 
ATOM     13  C   UNL     1      -4.065  -2.689  24.149  0.00  0.00    +0.000 A 
ATOM     14  C   UNL     1      -4.241  -1.934  23.866  0.00  0.00    +0.000 A 
ATOM     15  C   UNL     1      -3.777  -1.291  24.093  0.00  0.00    +0.005 A 
ENDBRANCH   8  10
ENDBRANCH   6   7
ENDBRANCH   5   6
TORSDOF 6
ENDMDL
MODEL 4
REMARK VINA RESULT:      -9.9      2.779      6.280
REMARK  Name = 
REMARK  6 active torsions:
REMARK  status: ('A' for Active; 'I' for Inactive)
REMARK    1  A    between atoms: C_2  and  C_3
REMARK    2  A    between atoms: C_5  and  C_6
REMARK    3  A    between atoms: C_6  and  N_7
REMARK    4  A    between atoms: C_8  and  C_10
REMARK    5  A    between atoms: C_16  and  N_19
REMARK    6  A    between atoms: N_22  and  C_25
REMARK                            x       y       z     vdW  Elec       q    Type
REMARK                         _______ _______ _______ _____ _____    ______ ____
ROOT
ATOM      3  C   UNL     1       1.147   1.005  23.546  0.00  0.00    +0.180 C 
ATOM      4  O   UNL     1       0.848   1.568  24.070  0.00  0.00    -0.350 OA
ATOM      5  C   UNL     1       0.161   1.262  24.409  0.00  0.00    +0.154 C 
ATOM     16  C   UNL     1       0.034   0.510  24.094  0.00  0.00    +0.120 C 
ATOM     17  C   UNL     1       0.644   0.350  23.561  0.00  0.00    +0.198 C 
ATOM     18  O   UNL     1       0.735  -0.342  23.120  0.00  0.00    -0.219 OA
ENDROOT
BRANCH  16  19
ATOM     19  N   UNL     1      -0.591   0.005  24.280  0.00  0.00    -0.267 NA
ATOM     20  C   UNL     1      -0.491  -0.582  24.852  0.00  0.00    +0.094 C 
ATOM     21  C   UNL     1      -1.116  -1.087  25.039  0.00  0.00    +0.108 C 
ATOM     22  N   UNL     1      -1.842  -1.005  24.653  0.00  0.00    -0.305 N 
ATOM     23  C   UNL     1      -1.941  -0.419  24.082  0.00  0.00    +0.108 C 
ATOM     24  C   UNL     1      -1.315   0.086  23.895  0.00  0.00    +0.094 C 
BRANCH  22  25
ATOM     25  C   UNL     1      -2.467  -1.510  24.839  0.00  0.00    +0.048 A 
ATOM     26  C   UNL     1      -3.026  -1.284  25.402  0.00  0.00    +0.015 A 
ATOM     27  C   UNL     1      -3.652  -1.789  25.588  0.00  0.00    +0.001 A 
ATOM     28  C   UNL     1      -3.717  -2.521  25.211  0.00  0.00    +0.000 A 
ATOM     29  C   UNL     1      -3.158  -2.746  24.649  0.00  0.00    +0.001 A 
ATOM     30  C   UNL     1      -2.533  -2.241  24.463  0.00  0.00    +0.015 A 
ENDBRANCH  22  25
ENDBRANCH  16  19
BRANCH   3   2
ATOM      1  O   UNL     1       2.498   1.446  23.403  0.00  0.00    -0.218 OA
ATOM      2  C   UNL     1       1.828   1.082  23.088  0.00  0.00    +0.214 C 
ENDBRANCH   3   2
BRANCH   5   6
ATOM      6  C   UNL     1      -0.316   1.642  24.964  0.00  0.00    +0.146 C 
BRANCH   6   7
ATOM      7  N   UNL     1      -0.552   2.422  24.840  0.00  0.00    -0.199 NA
ATOM      8  C   UNL     1      -0.831   2.874  25.472  0.00  0.00    +0.265 C 
ATOM      9  O   UNL     1      -0.872   2.546  26.227  0.00  0.00    -0.268 OA
BRANCH   8  10
ATOM     10  C   UNL     1      -1.067   3.655  25.348  0.00  0.00    +0.055 A 
ATOM     11  C   UNL     1      -0.534   4.203  25.040  0.00  0.00    +0.005 A 
ATOM     12  C   UNL     1      -0.770   4.984  24.915  0.00  0.00    +0.000 A 
ATOM     13  C   UNL     1      -1.541   5.216  25.099  0.00  0.00    +0.000 A 
ATOM     14  C   UNL     1      -2.075   4.667  25.407  0.00  0.00    +0.000 A 
ATOM     15  C   UNL     1      -1.838   3.887  25.532  0.00  0.00    +0.005 A 
ENDBRANCH   8  10
ENDBRANCH   6   7
ENDBRANCH   5   6
TORSDOF 6
ENDMDL
MODEL 5
REMARK VINA RESULT:      -9.8      1.813      5.438
REMARK  Name = 
REMARK  6 active torsions:
REMARK  status: ('A' for Active; 'I' for Inactive)
REMARK    1  A    between atoms: C_2  and  C_3
REMARK    2  A    between atoms: C_5  and  C_6
REMARK    3  A    between atoms: C_6  and  N_7
REMARK    4  A    between atoms: C_8  and  C_10
REMARK    5  A    between atoms: C_16  and  N_19
REMARK    6  A    between atoms: N_22  and  C_25
REMARK                            x       y       z     vdW  Elec       q    Type
REMARK                         _______ _______ _______ _____ _____    ______ ____
ROOT
ATOM      3  C   UNL     1      -0.759   1.969  25.616  0.00  0.00    +0.180 C 
ATOM      4  O   UNL     1      -1.365   2.390  25.248  0.00  0.00    -0.350 OA
ATOM      5  C   UNL     1      -1.920   1.846  24.968  0.00  0.00    +0.154 C 
ATOM     16  C   UNL     1      -1.656   1.089  25.163  0.00  0.00    +0.120 C 
ATOM     17  C   UNL     1      -0.938   1.165  25.563  0.00  0.00    +0.198 C 
ATOM     18  O   UNL     1      -0.481   0.545  25.859  0.00  0.00    -0.219 OA
ENDROOT
BRANCH  16  19
ATOM     19  N   UNL     1      -2.042   0.382  24.988  0.00  0.00    -0.267 NA
ATOM     20  C   UNL     1      -2.537   0.033  25.549  0.00  0.00    +0.094 C 
ATOM     21  C   UNL     1      -2.923  -0.676  25.375  0.00  0.00    +0.108 C 
ATOM     22  N   UNL     1      -2.813  -1.035  24.640  0.00  0.00    -0.305 N 
ATOM     23  C   UNL     1      -2.319  -0.686  24.080  0.00  0.00    +0.108 C 
ATOM     24  C   UNL     1      -1.933   0.022  24.254  0.00  0.00    +0.094 C 
BRANCH  22  25
ATOM     25  C   UNL     1      -3.200  -1.743  24.466  0.00  0.00    +0.048 A 
ATOM     26  C   UNL     1      -2.892  -2.458  24.738  0.00  0.00    +0.015 A 
ATOM     27  C   UNL     1      -3.278  -3.166  24.564  0.00  0.00    +0.001 A 
ATOM     28  C   UNL     1      -3.972  -3.159  24.117  0.00  0.00    +0.000 A 
ATOM     29  C   UNL     1      -4.279  -2.443  23.845  0.00  0.00    +0.001 A 
ATOM     30  C   UNL     1      -3.893  -1.736  24.019  0.00  0.00    +0.015 A 
ENDBRANCH  22  25
ENDBRANCH  16  19
BRANCH   3   2
ATOM      1  O   UNL     1       0.095   3.089  25.855  0.00  0.00    -0.218 OA
ATOM      2  C   UNL     1      -0.091   2.293  25.973  0.00  0.00    +0.214 C 
ENDBRANCH   3   2
BRANCH   5   6
ATOM      6  C   UNL     1      -2.615   2.029  24.564  0.00  0.00    +0.146 C 
BRANCH   6   7
ATOM      7  N   UNL     1      -3.224   2.429  24.951  0.00  0.00    -0.199 NA
ATOM      8  C   UNL     1      -3.858   2.732  24.518  0.00  0.00    +0.265 C 
ATOM      9  O   UNL     1      -3.884   2.634  23.700  0.00  0.00    -0.268 OA
BRANCH   8  10
ATOM     10  C   UNL     1      -4.467   3.132  24.906  0.00  0.00    +0.055 A 
ATOM     11  C   UNL     1      -4.426   3.950  25.005  0.00  0.00    +0.005 A 
ATOM     12  C   UNL     1      -5.035   4.350  25.393  0.00  0.00    +0.000 A 
ATOM     13  C   UNL     1      -5.685   3.932  25.681  0.00  0.00    +0.000 A 
ATOM     14  C   UNL     1      -5.726   3.113  25.581  0.00  0.00    +0.000 A 
ATOM     15  C   UNL     1      -5.118   2.714  25.194  0.00  0.00    +0.005 A 
ENDBRANCH   8  10
ENDBRANCH   6   7
ENDBRANCH   5   6
TORSDOF 6
ENDMDL
