MODEL 1
REMARK VINA RESULT:     -14.0      0.000      0.000
REMARK  Name = 
REMARK  3 active torsions:
REMARK  status: ('A' for Active; 'I' for Inactive)
REMARK    1  A    between atoms: C_13  and  N_14
REMARK    2  A    between atoms: N_17  and  C_18
REMARK    3  A    between atoms: C_20  and  C_24
REMARK                            x       y       z     vdW  Elec       q    Type
REMARK                         _______ _______ _______ _____ _____    ______ ____
ROOT
ATOM      1  C   UNL     1      -1.897  -0.773  25.012  0.00  0.00    +0.095 C 
ATOM      2  C   UNL     1      -1.888  -1.598  24.978  0.00  0.00    +0.226 C 
ATOM      3  O   UNL     1      -1.227  -2.014  25.243  0.00  0.00    -0.275 OA
ATOM      4  N   UNL     1      -2.540  -2.006  24.679  0.00  0.00    -0.279 N 
ATOM      5  C   UNL     1      -3.014  -2.653  24.445  0.00  0.00    +0.095 C 
ATOM      6  C   UNL     1      -3.812  -2.166  24.124  0.00  0.00    +0.043 C 
ATOM      7  C   UNL     1      -4.529  -1.920  23.827  0.00  0.00    +0.011 C 
ATOM      8  C   UNL     1      -3.949  -1.626  24.090  0.00  0.00    +0.058 C 
ATOM      9  C   UNL     1      -3.185  -2.111  24.396  0.00  0.00    +0.099 C 
ATOM     10  C   UNL     1      -3.581  -0.807  24.286  0.00  0.00    +0.041 A 
ATOM     11  C   UNL     1      -3.754  -0.002  24.249  0.00  0.00    +0.014 A 
ATOM     12  C   UNL     1      -3.202   0.551  24.512  0.00  0.00    +0.023 A 
ATOM     13  C   UNL     1      -2.476   0.299  24.813  0.00  0.00    +0.131 A 
ATOM     26  C   UNL     1      -2.302  -0.507  24.850  0.00  0.00    +0.276 A 
ATOM     27  O   UNL     1      -1.545  -0.504  25.176  0.00  0.00    -0.266 OA
ATOM     28  N   UNL     1      -2.855  -1.060  24.587  0.00  0.00    -0.298 N 
ATOM     29  C   UNL     1      -3.419  -1.315  24.333  0.00  0.00    +0.110 C 
ENDROOT
BRANCH  13  14
ATOM     14  N   UNL     1      -1.924   0.852  25.076  0.00  0.00    -0.156 NA
ATOM     15  C   UNL     1      -2.138   1.645  25.151  0.00  0.00    +0.348 C 
ATOM     16  O   UNL     1      -2.905   1.885  24.963  0.00  0.00    -0.248 OA
ATOM     17  N   UNL     1      -1.586   2.199  25.414  0.00  0.00    -0.161 NA
BRANCH  17  18
ATOM     18  C   UNL     1      -1.800   2.992  25.489  0.00  0.00    +0.076 A 
ATOM     19  C   UNL     1      -1.322   3.581  25.165  0.00  0.00    +0.027 A 
ATOM     20  C   UNL     1      -1.536   4.374  25.240  0.00  0.00    +0.070 A 
ATOM     21  C   UNL     1      -2.228   4.578  25.639  0.00  0.00    +0.010 A 
ATOM     22  C   UNL     1      -2.707   3.989  25.964  0.00  0.00    +0.002 A 
ATOM     23  C   UNL     1      -2.492   3.197  25.889  0.00  0.00    +0.017 A 
BRANCH  20  24
ATOM     24  C   UNL     1      -1.059   4.963  24.916  0.00  0.00    +0.100 C 
ATOM     25  N   UNL     1      -0.582   5.553  24.592  0.00  0.00    -0.191 NA
ENDBRANCH  20  24
ENDBRANCH  17  18
ENDBRANCH  13  14
TORSDOF 3
ENDMDL
MODEL 2
REMARK VINA RESULT:     -13.9      1.273      5.451
REMARK  Name = 
REMARK  3 active torsions:
REMARK  status: ('A' for Active; 'I' for Inactive)
REMARK    1  A    between atoms: C_13  and  N_14
REMARK    2  A    between atoms: N_17  and  C_18
REMARK    3  A    between atoms: C_20  and  C_24
REMARK                            x       y       z     vdW  Elec       q    Type
REMARK                         _______ _______ _______ _____ _____    ______ ____
ROOT
ATOM      1  C   UNL     1      -3.201   3.200  25.331  0.00  0.00    +0.095 C 
ATOM      2  C   UNL     1      -3.103   3.996  25.528  0.00  0.00    +0.226 C 
ATOM      3  O   UNL     1      -3.731   4.422  25.851  0.00  0.00    -0.275 OA
ATOM      4  N   UNL     1      -2.375   4.365  25.402  0.00  0.00    -0.279 N 
ATOM      5  C   UNL     1      -1.800   4.971  25.393  0.00  0.00    +0.095 C 
ATOM      6  C   UNL     1      -1.040   4.472  25.007  0.00  0.00    +0.043 C 
ATOM      7  C   UNL     1      -0.331   4.208  24.705  0.00  0.00    +0.011 C 
ATOM      8  C   UNL     1      -0.969   3.947  24.833  0.00  0.00    +0.058 C 
ATOM      9  C   UNL     1      -1.695   4.442  25.207  0.00  0.00    +0.099 C 
ATOM     10  C   UNL     1      -1.457   3.171  24.766  0.00  0.00    +0.041 A 
ATOM     11  C   UNL     1      -1.384   2.388  24.517  0.00  0.00    +0.014 A 
ATOM     12  C   UNL     1      -2.027   1.875  24.575  0.00  0.00    +0.023 A 
ATOM     13  C   UNL     1      -2.744   2.145  24.882  0.00  0.00    +0.131 A 
ATOM     26  C   UNL     1      -2.817   2.928  25.130  0.00  0.00    +0.276 A 
ATOM     27  O   UNL     1      -3.600   2.954  25.388  0.00  0.00    -0.266 OA
ATOM     28  N   UNL     1      -2.174   3.441  25.072  0.00  0.00    -0.298 N 
ATOM     29  C   UNL     1      -1.557   3.666  24.940  0.00  0.00    +0.110 C 
ENDROOT
BRANCH  13  14
ATOM     14  N   UNL     1      -3.387   1.632  24.940  0.00  0.00    -0.156 NA
ATOM     15  C   UNL     1      -3.262   0.817  24.982  0.00  0.00    +0.348 C 
ATOM     16  O   UNL     1      -2.494   0.516  24.966  0.00  0.00    -0.248 OA
ATOM     17  N   UNL     1      -3.907   0.304  25.040  0.00  0.00    -0.161 NA
BRANCH  17  18
ATOM     18  C   UNL     1      -3.782  -0.510  25.082  0.00  0.00    +0.076 A 
ATOM     19  C   UNL     1      -4.008  -0.995  24.454  0.00  0.00    +0.027 A 
ATOM     20  C   UNL     1      -3.884  -1.809  24.496  0.00  0.00    +0.070 A 
ATOM     21  C   UNL     1      -3.534  -2.139  25.166  0.00  0.00    +0.010 A 
ATOM     22  C   UNL     1      -3.308  -1.654  25.794  0.00  0.00    +0.002 A 
ATOM     23  C   UNL     1      -3.432  -0.840  25.752  0.00  0.00    +0.017 A 
BRANCH  20  24
ATOM     24  C   UNL     1      -4.110  -2.294  23.868  0.00  0.00    +0.100 C 
ATOM     25  N   UNL     1      -4.336  -2.779  23.241  0.00  0.00    -0.191 NA
ENDBRANCH  20  24
ENDBRANCH  17  18
ENDBRANCH  13  14
TORSDOF 3
ENDMDL
MODEL 3
REMARK VINA RESULT:     -13.6      1.480      1.894
REMARK  Name = 
REMARK  3 active torsions:
REMARK  status: ('A' for Active; 'I' for Inactive)
REMARK    1  A    between atoms: C_13  and  N_14
REMARK    2  A    between atoms: N_17  and  C_18
REMARK    3  A    between atoms: C_20  and  C_24
REMARK                            x       y       z     vdW  Elec       q    Type
REMARK                         _______ _______ _______ _____ _____    ______ ____
ROOT
ATOM      1  C   UNL     1      -2.040  -0.735  24.989  0.00  0.00    +0.095 C 
ATOM      2  C   UNL     1      -1.644  -1.458  24.947  0.00  0.00    +0.226 C 
ATOM      3  O   UNL     1      -0.840  -1.499  25.127  0.00  0.00    -0.275 OA
ATOM      4  N   UNL     1      -2.052  -2.140  24.724  0.00  0.00    -0.279 N 
ATOM      5  C   UNL     1      -2.183  -2.945  24.543  0.00  0.00    +0.095 C 
ATOM      6  C   UNL     1      -3.146  -2.910  24.325  0.00  0.00    +0.043 C 
ATOM      7  C   UNL     1      -3.922  -3.048  24.118  0.00  0.00    +0.011 C 
ATOM      8  C   UNL     1      -3.526  -2.502  24.312  0.00  0.00    +0.058 C 
ATOM      9  C   UNL     1      -2.596  -2.552  24.520  0.00  0.00    +0.099 C 
ATOM     10  C   UNL     1      -3.573  -1.598  24.470  0.00  0.00    +0.041 A 
ATOM     11  C   UNL     1      -4.112  -0.973  24.461  0.00  0.00    +0.014 A 
ATOM     12  C   UNL     1      -3.864  -0.212  24.661  0.00  0.00    +0.023 A 
ATOM     13  C   UNL     1      -3.077  -0.076  24.870  0.00  0.00    +0.131 A 
ATOM     26  C   UNL     1      -2.539  -0.701  24.879  0.00  0.00    +0.276 A 
ATOM     27  O   UNL     1      -1.843  -0.324  25.112  0.00  0.00    -0.266 OA
ATOM     28  N   UNL     1      -2.787  -1.462  24.679  0.00  0.00    -0.298 N 
ATOM     29  C   UNL     1      -3.186  -1.965  24.492  0.00  0.00    +0.110 C 
ENDROOT
BRANCH  13  14
ATOM     14  N   UNL     1      -2.830   0.685  25.070  0.00  0.00    -0.156 NA
ATOM     15  C   UNL     1      -3.276   1.338  24.835  0.00  0.00    +0.348 C 
ATOM     16  O   UNL     1      -3.969   1.231  24.401  0.00  0.00    -0.248 OA
ATOM     17  N   UNL     1      -3.028   2.100  25.036  0.00  0.00    -0.161 NA
BRANCH  17  18
ATOM     18  C   UNL     1      -3.473   2.754  24.801  0.00  0.00    +0.076 A 
ATOM     19  C   UNL     1      -4.124   2.991  25.249  0.00  0.00    +0.027 A 
ATOM     20  C   UNL     1      -4.570   3.644  25.014  0.00  0.00    +0.070 A 
ATOM     21  C   UNL     1      -4.363   4.061  24.333  0.00  0.00    +0.010 A 
ATOM     22  C   UNL     1      -3.712   3.824  23.885  0.00  0.00    +0.002 A 
ATOM     23  C   UNL     1      -3.267   3.171  24.120  0.00  0.00    +0.017 A 
BRANCH  20  24
ATOM     24  C   UNL     1      -5.221   3.882  25.461  0.00  0.00    +0.100 C 
ATOM     25  N   UNL     1      -5.873   4.119  25.907  0.00  0.00    -0.191 NA
ENDBRANCH  20  24
ENDBRANCH  17  18
ENDBRANCH  13  14
TORSDOF 3
ENDMDL
MODEL 4
REMARK VINA RESULT:     -13.1      2.035      5.314
REMARK  Name = 
REMARK  3 active torsions:
REMARK  status: ('A' for Active; 'I' for Inactive)
REMARK    1  A    between atoms: C_13  and  N_14
REMARK    2  A    between atoms: N_17  and  C_18
REMARK    3  A    between atoms: C_20  and  C_24
REMARK                            x       y       z     vdW  Elec       q    Type
REMARK                         _______ _______ _______ _____ _____    ______ ____
ROOT
ATOM      1  C   UNL     1      -5.051   1.917  25.481  0.00  0.00    +0.095 C 
ATOM      2  C   UNL     1      -5.311   2.658  25.736  0.00  0.00    +0.226 C 
ATOM      3  O   UNL     1      -5.886   2.713  26.324  0.00  0.00    -0.275 OA
ATOM      4  N   UNL     1      -4.995   3.343  25.403  0.00  0.00    -0.279 N 
ATOM      5  C   UNL     1      -4.873   4.159  25.266  0.00  0.00    +0.095 C 
ATOM      6  C   UNL     1      -4.183   4.107  24.561  0.00  0.00    +0.043 C 
ATOM      7  C   UNL     1      -3.622   4.234  23.984  0.00  0.00    +0.011 C 
ATOM      8  C   UNL     1      -3.924   3.686  24.302  0.00  0.00    +0.058 C 
ATOM      9  C   UNL     1      -4.591   3.753  24.983  0.00  0.00    +0.099 C 
ATOM     10  C   UNL     1      -3.921   2.767  24.312  0.00  0.00    +0.041 A 
ATOM     11  C   UNL     1      -3.556   2.124  23.948  0.00  0.00    +0.014 A 
ATOM     12  C   UNL     1      -3.760   1.355  24.168  0.00  0.00    +0.023 A 
ATOM     13  C   UNL     1      -4.329   1.230  24.752  0.00  0.00    +0.131 A 
ATOM     26  C   UNL     1      -4.694   1.874  25.116  0.00  0.00    +0.276 A 
ATOM     27  O   UNL     1      -5.206   1.503  25.646  0.00  0.00    -0.266 OA
ATOM     28  N   UNL     1      -4.490   2.642  24.897  0.00  0.00    -0.298 N 
ATOM     29  C   UNL     1      -4.187   3.147  24.579  0.00  0.00    +0.110 C 
ENDROOT
BRANCH  13  14
ATOM     14  N   UNL     1      -4.532   0.462  24.971  0.00  0.00    -0.156 NA
ATOM     15  C   UNL     1      -4.100  -0.178  24.681  0.00  0.00    +0.348 C 
ATOM     16  O   UNL     1      -3.464  -0.050  24.171  0.00  0.00    -0.248 OA
ATOM     17  N   UNL     1      -4.304  -0.948  24.901  0.00  0.00    -0.161 NA
BRANCH  17  18
ATOM     18  C   UNL     1      -3.872  -1.588  24.610  0.00  0.00    +0.076 A 
ATOM     19  C   UNL     1      -3.095  -1.708  24.860  0.00  0.00    +0.027 A 
ATOM     20  C   UNL     1      -2.663  -2.348  24.570  0.00  0.00    +0.070 A 
ATOM     21  C   UNL     1      -3.008  -2.867  24.030  0.00  0.00    +0.010 A 
ATOM     22  C   UNL     1      -3.785  -2.747  23.780  0.00  0.00    +0.002 A 
ATOM     23  C   UNL     1      -4.217  -2.107  24.070  0.00  0.00    +0.017 A 
BRANCH  20  24
ATOM     24  C   UNL     1      -1.886  -2.469  24.819  0.00  0.00    +0.100 C 
ATOM     25  N   UNL     1      -1.109  -2.589  25.068  0.00  0.00    -0.191 NA
ENDBRANCH  20  24
ENDBRANCH  17  18
ENDBRANCH  13  14
TORSDOF 3
ENDMDL
MODEL 5
REMARK VINA RESULT:     -12.8      2.336      4.332
REMARK  Name = 
REMARK  3 active torsions:
REMARK  status: ('A' for Active; 'I' for Inactive)
REMARK    1  A    between atoms: C_13  and  N_14
REMARK    2  A    between atoms: N_17  and  C_18
REMARK    3  A    between atoms: C_20  and  C_24
REMARK                            x       y       z     vdW  Elec       q    Type
REMARK                         _______ _______ _______ _____ _____    ______ ____
ROOT
ATOM      1  C   UNL     1      -3.433   2.886  25.323  0.00  0.00    +0.095 C 
ATOM      2  C   UNL     1      -4.003   3.429  25.573  0.00  0.00    +0.226 C 
ATOM      3  O   UNL     1      -3.771   4.158  25.879  0.00  0.00    -0.275 OA
ATOM      4  N   UNL     1      -4.804   3.241  25.515  0.00  0.00    -0.279 N 
ATOM      5  C   UNL     1      -5.632   3.332  25.579  0.00  0.00    +0.095 C 
ATOM      6  C   UNL     1      -5.923   2.461  25.213  0.00  0.00    +0.043 C 
ATOM      7  C   UNL     1      -6.319   1.803  24.942  0.00  0.00    +0.011 C 
ATOM      8  C   UNL     1      -5.654   2.015  25.014  0.00  0.00    +0.058 C 
ATOM      9  C   UNL     1      -5.389   2.861  25.369  0.00  0.00    +0.099 C 
ATOM     10  C   UNL     1      -4.790   1.739  24.870  0.00  0.00    +0.041 A 
ATOM     11  C   UNL     1      -4.363   1.094  24.581  0.00  0.00    +0.014 A 
ATOM     12  C   UNL     1      -3.539   1.119  24.567  0.00  0.00    +0.023 A 
ATOM     13  C   UNL     1      -3.141   1.787  24.842  0.00  0.00    +0.131 A 
ATOM     26  C   UNL     1      -3.567   2.431  25.131  0.00  0.00    +0.276 A 
ATOM     27  O   UNL     1      -2.966   2.956  25.339  0.00  0.00    -0.266 OA
ATOM     28  N   UNL     1      -4.392   2.407  25.145  0.00  0.00    -0.298 N 
ATOM     29  C   UNL     1      -5.017   2.181  25.066  0.00  0.00    +0.110 C 
ENDROOT
BRANCH  13  14
ATOM     14  N   UNL     1      -2.317   1.810  24.828  0.00  0.00    -0.156 NA
ATOM     15  C   UNL     1      -1.888   1.135  24.629  0.00  0.00    +0.348 C 
ATOM     16  O   UNL     1      -2.284   0.435  24.444  0.00  0.00    -0.248 OA
ATOM     17  N   UNL     1      -1.063   1.159  24.615  0.00  0.00    -0.161 NA
BRANCH  17  18
ATOM     18  C   UNL     1      -0.634   0.483  24.416  0.00  0.00    +0.076 A 
ATOM     19  C   UNL     1      -0.106   0.501  23.782  0.00  0.00    +0.027 A 
ATOM     20  C   UNL     1       0.323  -0.174  23.583  0.00  0.00    +0.070 A 
ATOM     21  C   UNL     1       0.224  -0.869  24.017  0.00  0.00    +0.010 A 
ATOM     22  C   UNL     1      -0.304  -0.887  24.651  0.00  0.00    +0.002 A 
ATOM     23  C   UNL     1      -0.733  -0.212  24.850  0.00  0.00    +0.017 A 
BRANCH  20  24
ATOM     24  C   UNL     1       0.851  -0.156  22.949  0.00  0.00    +0.100 C 
ATOM     25  N   UNL     1       1.378  -0.138  22.315  0.00  0.00    -0.191 NA
ENDBRANCH  20  24
ENDBRANCH  17  18
ENDBRANCH  13  14
TORSDOF 3
ENDMDL
