MODEL 1
REMARK VINA RESULT:      -8.5      0.000      0.000
REMARK  Name = 
REMARK  5 active torsions:
REMARK  status: ('A' for Active; 'I' for Inactive)
REMARK    1  A    between atoms: C_3  and  C_4
REMARK    2  A    between atoms: C_4  and  N_5
REMARK    3  A    between atoms: C_6  and  C_8
REMARK    4  A    between atoms: C_16  and  N_17
REMARK    5  A    between atoms: N_17  and  C_18
REMARK                            x       y       z     vdW  Elec       q    Type
REMARK                         _______ _______ _______ _____ _____    ______ ____
ROOT
ATOM      1  O   UNL     1      -4.557   2.649  24.403  0.00  0.00    -0.219 OA
ATOM      2  C   UNL     1      -3.785   2.373  24.498  0.00  0.00    +0.199 C 
ATOM      3  C   UNL     1      -3.551   1.583  24.512  0.00  0.00    +0.169 C 
ATOM     14  O   UNL     1      -2.733   1.562  24.619  0.00  0.00    -0.350 OA
ATOM     15  C   UNL     1      -2.462   2.339  24.672  0.00  0.00    +0.162 C 
ATOM     16  C   UNL     1      -3.113   2.841  24.597  0.00  0.00    +0.135 C 
ENDROOT
BRANCH   3   4
ATOM      4  C   UNL     1      -4.046   0.928  24.432  0.00  0.00    +0.148 C 
BRANCH   4   5
ATOM      5  N   UNL     1      -3.749   0.169  24.553  0.00  0.00    -0.199 NA
ATOM      6  C   UNL     1      -4.250  -0.485  24.493  0.00  0.00    +0.265 C 
ATOM      7  O   UNL     1      -5.047  -0.378  24.312  0.00  0.00    -0.268 OA
BRANCH   6   8
ATOM      8  C   UNL     1      -3.953  -1.245  24.614  0.00  0.00    +0.058 A 
ATOM      9  C   UNL     1      -3.992  -1.804  24.010  0.00  0.00    +0.025 A 
ATOM     10  C   UNL     1      -3.695  -2.564  24.131  0.00  0.00    +0.099 A 
ATOM     11  N   UNL     1      -3.358  -2.765  24.857  0.00  0.00    -0.242 NA
ATOM     12  C   UNL     1      -3.320  -2.205  25.462  0.00  0.00    +0.099 A 
ATOM     13  C   UNL     1      -3.616  -1.445  25.341  0.00  0.00    +0.025 A 
ENDBRANCH   6   8
ENDBRANCH   4   5
ENDBRANCH   3   4
BRANCH  16  17
ATOM     17  N   UNL     1      -3.094   3.665  24.618  0.00  0.00    -0.211 NA
BRANCH  17  18
ATOM     18  C   UNL     1      -2.521   4.053  25.067  0.00  0.00    +0.132 C 
ATOM     19  C   UNL     1      -1.793   4.406  24.905  0.00  0.00    +0.162 C 
ATOM     20  O   UNL     1      -1.711   4.602  25.703  0.00  0.00    -0.351 OA
ATOM     21  C   UNL     1      -2.439   4.250  25.864  0.00  0.00    +0.162 C 
ENDBRANCH  17  18
ENDBRANCH  16  17
TORSDOF 5
ENDMDL
MODEL 2
REMARK VINA RESULT:      -8.1      1.813      5.432
REMARK  Name = 
REMARK  5 active torsions:
REMARK  status: ('A' for Active; 'I' for Inactive)
REMARK    1  A    between atoms: C_3  and  C_4
REMARK    2  A    between atoms: C_4  and  N_5
REMARK    3  A    between atoms: C_6  and  C_8
REMARK    4  A    between atoms: C_16  and  N_17
REMARK    5  A    between atoms: N_17  and  C_18
REMARK                            x       y       z     vdW  Elec       q    Type
REMARK                         _______ _______ _______ _____ _____    ______ ____
ROOT
ATOM      1  O   UNL     1      -0.936  -0.525  26.102  0.00  0.00    -0.219 OA
ATOM      2  C   UNL     1      -1.427  -0.250  25.499  0.00  0.00    +0.199 C 
ATOM      3  C   UNL     1      -1.493   0.532  25.244  0.00  0.00    +0.169 C 
ATOM     14  O   UNL     1      -2.045   0.554  24.632  0.00  0.00    -0.350 OA
ATOM     15  C   UNL     1      -2.321  -0.213  24.507  0.00  0.00    +0.162 C 
ATOM     16  C   UNL     1      -1.939  -0.711  25.044  0.00  0.00    +0.135 C 
ENDROOT
BRANCH   3   4
ATOM      4  C   UNL     1      -1.079   1.177  25.549  0.00  0.00    +0.148 C 
BRANCH   4   5
ATOM      5  N   UNL     1      -1.335   1.944  25.387  0.00  0.00    -0.199 NA
ATOM      6  C   UNL     1      -0.936   2.589  25.712  0.00  0.00    +0.265 C 
ATOM      7  O   UNL     1      -0.281   2.466  26.200  0.00  0.00    -0.268 OA
BRANCH   6   8
ATOM      8  C   UNL     1      -1.191   3.357  25.550  0.00  0.00    +0.058 A 
ATOM      9  C   UNL     1      -1.921   3.617  25.832  0.00  0.00    +0.025 A 
ATOM     10  C   UNL     1      -2.176   4.384  25.670  0.00  0.00    +0.099 A 
ATOM     11  N   UNL     1      -1.700   4.892  25.226  0.00  0.00    -0.242 NA
ATOM     12  C   UNL     1      -0.969   4.632  24.945  0.00  0.00    +0.099 A 
ATOM     13  C   UNL     1      -0.714   3.864  25.107  0.00  0.00    +0.025 A 
ENDBRANCH   6   8
ENDBRANCH   4   5
ENDBRANCH   3   4
BRANCH  16  17
ATOM     17  N   UNL     1      -2.049  -1.525  25.112  0.00  0.00    -0.211 NA
BRANCH  17  18
ATOM     18  C   UNL     1      -2.780  -1.859  24.927  0.00  0.00    +0.132 C 
ATOM     19  C   UNL     1      -3.506  -1.928  25.316  0.00  0.00    +0.162 C 
ATOM     20  O   UNL     1      -3.815  -2.331  24.666  0.00  0.00    -0.351 OA
ATOM     21  C   UNL     1      -3.091  -2.262  24.278  0.00  0.00    +0.162 C 
ENDBRANCH  17  18
ENDBRANCH  16  17
TORSDOF 5
ENDMDL
MODEL 3
REMARK VINA RESULT:      -8.0      1.180      5.014
REMARK  Name = 
REMARK  5 active torsions:
REMARK  status: ('A' for Active; 'I' for Inactive)
REMARK    1  A    between atoms: C_3  and  C_4
REMARK    2  A    between atoms: C_4  and  N_5
REMARK    3  A    between atoms: C_6  and  C_8
REMARK    4  A    between atoms: C_16  and  N_17
REMARK    5  A    between atoms: N_17  and  C_18
REMARK                            x       y       z     vdW  Elec       q    Type
REMARK                         _______ _______ _______ _____ _____    ______ ____
ROOT
ATOM      1  O   UNL     1      -4.923   1.006  25.367  0.00  0.00    -0.219 OA
ATOM      2  C   UNL     1      -4.251   0.871  24.908  0.00  0.00    +0.199 C 
ATOM      3  C   UNL     1      -3.652   1.416  24.753  0.00  0.00    +0.169 C 
ATOM     14  O   UNL     1      -3.091   1.048  24.273  0.00  0.00    -0.350 OA
ATOM     15  C   UNL     1      -3.343   0.275  24.132  0.00  0.00    +0.162 C 
ATOM     16  C   UNL     1      -4.060   0.166  24.525  0.00  0.00    +0.135 C 
ENDROOT
BRANCH   3   4
ATOM      4  C   UNL     1      -3.619   2.192  25.028  0.00  0.00    +0.148 C 
BRANCH   4   5
ATOM      5  N   UNL     1      -2.917   2.621  24.973  0.00  0.00    -0.199 NA
ATOM      6  C   UNL     1      -2.865   3.375  25.306  0.00  0.00    +0.265 C 
ATOM      7  O   UNL     1      -3.517   3.699  25.694  0.00  0.00    -0.268 OA
BRANCH   6   8
ATOM      8  C   UNL     1      -2.163   3.803  25.250  0.00  0.00    +0.058 A 
ATOM      9  C   UNL     1      -1.437   3.416  25.308  0.00  0.00    +0.025 A 
ATOM     10  C   UNL     1      -0.735   3.845  25.252  0.00  0.00    +0.099 A 
ATOM     11  N   UNL     1      -0.758   4.662  25.139  0.00  0.00    -0.242 NA
ATOM     12  C   UNL     1      -1.484   5.050  25.082  0.00  0.00    +0.099 A 
ATOM     13  C   UNL     1      -2.187   4.621  25.137  0.00  0.00    +0.025 A 
ENDBRANCH   6   8
ENDBRANCH   4   5
ENDBRANCH   3   4
BRANCH  16  17
ATOM     17  N   UNL     1      -4.507  -0.527  24.532  0.00  0.00    -0.211 NA
BRANCH  17  18
ATOM     18  C   UNL     1      -4.139  -1.257  24.419  0.00  0.00    +0.132 C 
ATOM     19  C   UNL     1      -4.095  -1.798  23.797  0.00  0.00    +0.162 C 
ATOM     20  O   UNL     1      -3.619  -2.289  24.259  0.00  0.00    -0.351 OA
ATOM     21  C   UNL     1      -3.664  -1.748  24.880  0.00  0.00    +0.162 C 
ENDBRANCH  17  18
ENDBRANCH  16  17
TORSDOF 5
ENDMDL
MODEL 4
REMARK VINA RESULT:      -7.9      1.834      2.368
REMARK  Name = 
REMARK  5 active torsions:
REMARK  status: ('A' for Active; 'I' for Inactive)
REMARK    1  A    between atoms: C_3  and  C_4
REMARK    2  A    between atoms: C_4  and  N_5
REMARK    3  A    between atoms: C_6  and  C_8
REMARK    4  A    between atoms: C_16  and  N_17
REMARK    5  A    between atoms: N_17  and  C_18
REMARK                            x       y       z     vdW  Elec       q    Type
REMARK                         _______ _______ _______ _____ _____    ______ ____
ROOT
ATOM      1  O   UNL     1      -0.158   1.957  26.241  0.00  0.00    -0.219 OA
ATOM      2  C   UNL     1      -0.696   2.037  25.621  0.00  0.00    +0.199 C 
ATOM      3  C   UNL     1      -1.119   1.425  25.264  0.00  0.00    +0.169 C 
ATOM     14  O   UNL     1      -1.589   1.754  24.671  0.00  0.00    -0.350 OA
ATOM     15  C   UNL     1      -1.457   2.568  24.661  0.00  0.00    +0.162 C 
ATOM     16  C   UNL     1      -0.904   2.743  25.249  0.00  0.00    +0.135 C 
ENDROOT
BRANCH   3   4
ATOM      4  C   UNL     1      -1.079   0.627  25.464  0.00  0.00    +0.148 C 
BRANCH   4   5
ATOM      5  N   UNL     1      -1.706   0.123  25.279  0.00  0.00    -0.199 NA
ATOM      6  C   UNL     1      -1.659  -0.680  25.464  0.00  0.00    +0.265 C 
ATOM      7  O   UNL     1      -0.984  -0.979  25.834  0.00  0.00    -0.268 OA
BRANCH   6   8
ATOM      8  C   UNL     1      -2.285  -1.184  25.280  0.00  0.00    +0.058 A 
ATOM      9  C   UNL     1      -2.999  -1.122  25.689  0.00  0.00    +0.025 A 
ATOM     10  C   UNL     1      -3.625  -1.625  25.505  0.00  0.00    +0.099 A 
ATOM     11  N   UNL     1      -3.539  -2.191  24.911  0.00  0.00    -0.242 NA
ATOM     12  C   UNL     1      -2.825  -2.253  24.502  0.00  0.00    +0.099 A 
ATOM     13  C   UNL     1      -2.198  -1.750  24.686  0.00  0.00    +0.025 A 
ENDBRANCH   6   8
ENDBRANCH   4   5
ENDBRANCH   3   4
BRANCH  16  17
ATOM     17  N   UNL     1      -0.612   3.492  25.432  0.00  0.00    -0.211 NA
BRANCH  17  18
ATOM     18  C   UNL     1      -1.077   4.160  25.297  0.00  0.00    +0.132 C 
ATOM     19  C   UNL     1      -1.824   4.412  25.544  0.00  0.00    +0.162 C 
ATOM     20  O   UNL     1      -1.735   5.105  25.106  0.00  0.00    -0.351 OA
ATOM     21  C   UNL     1      -0.989   4.854  24.859  0.00  0.00    +0.162 C 
ENDBRANCH  17  18
ENDBRANCH  16  17
TORSDOF 5
ENDMDL
MODEL 5
REMARK VINA RESULT:      -7.7      2.205      4.535
REMARK  Name = 
REMARK  5 active torsions:
REMARK  status: ('A' for Active; 'I' for Inactive)
REMARK    1  A    between atoms: C_3  and  C_4
REMARK    2  A    between atoms: C_4  and  N_5
REMARK    3  A    between atoms: C_6  and  C_8
REMARK    4  A    between atoms: C_16  and  N_17
REMARK    5  A    between atoms: N_17  and  C_18
REMARK                            x       y       z     vdW  Elec       q    Type
REMARK                         _______ _______ _______ _____ _____    ______ ____
ROOT
ATOM      1  O   UNL     1      -1.338   0.947  23.468  0.00  0.00    -0.219 OA
ATOM      2  C   UNL     1      -1.657   0.707  24.190  0.00  0.00    +0.199 C 
ATOM      3  C   UNL     1      -2.296   1.057  24.578  0.00  0.00    +0.169 C 
ATOM     14  O   UNL     1      -2.427   0.641  25.278  0.00  0.00    -0.350 OA
ATOM     15  C   UNL     1      -1.869   0.035  25.324  0.00  0.00    +0.162 C 
ATOM     16  C   UNL     1      -1.393   0.076  24.651  0.00  0.00    +0.135 C 
ENDROOT
BRANCH   3   4
ATOM      4  C   UNL     1      -2.728   1.707  24.312  0.00  0.00    +0.148 C 
BRANCH   4   5
ATOM      5  N   UNL     1      -3.379   1.974  24.742  0.00  0.00    -0.199 NA
ATOM      6  C   UNL     1      -3.862   2.568  24.435  0.00  0.00    +0.265 C 
ATOM      7  O   UNL     1      -3.694   2.894  23.696  0.00  0.00    -0.268 OA
BRANCH   6   8
ATOM      8  C   UNL     1      -4.513   2.835  24.865  0.00  0.00    +0.058 A 
ATOM      9  C   UNL     1      -5.184   2.361  24.936  0.00  0.00    +0.025 A 
ATOM     10  C   UNL     1      -5.835   2.628  25.366  0.00  0.00    +0.099 A 
ATOM     11  N   UNL     1      -5.815   3.370  25.726  0.00  0.00    -0.242 NA
ATOM     12  C   UNL     1      -5.143   3.845  25.655  0.00  0.00    +0.099 A 
ATOM     13  C   UNL     1      -4.493   3.578  25.225  0.00  0.00    +0.025 A 
ENDBRANCH   6   8
ENDBRANCH   4   5
ENDBRANCH   3   4
BRANCH  16  17
ATOM     17  N   UNL     1      -0.764  -0.426  24.471  0.00  0.00    -0.211 NA
BRANCH  17  18
ATOM     18  C   UNL     1      -0.777  -1.211  24.725  0.00  0.00    +0.132 C 
ATOM     19  C   UNL     1      -0.420  -1.632  25.339  0.00  0.00    +0.162 C 
ATOM     20  O   UNL     1      -0.796  -2.321  25.085  0.00  0.00    -0.351 OA
ATOM     21  C   UNL     1      -1.153  -1.901  24.473  0.00  0.00    +0.162 C 
ENDBRANCH  17  18
ENDBRANCH  16  17
TORSDOF 5
ENDMDL
MODEL 6
REMARK VINA RESULT:      -7.5     16.775     18.962
REMARK  Name = 
REMARK  5 active torsions:
REMARK  status: ('A' for Active; 'I' for Inactive)
REMARK    1  A    between atoms: C_3  and  C_4
REMARK    2  A    between atoms: C_4  and  N_5
REMARK    3  A    between atoms: C_6  and  C_8
REMARK    4  A    between atoms: C_16  and  N_17
REMARK    5  A    between atoms: N_17  and  C_18
REMARK                            x       y       z     vdW  Elec       q    Type
REMARK                         _______ _______ _______ _____ _____    ______ ____
ROOT
ATOM      1  O   UNL     1      11.980   7.505  19.071  0.00  0.00    -0.219 OA
ATOM      2  C   UNL     1      12.285   7.266  19.799  0.00  0.00    +0.199 C 
ATOM      3  C   UNL     1      13.067   7.055  19.952  0.00  0.00    +0.169 C 
ATOM     14  O   UNL     1      13.126   6.855  20.750  0.00  0.00    -0.350 OA
ATOM     15  C   UNL     1      12.380   6.943  21.091  0.00  0.00    +0.162 C 
ATOM     16  C   UNL     1      11.860   7.197  20.503  0.00  0.00    +0.135 C 
ENDROOT
BRANCH   3   4
ATOM      4  C   UNL     1      13.683   7.045  19.403  0.00  0.00    +0.148 C 
BRANCH   4   5
ATOM      5  N   UNL     1      14.456   6.906  19.653  0.00  0.00    -0.199 NA
ATOM      6  C   UNL     1      15.084   6.996  19.124  0.00  0.00    +0.265 C 
ATOM      7  O   UNL     1      14.936   7.224  18.345  0.00  0.00    -0.268 OA
BRANCH   6   8
ATOM      8  C   UNL     1      15.857   6.857  19.373  0.00  0.00    +0.058 A 
ATOM      9  C   UNL     1      16.259   6.185  19.117  0.00  0.00    +0.025 A 
ATOM     10  C   UNL     1      17.033   6.046  19.367  0.00  0.00    +0.099 A 
ATOM     11  N   UNL     1      17.405   6.581  19.874  0.00  0.00    -0.242 NA
ATOM     12  C   UNL     1      17.003   7.254  20.130  0.00  0.00    +0.099 A 
ATOM     13  C   UNL     1      16.229   7.393  19.880  0.00  0.00    +0.025 A 
ENDBRANCH   6   8
ENDBRANCH   4   5
ENDBRANCH   3   4
BRANCH  16  17
ATOM     17  N   UNL     1      11.056   7.355  20.602  0.00  0.00    -0.211 NA
BRANCH  17  18
ATOM     18  C   UNL     1      10.767   7.568  21.344  0.00  0.00    +0.132 C 
ATOM     19  C   UNL     1      10.647   8.282  21.741  0.00  0.00    +0.162 C 
ATOM     20  O   UNL     1      10.356   7.870  22.394  0.00  0.00    -0.351 OA
ATOM     21  C   UNL     1      10.476   7.157  21.998  0.00  0.00    +0.162 C 
ENDBRANCH  17  18
ENDBRANCH  16  17
TORSDOF 5
ENDMDL
MODEL 7
REMARK VINA RESULT:      -7.2     16.532     18.780
REMARK  Name = 
REMARK  5 active torsions:
REMARK  status: ('A' for Active; 'I' for Inactive)
REMARK    1  A    between atoms: C_3  and  C_4
REMARK    2  A    between atoms: C_4  and  N_5
REMARK    3  A    between atoms: C_6  and  C_8
REMARK    4  A    between atoms: C_16  and  N_17
REMARK    5  A    between atoms: N_17  and  C_18
REMARK                            x       y       z     vdW  Elec       q    Type
REMARK                         _______ _______ _______ _____ _____    ______ ____
ROOT
ATOM      1  O   UNL     1      13.934   7.524  18.362  0.00  0.00    -0.219 OA
ATOM      2  C   UNL     1      14.090   7.195  19.102  0.00  0.00    +0.199 C 
ATOM      3  C   UNL     1      13.546   7.098  19.714  0.00  0.00    +0.169 C 
ATOM     14  O   UNL     1      13.938   6.749  20.350  0.00  0.00    -0.350 OA
ATOM     15  C   UNL     1      14.725   6.630  20.132  0.00  0.00    +0.162 C 
ATOM     16  C   UNL     1      14.819   6.906  19.360  0.00  0.00    +0.135 C 
ENDROOT
BRANCH   3   4
ATOM      4  C   UNL     1      12.750   7.313  19.694  0.00  0.00    +0.148 C 
BRANCH   4   5
ATOM      5  N   UNL     1      12.362   7.526  20.390  0.00  0.00    -0.199 NA
ATOM      6  C   UNL     1      11.567   7.746  20.369  0.00  0.00    +0.265 C 
ATOM      7  O   UNL     1      11.160   7.752  19.651  0.00  0.00    -0.268 OA
BRANCH   6   8
ATOM      8  C   UNL     1      11.179   7.960  21.065  0.00  0.00    +0.058 A 
ATOM      9  C   UNL     1      10.826   7.381  21.535  0.00  0.00    +0.025 A 
ATOM     10  C   UNL     1      10.438   7.594  22.230  0.00  0.00    +0.099 A 
ATOM     11  N   UNL     1      10.403   8.387  22.457  0.00  0.00    -0.242 NA
ATOM     12  C   UNL     1      10.756   8.966  21.987  0.00  0.00    +0.099 A 
ATOM     13  C   UNL     1      11.144   8.753  21.291  0.00  0.00    +0.025 A 
ENDBRANCH   6   8
ENDBRANCH   4   5
ENDBRANCH   3   4
BRANCH  16  17
ATOM     17  N   UNL     1      15.518   6.894  18.923  0.00  0.00    -0.211 NA
BRANCH  17  18
ATOM     18  C   UNL     1      16.221   6.645  19.277  0.00  0.00    +0.132 C 
ATOM     19  C   UNL     1      16.752   6.976  19.816  0.00  0.00    +0.162 C 
ATOM     20  O   UNL     1      17.215   6.294  19.777  0.00  0.00    -0.351 OA
ATOM     21  C   UNL     1      16.684   5.964  19.238  0.00  0.00    +0.162 C 
ENDBRANCH  17  18
ENDBRANCH  16  17
TORSDOF 5
ENDMDL
MODEL 8
REMARK VINA RESULT:      -6.8     17.943     19.544
REMARK  Name = 
REMARK  5 active torsions:
REMARK  status: ('A' for Active; 'I' for Inactive)
REMARK    1  A    between atoms: C_3  and  C_4
REMARK    2  A    between atoms: C_4  and  N_5
REMARK    3  A    between atoms: C_6  and  C_8
REMARK    4  A    between atoms: C_16  and  N_17
REMARK    5  A    between atoms: N_17  and  C_18
REMARK                            x       y       z     vdW  Elec       q    Type
REMARK                         _______ _______ _______ _____ _____    ______ ____
ROOT
ATOM      1  O   UNL     1      11.805   7.553  19.333  0.00  0.00    -0.219 OA
ATOM      2  C   UNL     1      12.312   7.700  18.698  0.00  0.00    +0.199 C 
ATOM      3  C   UNL     1      13.112   7.505  18.661  0.00  0.00    +0.169 C 
ATOM     14  O   UNL     1      13.401   7.753  17.929  0.00  0.00    -0.350 OA
ATOM     15  C   UNL     1      12.779   8.101  17.514  0.00  0.00    +0.162 C 
ATOM     16  C   UNL     1      12.105   8.069  17.990  0.00  0.00    +0.135 C 
ENDROOT
BRANCH   3   4
ATOM      4  C   UNL     1      13.547   7.128  19.251  0.00  0.00    +0.148 C 
BRANCH   4   5
ATOM      5  N   UNL     1      14.372   7.135  19.224  0.00  0.00    -0.199 NA
ATOM      6  C   UNL     1      14.808   6.776  19.827  0.00  0.00    +0.265 C 
ATOM      7  O   UNL     1      14.418   6.412  20.456  0.00  0.00    -0.268 OA
BRANCH   6   8
ATOM      8  C   UNL     1      15.632   6.783  19.800  0.00  0.00    +0.058 A 
ATOM      9  C   UNL     1      16.035   6.210  19.366  0.00  0.00    +0.025 A 
ATOM     10  C   UNL     1      16.859   6.216  19.339  0.00  0.00    +0.099 A 
ATOM     11  N   UNL     1      17.281   6.796  19.747  0.00  0.00    -0.242 NA
ATOM     12  C   UNL     1      16.877   7.370  20.181  0.00  0.00    +0.099 A 
ATOM     13  C   UNL     1      16.053   7.364  20.208  0.00  0.00    +0.025 A 
ENDBRANCH   6   8
ENDBRANCH   4   5
ENDBRANCH   3   4
BRANCH  16  17
ATOM     17  N   UNL     1      11.358   8.354  17.791  0.00  0.00    -0.211 NA
BRANCH  17  18
ATOM     18  C   UNL     1      11.195   8.577  17.014  0.00  0.00    +0.132 C 
ATOM     19  C   UNL     1      11.540   9.094  16.470  0.00  0.00    +0.162 C 
ATOM     20  O   UNL     1      10.964   8.892  15.914  0.00  0.00    -0.351 OA
ATOM     21  C   UNL     1      10.619   8.377  16.457  0.00  0.00    +0.162 C 
ENDBRANCH  17  18
ENDBRANCH  16  17
TORSDOF 5
ENDMDL
MODEL 9
REMARK VINA RESULT:      -6.6     16.518     18.682
REMARK  Name = 
REMARK  5 active torsions:
REMARK  status: ('A' for Active; 'I' for Inactive)
REMARK    1  A    between atoms: C_3  and  C_4
REMARK    2  A    between atoms: C_4  and  N_5
REMARK    3  A    between atoms: C_6  and  C_8
REMARK    4  A    between atoms: C_16  and  N_17
REMARK    5  A    between atoms: N_17  and  C_18
REMARK                            x       y       z     vdW  Elec       q    Type
REMARK                         _______ _______ _______ _____ _____    ______ ____
ROOT
ATOM      1  O   UNL     1      14.614   8.377  18.856  0.00  0.00    -0.219 OA
ATOM      2  C   UNL     1      13.948   8.076  18.473  0.00  0.00    +0.199 C 
ATOM      3  C   UNL     1      13.374   7.588  18.809  0.00  0.00    +0.169 C 
ATOM     14  O   UNL     1      12.812   7.421  18.230  0.00  0.00    -0.350 OA
ATOM     15  C   UNL     1      13.037   7.805  17.535  0.00  0.00    +0.162 C 
ATOM     16  C   UNL     1      13.741   8.210  17.686  0.00  0.00    +0.135 C 
ENDROOT
BRANCH   3   4
ATOM      4  C   UNL     1      13.365   7.316  19.587  0.00  0.00    +0.148 C 
BRANCH   4   5
ATOM      5  N   UNL     1      12.649   7.247  19.992  0.00  0.00    -0.199 NA
ATOM      6  C   UNL     1      12.642   7.000  20.779  0.00  0.00    +0.265 C 
ATOM      7  O   UNL     1      13.351   6.822  21.162  0.00  0.00    -0.268 OA
BRANCH   6   8
ATOM      8  C   UNL     1      11.927   6.931  21.184  0.00  0.00    +0.058 A 
ATOM      9  C   UNL     1      11.592   6.188  21.307  0.00  0.00    +0.025 A 
ATOM     10  C   UNL     1      10.877   6.119  21.711  0.00  0.00    +0.099 A 
ATOM     11  N   UNL     1      10.495   6.794  21.993  0.00  0.00    -0.242 NA
ATOM     12  C   UNL     1      10.831   7.538  21.870  0.00  0.00    +0.099 A 
ATOM     13  C   UNL     1      11.546   7.607  21.466  0.00  0.00    +0.025 A 
ENDBRANCH   6   8
ENDBRANCH   4   5
ENDBRANCH   3   4
BRANCH  16  17
ATOM     17  N   UNL     1      14.161   8.668  17.144  0.00  0.00    -0.211 NA
BRANCH  17  18
ATOM     18  C   UNL     1      13.916   8.705  16.357  0.00  0.00    +0.132 C 
ATOM     19  C   UNL     1      13.310   9.094  15.952  0.00  0.00    +0.162 C 
ATOM     20  O   UNL     1      13.569   8.757  15.244  0.00  0.00    -0.351 OA
ATOM     21  C   UNL     1      14.173   8.369  15.649  0.00  0.00    +0.162 C 
ENDBRANCH  17  18
ENDBRANCH  16  17
TORSDOF 5
ENDMDL
MODEL 10
REMARK VINA RESULT:      -6.1     18.078     19.418
REMARK  Name = 
REMARK  5 active torsions:
REMARK  status: ('A' for Active; 'I' for Inactive)
REMARK    1  A    between atoms: C_3  and  C_4
REMARK    2  A    between atoms: C_4  and  N_5
REMARK    3  A    between atoms: C_6  and  C_8
REMARK    4  A    between atoms: C_16  and  N_17
REMARK    5  A    between atoms: N_17  and  C_18
REMARK                            x       y       z     vdW  Elec       q    Type
REMARK                         _______ _______ _______ _____ _____    ______ ____
ROOT
ATOM      1  O   UNL     1      13.153   6.515  20.179  0.00  0.00    -0.219 OA
ATOM      2  C   UNL     1      13.669   7.079  19.868  0.00  0.00    +0.199 C 
ATOM      3  C   UNL     1      13.460   7.718  19.390  0.00  0.00    +0.169 C 
ATOM     14  O   UNL     1      14.148   8.135  19.208  0.00  0.00    -0.350 OA
ATOM     15  C   UNL     1      14.782   7.755  19.574  0.00  0.00    +0.162 C 
ATOM     16  C   UNL     1      14.486   7.101  19.982  0.00  0.00    +0.135 C 
ENDROOT
BRANCH   3   4
ATOM      4  C   UNL     1      12.698   7.906  19.139  0.00  0.00    +0.148 C 
BRANCH   4   5
ATOM      5  N   UNL     1      12.569   8.156  18.363  0.00  0.00    -0.199 NA
ATOM      6  C   UNL     1      11.805   8.336  18.109  0.00  0.00    +0.265 C 
ATOM      7  O   UNL     1      11.170   8.266  18.631  0.00  0.00    -0.268 OA
BRANCH   6   8
ATOM      8  C   UNL     1      11.676   8.587  17.334  0.00  0.00    +0.058 A 
ATOM      9  C   UNL     1      10.914   8.583  17.020  0.00  0.00    +0.025 A 
ATOM     10  C   UNL     1      10.785   8.833  16.245  0.00  0.00    +0.099 A 
ATOM     11  N   UNL     1      11.419   9.088  15.783  0.00  0.00    -0.242 NA
ATOM     12  C   UNL     1      12.182   9.091  16.097  0.00  0.00    +0.099 A 
ATOM     13  C   UNL     1      12.311   8.841  16.872  0.00  0.00    +0.025 A 
ENDBRANCH   6   8
ENDBRANCH   4   5
ENDBRANCH   3   4
BRANCH  16  17
ATOM     17  N   UNL     1      14.929   6.566  20.425  0.00  0.00    -0.211 NA
BRANCH  17  18
ATOM     18  C   UNL     1      15.741   6.494  20.295  0.00  0.00    +0.132 C 
ATOM     19  C   UNL     1      16.211   6.107  19.737  0.00  0.00    +0.162 C 
ATOM     20  O   UNL     1      16.889   6.394  20.110  0.00  0.00    -0.351 OA
ATOM     21  C   UNL     1      16.420   6.780  20.667  0.00  0.00    +0.162 C 
ENDBRANCH  17  18
ENDBRANCH  16  17
TORSDOF 5
ENDMDL
