MODEL 1
REMARK VINA RESULT:     -14.5      0.000      0.000
REMARK  Name = 
REMARK  5 active torsions:
REMARK  status: ('A' for Active; 'I' for Inactive)
REMARK    1  A    between atoms: C_2  and  C_5
REMARK    2  A    between atoms: C_8  and  C_9
REMARK    3  A    between atoms: C_9  and  N_10
REMARK    4  A    between atoms: C_13  and  C_15
REMARK    5  A    between atoms: C_21  and  C_24
REMARK                            x       y       z     vdW  Elec       q    Type
REMARK                         _______ _______ _______ _____ _____    ______ ____
ROOT
ATOM     10  N   UNL     1      -4.235   2.734  25.173  0.00  0.00    -0.269 NA
ATOM     11  C   UNL     1      -4.735   2.633  24.524  0.00  0.00    +0.073 C 
ATOM     12  C   UNL     1      -4.744   1.830  24.332  0.00  0.00    +0.026 C 
ATOM     13  C   UNL     1      -4.249   1.435  24.862  0.00  0.00    +0.076 C 
ATOM     14  C   UNL     1      -3.935   1.994  25.381  0.00  0.00    +0.080 C 
ENDROOT
BRANCH  13  15
ATOM     15  C   UNL     1      -4.097   0.625  24.871  0.00  0.00    +0.140 A 
ATOM     16  N   UNL     1      -3.824   0.190  25.516  0.00  0.00    -0.229 NA
ATOM     17  C   UNL     1      -3.749  -0.597  25.280  0.00  0.00    +0.100 A 
ATOM     18  C   UNL     1      -3.975  -0.648  24.488  0.00  0.00    +0.100 A 
ATOM     19  N   UNL     1      -4.191   0.107  24.235  0.00  0.00    -0.229 NA
ATOM     20  C   UNL     1      -3.956  -1.376  24.101  0.00  0.00    +0.025 A 
ATOM     21  C   UNL     1      -3.711  -2.052  24.504  0.00  0.00    +0.073 A 
ATOM     22  C   UNL     1      -3.485  -2.001  25.295  0.00  0.00    +0.005 A 
ATOM     23  C   UNL     1      -3.503  -1.274  25.684  0.00  0.00    +0.021 A 
BRANCH  21  24
ATOM     24  C   UNL     1      -3.692  -2.779  24.116  0.00  0.00    +0.419 C 
ATOM     25  F   UNL     1      -3.673  -3.508  23.728  0.00  0.00    -0.166 F 
ATOM     26  F   UNL     1      -4.506  -2.734  23.989  0.00  0.00    -0.166 F 
ATOM     27  F   UNL     1      -2.878  -2.826  24.242  0.00  0.00    -0.166 F 
ENDBRANCH  21  24
ENDBRANCH  13  15
BRANCH  10   9
ATOM      9  C   UNL     1      -4.064   3.449  25.547  0.00  0.00    +0.099 C 
BRANCH   9   8
ATOM      5  C   UNL     1      -1.875   4.544  25.185  0.00  0.00    +0.071 A 
ATOM      6  C   UNL     1      -2.028   4.155  25.896  0.00  0.00    +0.004 A 
ATOM      7  C   UNL     1      -2.758   3.789  26.017  0.00  0.00    -0.003 A 
ATOM      8  C   UNL     1      -3.334   3.814  25.426  0.00  0.00    -0.006 A 
ATOM     28  C   UNL     1      -3.180   4.204  24.715  0.00  0.00    -0.003 A 
ATOM     29  C   UNL     1      -2.450   4.569  24.595  0.00  0.00    +0.004 A 
BRANCH   5   2
ATOM      1  F   UNL     1      -0.414   5.274  24.945  0.00  0.00    -0.166 F 
ATOM      2  C   UNL     1      -1.144   4.909  25.065  0.00  0.00    +0.419 C 
ATOM      3  F   UNL     1      -0.840   4.203  24.767  0.00  0.00    -0.166 F 
ATOM      4  F   UNL     1      -1.447   5.615  25.364  0.00  0.00    -0.166 F 
ENDBRANCH   5   2
ENDBRANCH   9   8
ENDBRANCH  10   9
TORSDOF 5
ENDMDL
MODEL 2
REMARK VINA RESULT:     -14.2      0.881      6.025
REMARK  Name = 
REMARK  5 active torsions:
REMARK  status: ('A' for Active; 'I' for Inactive)
REMARK    1  A    between atoms: C_2  and  C_5
REMARK    2  A    between atoms: C_8  and  C_9
REMARK    3  A    between atoms: C_9  and  N_10
REMARK    4  A    between atoms: C_13  and  C_15
REMARK    5  A    between atoms: C_21  and  C_24
REMARK                            x       y       z     vdW  Elec       q    Type
REMARK                         _______ _______ _______ _____ _____    ______ ____
ROOT
ATOM     10  N   UNL     1      -4.231   0.661  24.995  0.00  0.00    -0.269 NA
ATOM     11  C   UNL     1      -4.584   1.092  24.387  0.00  0.00    +0.073 C 
ATOM     12  C   UNL     1      -4.141   1.779  24.271  0.00  0.00    +0.026 C 
ATOM     13  C   UNL     1      -3.515   1.772  24.809  0.00  0.00    +0.076 C 
ATOM     14  C   UNL     1      -3.570   1.081  25.256  0.00  0.00    +0.080 C 
ENDROOT
BRANCH  13  15
ATOM     15  C   UNL     1      -2.935   2.354  24.885  0.00  0.00    +0.140 A 
ATOM     16  N   UNL     1      -2.137   2.225  25.049  0.00  0.00    -0.229 NA
ATOM     17  C   UNL     1      -1.761   2.958  25.076  0.00  0.00    +0.100 A 
ATOM     18  C   UNL     1      -2.326   3.541  24.929  0.00  0.00    +0.100 A 
ATOM     19  N   UNL     1      -3.052   3.168  24.811  0.00  0.00    -0.229 NA
ATOM     20  C   UNL     1      -2.106   4.336  24.922  0.00  0.00    +0.025 A 
ATOM     21  C   UNL     1      -1.322   4.549  25.061  0.00  0.00    +0.073 A 
ATOM     22  C   UNL     1      -0.757   3.966  25.209  0.00  0.00    +0.005 A 
ATOM     23  C   UNL     1      -0.975   3.171  25.216  0.00  0.00    +0.021 A 
BRANCH  21  24
ATOM     24  C   UNL     1      -1.102   5.344  25.054  0.00  0.00    +0.419 C 
ATOM     25  F   UNL     1      -0.883   6.139  25.047  0.00  0.00    -0.166 F 
ATOM     26  F   UNL     1      -0.494   5.172  24.524  0.00  0.00    -0.166 F 
ATOM     27  F   UNL     1      -1.710   5.517  25.584  0.00  0.00    -0.166 F 
ENDBRANCH  21  24
ENDBRANCH  13  15
BRANCH  10   9
ATOM      9  C   UNL     1      -4.492  -0.063  25.291  0.00  0.00    +0.099 C 
BRANCH   9   8
ATOM      5  C   UNL     1      -3.448  -2.168  24.514  0.00  0.00    +0.071 A 
ATOM      6  C   UNL     1      -3.240  -1.850  25.247  0.00  0.00    +0.004 A 
ATOM      7  C   UNL     1      -3.588  -1.149  25.506  0.00  0.00    -0.003 A 
ATOM      8  C   UNL     1      -4.144  -0.765  25.032  0.00  0.00    -0.006 A 
ATOM     28  C   UNL     1      -4.352  -1.082  24.299  0.00  0.00    -0.003 A 
ATOM     29  C   UNL     1      -4.004  -1.785  24.041  0.00  0.00    +0.004 A 
BRANCH   5   2
ATOM      1  F   UNL     1      -2.750  -3.572  23.997  0.00  0.00    -0.166 F 
ATOM      2  C   UNL     1      -3.100  -2.870  24.256  0.00  0.00    +0.419 C 
ATOM      3  F   UNL     1      -2.379  -2.479  24.164  0.00  0.00    -0.166 F 
ATOM      4  F   UNL     1      -3.819  -3.262  24.347  0.00  0.00    -0.166 F 
ENDBRANCH   5   2
ENDBRANCH   9   8
ENDBRANCH  10   9
TORSDOF 5
ENDMDL
MODEL 3
REMARK VINA RESULT:     -14.1      1.672      6.341
REMARK  Name = 
REMARK  5 active torsions:
REMARK  status: ('A' for Active; 'I' for Inactive)
REMARK    1  A    between atoms: C_2  and  C_5
REMARK    2  A    between atoms: C_8  and  C_9
REMARK    3  A    between atoms: C_9  and  N_10
REMARK    4  A    between atoms: C_13  and  C_15
REMARK    5  A    between atoms: C_21  and  C_24
REMARK                            x       y       z     vdW  Elec       q    Type
REMARK                         _______ _______ _______ _____ _____    ______ ____
ROOT
ATOM     10  N   UNL     1      -1.422  -0.347  25.424  0.00  0.00    -0.269 NA
ATOM     11  C   UNL     1      -0.725  -0.243  24.994  0.00  0.00    +0.073 C 
ATOM     12  C   UNL     1      -0.638   0.563  24.840  0.00  0.00    +0.026 C 
ATOM     13  C   UNL     1      -1.282   0.957  25.175  0.00  0.00    +0.076 C 
ATOM     14  C   UNL     1      -1.766   0.395  25.535  0.00  0.00    +0.080 C 
ENDROOT
BRANCH  13  15
ATOM     15  C   UNL     1      -1.417   1.771  25.152  0.00  0.00    +0.140 A 
ATOM     16  N   UNL     1      -2.154   2.140  25.126  0.00  0.00    -0.229 NA
ATOM     17  C   UNL     1      -2.031   2.955  25.110  0.00  0.00    +0.100 A 
ATOM     18  C   UNL     1      -1.218   3.090  25.124  0.00  0.00    +0.100 A 
ATOM     19  N   UNL     1      -0.838   2.359  25.151  0.00  0.00    -0.229 NA
ATOM     20  C   UNL     1      -0.928   3.863  25.112  0.00  0.00    +0.025 A 
ATOM     21  C   UNL     1      -1.452   4.499  25.085  0.00  0.00    +0.073 A 
ATOM     22  C   UNL     1      -2.265   4.364  25.070  0.00  0.00    +0.005 A 
ATOM     23  C   UNL     1      -2.556   3.592  25.082  0.00  0.00    +0.021 A 
BRANCH  21  24
ATOM     24  C   UNL     1      -1.162   5.271  25.073  0.00  0.00    +0.419 C 
ATOM     25  F   UNL     1      -0.872   6.044  25.061  0.00  0.00    -0.166 F 
ATOM     26  F   UNL     1      -1.726   5.492  25.633  0.00  0.00    -0.166 F 
ATOM     27  F   UNL     1      -0.598   5.051  24.513  0.00  0.00    -0.166 F 
ENDBRANCH  21  24
ENDBRANCH  13  15
BRANCH  10   9
ATOM      9  C   UNL     1      -1.722  -1.066  25.695  0.00  0.00    +0.099 C 
BRANCH   9   8
ATOM      5  C   UNL     1      -3.503  -2.221  24.423  0.00  0.00    +0.071 A 
ATOM      6  C   UNL     1      -3.702  -1.677  25.009  0.00  0.00    +0.004 A 
ATOM      7  C   UNL     1      -3.109  -1.291  25.434  0.00  0.00    -0.003 A 
ATOM      8  C   UNL     1      -2.315  -1.451  25.270  0.00  0.00    -0.006 A 
ATOM     28  C   UNL     1      -2.116  -1.996  24.684  0.00  0.00    -0.003 A 
ATOM     29  C   UNL     1      -2.711  -2.381  24.260  0.00  0.00    +0.004 A 
BRANCH   5   2
ATOM      1  F   UNL     1      -4.692  -2.991  23.575  0.00  0.00    -0.166 F 
ATOM      2  C   UNL     1      -4.097  -2.606  23.999  0.00  0.00    +0.419 C 
ATOM      3  F   UNL     1      -4.272  -1.902  23.605  0.00  0.00    -0.166 F 
ATOM      4  F   UNL     1      -3.923  -3.309  24.392  0.00  0.00    -0.166 F 
ENDBRANCH   5   2
ENDBRANCH   9   8
ENDBRANCH  10   9
TORSDOF 5
ENDMDL
MODEL 4
REMARK VINA RESULT:     -14.0      1.761      2.274
REMARK  Name = 
REMARK  5 active torsions:
REMARK  status: ('A' for Active; 'I' for Inactive)
REMARK    1  A    between atoms: C_2  and  C_5
REMARK    2  A    between atoms: C_8  and  C_9
REMARK    3  A    between atoms: C_9  and  N_10
REMARK    4  A    between atoms: C_13  and  C_15
REMARK    5  A    between atoms: C_21  and  C_24
REMARK                            x       y       z     vdW  Elec       q    Type
REMARK                         _______ _______ _______ _____ _____    ______ ____
ROOT
ATOM     10  N   UNL     1      -0.598   1.594  25.257  0.00  0.00    -0.269 NA
ATOM     11  C   UNL     1      -0.190   1.285  24.609  0.00  0.00    +0.073 C 
ATOM     12  C   UNL     1      -0.625   0.648  24.314  0.00  0.00    +0.026 C 
ATOM     13  C   UNL     1      -1.302   0.564  24.780  0.00  0.00    +0.076 C 
ATOM     14  C   UNL     1      -1.284   1.148  25.362  0.00  0.00    +0.080 C 
ENDROOT
BRANCH  13  15
ATOM     15  C   UNL     1      -1.891  -0.004  24.680  0.00  0.00    +0.140 A 
ATOM     16  N   UNL     1      -2.675   0.142  24.471  0.00  0.00    -0.229 NA
ATOM     17  C   UNL     1      -3.068  -0.582  24.434  0.00  0.00    +0.100 A 
ATOM     18  C   UNL     1      -2.527  -1.176  24.621  0.00  0.00    +0.100 A 
ATOM     19  N   UNL     1      -1.799  -0.819  24.773  0.00  0.00    -0.229 NA
ATOM     20  C   UNL     1      -2.767  -1.966  24.627  0.00  0.00    +0.025 A 
ATOM     21  C   UNL     1      -3.548  -2.161  24.448  0.00  0.00    +0.073 A 
ATOM     22  C   UNL     1      -4.089  -1.567  24.262  0.00  0.00    +0.005 A 
ATOM     23  C   UNL     1      -3.850  -0.778  24.255  0.00  0.00    +0.021 A 
BRANCH  21  24
ATOM     24  C   UNL     1      -3.787  -2.950  24.455  0.00  0.00    +0.419 C 
ATOM     25  F   UNL     1      -4.028  -3.740  24.462  0.00  0.00    -0.166 F 
ATOM     26  F   UNL     1      -3.620  -2.994  25.262  0.00  0.00    -0.166 F 
ATOM     27  F   UNL     1      -3.955  -2.906  23.648  0.00  0.00    -0.166 F 
ENDBRANCH  21  24
ENDBRANCH  13  15
BRANCH  10   9
ATOM      9  C   UNL     1      -0.360   2.235  25.718  0.00  0.00    +0.099 C 
BRANCH   9   8
ATOM      5  C   UNL     1      -1.230   4.500  25.229  0.00  0.00    +0.071 A 
ATOM      6  C   UNL     1      -0.546   4.231  24.854  0.00  0.00    +0.004 A 
ATOM      7  C   UNL     1      -0.256   3.476  25.017  0.00  0.00    -0.003 A 
ATOM      8  C   UNL     1      -0.651   2.990  25.555  0.00  0.00    -0.006 A 
ATOM     28  C   UNL     1      -1.334   3.259  25.930  0.00  0.00    -0.003 A 
ATOM     29  C   UNL     1      -1.624   4.015  25.767  0.00  0.00    +0.004 A 
BRANCH   5   2
ATOM      1  F   UNL     1      -1.808   6.011  24.903  0.00  0.00    -0.166 F 
ATOM      2  C   UNL     1      -1.519   5.256  25.066  0.00  0.00    +0.419 C 
ATOM      3  F   UNL     1      -0.751   5.557  25.100  0.00  0.00    -0.166 F 
ATOM      4  F   UNL     1      -2.286   4.955  25.033  0.00  0.00    -0.166 F 
ENDBRANCH   5   2
ENDBRANCH   9   8
ENDBRANCH  10   9
TORSDOF 5
ENDMDL
MODEL 5
REMARK VINA RESULT:     -12.7      2.084      2.600
REMARK  Name = 
REMARK  5 active torsions:
REMARK  status: ('A' for Active; 'I' for Inactive)
REMARK    1  A    between atoms: C_2  and  C_5
REMARK    2  A    between atoms: C_8  and  C_9
REMARK    3  A    between atoms: C_9  and  N_10
REMARK    4  A    between atoms: C_13  and  C_15
REMARK    5  A    between atoms: C_21  and  C_24
REMARK                            x       y       z     vdW  Elec       q    Type
REMARK                         _______ _______ _______ _____ _____    ______ ____
ROOT
ATOM     10  N   UNL     1      -1.907   2.326  24.940  0.00  0.00    -0.269 NA
ATOM     11  C   UNL     1      -1.207   2.143  25.337  0.00  0.00    +0.073 C 
ATOM     12  C   UNL     1      -1.143   1.321  25.375  0.00  0.00    +0.026 C 
ATOM     13  C   UNL     1      -1.804   0.996  25.001  0.00  0.00    +0.076 C 
ATOM     14  C   UNL     1      -2.275   1.617  24.732  0.00  0.00    +0.080 C 
ENDROOT
BRANCH  13  15
ATOM     15  C   UNL     1      -1.964   0.192  24.912  0.00  0.00    +0.140 A 
ATOM     16  N   UNL     1      -1.405  -0.404  24.800  0.00  0.00    -0.229 NA
ATOM     17  C   UNL     1      -1.807  -1.122  24.738  0.00  0.00    +0.100 A 
ATOM     18  C   UNL     1      -2.614  -0.969  24.812  0.00  0.00    +0.100 A 
ATOM     19  N   UNL     1      -2.712  -0.158  24.920  0.00  0.00    -0.229 NA
ATOM     20  C   UNL     1      -3.156  -1.590  24.772  0.00  0.00    +0.025 A 
ATOM     21  C   UNL     1      -2.891  -2.363  24.658  0.00  0.00    +0.073 A 
ATOM     22  C   UNL     1      -2.084  -2.515  24.584  0.00  0.00    +0.005 A 
ATOM     23  C   UNL     1      -1.541  -1.895  24.624  0.00  0.00    +0.021 A 
BRANCH  21  24
ATOM     24  C   UNL     1      -3.433  -2.983  24.618  0.00  0.00    +0.419 C 
ATOM     25  F   UNL     1      -3.975  -3.604  24.578  0.00  0.00    -0.166 F 
ATOM     26  F   UNL     1      -3.469  -3.005  25.442  0.00  0.00    -0.166 F 
ATOM     27  F   UNL     1      -3.397  -2.961  23.794  0.00  0.00    -0.166 F 
ENDBRANCH  21  24
ENDBRANCH  13  15
BRANCH  10   9
ATOM      9  C   UNL     1      -2.189   3.084  24.778  0.00  0.00    +0.099 C 
BRANCH   9   8
ATOM      5  C   UNL     1      -4.532   3.674  25.313  0.00  0.00    +0.071 A 
ATOM      6  C   UNL     1      -3.948   3.740  25.892  0.00  0.00    +0.004 A 
ATOM      7  C   UNL     1      -3.166   3.543  25.714  0.00  0.00    -0.003 A 
ATOM      8  C   UNL     1      -2.970   3.281  24.956  0.00  0.00    -0.006 A 
ATOM     28  C   UNL     1      -3.554   3.215  24.378  0.00  0.00    -0.003 A 
ATOM     29  C   UNL     1      -4.335   3.412  24.557  0.00  0.00    +0.004 A 
BRANCH   5   2
ATOM      1  F   UNL     1      -6.094   4.068  25.671  0.00  0.00    -0.166 F 
ATOM      2  C   UNL     1      -5.313   3.871  25.492  0.00  0.00    +0.419 C 
ATOM      3  F   UNL     1      -5.164   4.654  25.280  0.00  0.00    -0.166 F 
ATOM      4  F   UNL     1      -5.462   3.089  25.705  0.00  0.00    -0.166 F 
ENDBRANCH   5   2
ENDBRANCH   9   8
ENDBRANCH  10   9
TORSDOF 5
ENDMDL
