MODEL 1
REMARK VINA RESULT:     -11.2      0.000      0.000
REMARK  Name = 
REMARK  5 active torsions:
REMARK  status: ('A' for Active; 'I' for Inactive)
REMARK    1  A    between atoms: N_4  and  C_5
REMARK    2  A    between atoms: C_8  and  C_9
REMARK    3  A    between atoms: C_9  and  N_10
REMARK    4  A    between atoms: C_15  and  C_16
REMARK    5  A    between atoms: C_18  and  C_21
REMARK                            x       y       z     vdW  Elec       q    Type
REMARK                         _______ _______ _______ _____ _____    ______ ____
ROOT
ATOM     10  N   UNL     1      -4.596   1.578  24.991  0.00  0.00    -0.260 NA
ATOM     11  C   UNL     1      -5.257   1.258  25.366  0.00  0.00    +0.106 C 
ATOM     12  C   UNL     1      -5.687   1.879  25.698  0.00  0.00    +0.170 C 
ATOM     13  O   UNL     1      -6.389   1.809  26.126  0.00  0.00    -0.222 OA
ATOM     14  C   UNL     1      -5.291   2.582  25.528  0.00  0.00    +0.060 C 
ATOM     15  C   UNL     1      -4.616   2.396  25.090  0.00  0.00    +0.140 C 
ENDROOT
BRANCH  15  16
ATOM     16  C   UNL     1      -4.061   2.933  24.803  0.00  0.00    +0.251 A 
ATOM     17  N   UNL     1      -3.343   3.127  25.163  0.00  0.00    -0.188 NA
ATOM     18  C   UNL     1      -2.964   3.685  24.688  0.00  0.00    +0.223 A 
ATOM     19  N   UNL     1      -3.445   3.835  24.036  0.00  0.00    -0.054 NA
ATOM     20  O   UNL     1      -4.122   3.371  24.107  0.00  0.00    -0.336 OA
BRANCH  18  21
ATOM     21  C   UNL     1      -2.230   4.031  24.839  0.00  0.00    +0.139 A 
ATOM     22  C   UNL     1      -2.189   4.815  25.094  0.00  0.00    +0.121 A 
ATOM     23  N   UNL     1      -1.456   5.161  25.245  0.00  0.00    -0.239 NA
ATOM     24  C   UNL     1      -0.764   4.724  25.142  0.00  0.00    +0.120 A 
ATOM     25  C   UNL     1      -0.804   3.941  24.887  0.00  0.00    +0.120 A 
ATOM     26  N   UNL     1      -1.538   3.594  24.736  0.00  0.00    -0.237 NA
ENDBRANCH  18  21
ENDBRANCH  15  16
BRANCH  10   9
ATOM      9  C   UNL     1      -4.016   1.153  24.586  0.00  0.00    +0.100 C 
BRANCH   9   8
ATOM      5  C   UNL     1      -3.930  -1.314  24.775  0.00  0.00    +0.073 A 
ATOM      6  C   UNL     1      -4.300  -0.962  24.126  0.00  0.00    +0.016 A 
ATOM      7  C   UNL     1      -4.328  -0.141  24.063  0.00  0.00    -0.002 A 
ATOM      8  C   UNL     1      -3.988   0.330  24.649  0.00  0.00    -0.006 A 
ATOM     27  C   UNL     1      -3.618  -0.021  25.298  0.00  0.00    -0.002 A 
ATOM     28  C   UNL     1      -3.590  -0.844  25.360  0.00  0.00    +0.016 A 
BRANCH   5   4
ATOM      1  C   UNL     1      -3.214  -3.370  24.623  0.00  0.00    +0.097 C 
ATOM      2  C   UNL     1      -3.242  -2.548  24.560  0.00  0.00    +0.246 C 
ATOM      3  O   UNL     1      -2.612  -2.138  24.221  0.00  0.00    -0.273 OA
ATOM      4  N   UNL     1      -3.902  -2.136  24.837  0.00  0.00    -0.179 NA
ENDBRANCH   5   4
ENDBRANCH   9   8
ENDBRANCH  10   9
TORSDOF 5
ENDMDL
MODEL 2
REMARK VINA RESULT:     -10.1      2.352      3.295
REMARK  Name = 
REMARK  5 active torsions:
REMARK  status: ('A' for Active; 'I' for Inactive)
REMARK    1  A    between atoms: N_4  and  C_5
REMARK    2  A    between atoms: C_8  and  C_9
REMARK    3  A    between atoms: C_9  and  N_10
REMARK    4  A    between atoms: C_15  and  C_16
REMARK    5  A    between atoms: C_18  and  C_21
REMARK                            x       y       z     vdW  Elec       q    Type
REMARK                         _______ _______ _______ _____ _____    ______ ____
ROOT
ATOM     10  N   UNL     1      -0.700   0.491  24.726  0.00  0.00    -0.260 NA
ATOM     11  C   UNL     1      -0.445  -0.104  24.214  0.00  0.00    +0.106 C 
ATOM     12  C   UNL     1       0.173   0.201  23.759  0.00  0.00    +0.170 C 
ATOM     13  O   UNL     1       0.591  -0.206  23.176  0.00  0.00    -0.222 OA
ATOM     14  C   UNL     1       0.298   0.983  23.989  0.00  0.00    +0.060 C 
ATOM     15  C   UNL     1      -0.242   1.162  24.587  0.00  0.00    +0.140 C 
ENDROOT
BRANCH  15  16
ATOM     16  C   UNL     1      -0.311   1.885  24.978  0.00  0.00    +0.251 A 
ATOM     17  N   UNL     1      -0.755   2.533  24.724  0.00  0.00    -0.188 NA
ATOM     18  C   UNL     1      -0.666   3.136  25.280  0.00  0.00    +0.223 A 
ATOM     19  N   UNL     1      -0.169   2.861  25.877  0.00  0.00    -0.054 NA
ATOM     20  O   UNL     1       0.051   2.089  25.690  0.00  0.00    -0.336 OA
BRANCH  18  21
ATOM     21  C   UNL     1      -1.015   3.883  25.244  0.00  0.00    +0.139 A 
ATOM     22  C   UNL     1      -0.600   4.517  24.918  0.00  0.00    +0.121 A 
ATOM     23  N   UNL     1      -0.949   5.264  24.883  0.00  0.00    -0.239 NA
ATOM     24  C   UNL     1      -1.713   5.377  25.173  0.00  0.00    +0.120 A 
ATOM     25  C   UNL     1      -2.128   4.743  25.499  0.00  0.00    +0.120 A 
ATOM     26  N   UNL     1      -1.779   3.996  25.535  0.00  0.00    -0.237 NA
ENDBRANCH  18  21
ENDBRANCH  15  16
BRANCH  10   9
ATOM      9  C   UNL     1      -1.308   0.425  25.279  0.00  0.00    +0.100 C 
BRANCH   9   8
ATOM      5  C   UNL     1      -3.010  -1.357  25.043  0.00  0.00    +0.073 A 
ATOM      6  C   UNL     1      -3.098  -0.646  24.634  0.00  0.00    +0.016 A 
ATOM      7  C   UNL     1      -2.532  -0.052  24.713  0.00  0.00    -0.002 A 
ATOM      8  C   UNL     1      -1.876  -0.169  25.200  0.00  0.00    -0.006 A 
ATOM     27  C   UNL     1      -1.787  -0.881  25.609  0.00  0.00    -0.002 A 
ATOM     28  C   UNL     1      -2.355  -1.475  25.529  0.00  0.00    +0.016 A 
BRANCH   5   4
ATOM      1  C   UNL     1      -4.007  -3.181  24.377  0.00  0.00    +0.097 C 
ATOM      2  C   UNL     1      -3.440  -2.588  24.456  0.00  0.00    +0.246 C 
ATOM      3  O   UNL     1      -2.737  -2.629  24.028  0.00  0.00    -0.273 OA
ATOM      4  N   UNL     1      -3.577  -1.951  24.964  0.00  0.00    -0.179 NA
ENDBRANCH   5   4
ENDBRANCH   9   8
ENDBRANCH  10   9
TORSDOF 5
ENDMDL
MODEL 3
REMARK VINA RESULT:     -10.0      1.248      5.176
REMARK  Name = 
REMARK  5 active torsions:
REMARK  status: ('A' for Active; 'I' for Inactive)
REMARK    1  A    between atoms: N_4  and  C_5
REMARK    2  A    between atoms: C_8  and  C_9
REMARK    3  A    between atoms: C_9  and  N_10
REMARK    4  A    between atoms: C_15  and  C_16
REMARK    5  A    between atoms: C_18  and  C_21
REMARK                            x       y       z     vdW  Elec       q    Type
REMARK                         _______ _______ _______ _____ _____    ______ ____
ROOT
ATOM     10  N   UNL     1      -4.117   1.924  25.050  0.00  0.00    -0.260 NA
ATOM     11  C   UNL     1      -4.612   2.504  25.363  0.00  0.00    +0.106 C 
ATOM     12  C   UNL     1      -5.385   2.215  25.346  0.00  0.00    +0.170 C 
ATOM     13  O   UNL     1      -6.058   2.614  25.608  0.00  0.00    -0.222 OA
ATOM     14  C   UNL     1      -5.367   1.457  25.022  0.00  0.00    +0.060 C 
ATOM     15  C   UNL     1      -4.582   1.277  24.839  0.00  0.00    +0.140 C 
ENDROOT
BRANCH  15  16
ATOM     16  C   UNL     1      -4.311   0.574  24.504  0.00  0.00    +0.251 A 
ATOM     17  N   UNL     1      -4.236  -0.151  24.892  0.00  0.00    -0.188 NA
ATOM     18  C   UNL     1      -3.946  -0.701  24.349  0.00  0.00    +0.223 A 
ATOM     19  N   UNL     1      -3.843  -0.316  23.627  0.00  0.00    -0.054 NA
ATOM     20  O   UNL     1      -4.068   0.470  23.723  0.00  0.00    -0.336 OA
BRANCH  18  21
ATOM     21  C   UNL     1      -3.788  -1.496  24.503  0.00  0.00    +0.139 A 
ATOM     22  C   UNL     1      -4.080  -2.079  23.999  0.00  0.00    +0.121 A 
ATOM     23  N   UNL     1      -3.922  -2.875  24.152  0.00  0.00    -0.239 NA
ATOM     24  C   UNL     1      -3.472  -3.086  24.810  0.00  0.00    +0.120 A 
ATOM     25  C   UNL     1      -3.179  -2.502  25.315  0.00  0.00    +0.120 A 
ATOM     26  N   UNL     1      -3.337  -1.707  25.161  0.00  0.00    -0.237 NA
ENDBRANCH  18  21
ENDBRANCH  15  16
BRANCH  10   9
ATOM      9  C   UNL     1      -3.299   1.982  24.962  0.00  0.00    +0.100 C 
BRANCH   9   8
ATOM      5  C   UNL     1      -2.190   4.190  25.110  0.00  0.00    +0.073 A 
ATOM      6  C   UNL     1      -2.160   3.670  25.749  0.00  0.00    +0.016 A 
ATOM      7  C   UNL     1      -2.530   2.934  25.701  0.00  0.00    -0.002 A 
ATOM      8  C   UNL     1      -2.929   2.718  25.011  0.00  0.00    -0.006 A 
ATOM     27  C   UNL     1      -2.959   3.239  24.372  0.00  0.00    -0.002 A 
ATOM     28  C   UNL     1      -2.589   3.975  24.422  0.00  0.00    +0.016 A 
BRANCH   5   4
ATOM      1  C   UNL     1      -0.671   5.750  24.955  0.00  0.00    +0.097 C 
ATOM      2  C   UNL     1      -1.040   5.013  24.905  0.00  0.00    +0.246 C 
ATOM      3  O   UNL     1      -0.630   4.366  24.603  0.00  0.00    -0.273 OA
ATOM      4  N   UNL     1      -1.821   4.926  25.159  0.00  0.00    -0.179 NA
ENDBRANCH   5   4
ENDBRANCH   9   8
ENDBRANCH  10   9
TORSDOF 5
ENDMDL
MODEL 4
REMARK VINA RESULT:      -9.9      2.334      5.974
REMARK  Name = 
REMARK  5 active torsions:
REMARK  status: ('A' for Active; 'I' for Inactive)
REMARK    1  A    between atoms: N_4  and  C_5
REMARK    2  A    between atoms: C_8  and  C_9
REMARK    3  A    between atoms: C_9  and  N_10
REMARK    4  A    between atoms: C_15  and  C_16
REMARK    5  A    between atoms: C_18  and  C_21
REMARK                            x       y       z     vdW  Elec       q    Type
REMARK                         _______ _______ _______ _____ _____    ______ ____
ROOT
ATOM     10  N   UNL     1      -0.701   0.881  24.779  0.00  0.00    -0.260 NA
ATOM     11  C   UNL     1      -0.081   1.288  24.418  0.00  0.00    +0.106 C 
ATOM     12  C   UNL     1       0.312   0.762  23.918  0.00  0.00    +0.170 C 
ATOM     13  O   UNL     1       0.967   0.937  23.448  0.00  0.00    -0.222 OA
ATOM     14  C   UNL     1      -0.065   0.030  23.971  0.00  0.00    +0.060 C 
ATOM     15  C   UNL     1      -0.691   0.104  24.504  0.00  0.00    +0.140 C 
ENDROOT
BRANCH  15  16
ATOM     16  C   UNL     1      -1.215  -0.494  24.722  0.00  0.00    +0.251 A 
ATOM     17  N   UNL     1      -1.876  -0.741  24.293  0.00  0.00    -0.188 NA
ATOM     18  C   UNL     1      -2.240  -1.350  24.713  0.00  0.00    +0.223 A 
ATOM     19  N   UNL     1      -1.806  -1.479  25.402  0.00  0.00    -0.054 NA
ATOM     20  O   UNL     1      -1.173  -0.950  25.408  0.00  0.00    -0.336 OA
BRANCH  18  21
ATOM     21  C   UNL     1      -2.920  -1.758  24.484  0.00  0.00    +0.139 A 
ATOM     22  C   UNL     1      -2.948  -2.580  24.549  0.00  0.00    +0.121 A 
ATOM     23  N   UNL     1      -3.628  -2.988  24.320  0.00  0.00    -0.239 NA
ATOM     24  C   UNL     1      -4.278  -2.574  24.027  0.00  0.00    +0.120 A 
ATOM     25  C   UNL     1      -4.250  -1.752  23.963  0.00  0.00    +0.120 A 
ATOM     26  N   UNL     1      -3.570  -1.344  24.192  0.00  0.00    -0.237 NA
ENDBRANCH  18  21
ENDBRANCH  15  16
BRANCH  10   9
ATOM      9  C   UNL     1      -1.237   1.197  25.321  0.00  0.00    +0.100 C 
BRANCH   9   8
ATOM      5  C   UNL     1      -1.620   3.641  25.404  0.00  0.00    +0.073 A 
ATOM      6  C   UNL     1      -2.061   3.172  24.889  0.00  0.00    +0.016 A 
ATOM      7  C   UNL     1      -1.934   2.357  24.861  0.00  0.00    -0.002 A 
ATOM      8  C   UNL     1      -1.364   2.012  25.349  0.00  0.00    -0.006 A 
ATOM     27  C   UNL     1      -0.923   2.481  25.864  0.00  0.00    -0.002 A 
ATOM     28  C   UNL     1      -1.051   3.296  25.891  0.00  0.00    +0.016 A 
BRANCH   5   4
ATOM      1  C   UNL     1      -1.376   5.780  25.045  0.00  0.00    +0.097 C 
ATOM      2  C   UNL     1      -1.247   4.966  25.018  0.00  0.00    +0.246 C 
ATOM      3  O   UNL     1      -0.621   4.661  24.577  0.00  0.00    -0.273 OA
ATOM      4  N   UNL     1      -1.747   4.455  25.432  0.00  0.00    -0.179 NA
ENDBRANCH   5   4
ENDBRANCH   9   8
ENDBRANCH  10   9
TORSDOF 5
ENDMDL
MODEL 5
REMARK VINA RESULT:      -9.1      2.565      4.458
REMARK  Name = 
REMARK  5 active torsions:
REMARK  status: ('A' for Active; 'I' for Inactive)
REMARK    1  A    between atoms: N_4  and  C_5
REMARK    2  A    between atoms: C_8  and  C_9
REMARK    3  A    between atoms: C_9  and  N_10
REMARK    4  A    between atoms: C_15  and  C_16
REMARK    5  A    between atoms: C_18  and  C_21
REMARK                            x       y       z     vdW  Elec       q    Type
REMARK                         _______ _______ _______ _____ _____    ______ ____
ROOT
ATOM     10  N   UNL     1      -1.738   3.694  25.370  0.00  0.00    -0.260 NA
ATOM     11  C   UNL     1      -2.028   4.466  25.328  0.00  0.00    +0.106 C 
ATOM     12  C   UNL     1      -1.415   4.953  25.066  0.00  0.00    +0.170 C 
ATOM     13  O   UNL     1      -1.462   5.767  24.945  0.00  0.00    -0.222 OA
ATOM     14  C   UNL     1      -0.749   4.482  24.945  0.00  0.00    +0.060 C 
ATOM     15  C   UNL     1      -0.949   3.703  25.134  0.00  0.00    +0.140 C 
ENDROOT
BRANCH  15  16
ATOM     16  C   UNL     1      -0.448   3.050  25.092  0.00  0.00    +0.251 A 
ATOM     17  N   UNL     1      -0.326   2.573  24.430  0.00  0.00    -0.188 NA
ATOM     18  C   UNL     1       0.217   1.987  24.634  0.00  0.00    +0.223 A 
ATOM     19  N   UNL     1       0.431   2.102  25.422  0.00  0.00    -0.054 NA
ATOM     20  O   UNL     1       0.021   2.758  25.705  0.00  0.00    -0.336 OA
BRANCH  18  21
ATOM     21  C   UNL     1       0.497   1.390  24.137  0.00  0.00    +0.139 A 
ATOM     22  C   UNL     1       0.007   0.757  23.937  0.00  0.00    +0.121 A 
ATOM     23  N   UNL     1       0.286   0.161  23.440  0.00  0.00    -0.239 NA
ATOM     24  C   UNL     1       1.055   0.197  23.144  0.00  0.00    +0.120 A 
ATOM     25  C   UNL     1       1.545   0.830  23.344  0.00  0.00    +0.120 A 
ATOM     26  N   UNL     1       1.266   1.427  23.841  0.00  0.00    -0.237 NA
ENDBRANCH  18  21
ENDBRANCH  15  16
BRANCH  10   9
ATOM      9  C   UNL     1      -2.166   3.029  25.607  0.00  0.00    +0.100 C 
BRANCH   9   8
ATOM      5  C   UNL     1      -4.586   2.870  25.109  0.00  0.00    +0.073 A 
ATOM      6  C   UNL     1      -4.330   3.244  25.799  0.00  0.00    +0.016 A 
ATOM      7  C   UNL     1      -3.524   3.298  25.965  0.00  0.00    -0.002 A 
ATOM      8  C   UNL     1      -2.973   2.976  25.441  0.00  0.00    -0.006 A 
ATOM     27  C   UNL     1      -3.228   2.602  24.752  0.00  0.00    -0.002 A 
ATOM     28  C   UNL     1      -4.035   2.549  24.586  0.00  0.00    +0.016 A 
BRANCH   5   4
ATOM      1  C   UNL     1      -6.610   2.070  24.949  0.00  0.00    +0.097 C 
ATOM      2  C   UNL     1      -5.803   2.122  25.115  0.00  0.00    +0.246 C 
ATOM      3  O   UNL     1      -5.408   1.481  25.451  0.00  0.00    -0.273 OA
ATOM      4  N   UNL     1      -5.392   2.817  24.944  0.00  0.00    -0.179 NA
ENDBRANCH   5   4
ENDBRANCH   9   8
ENDBRANCH  10   9
TORSDOF 5
ENDMDL
MODEL 6
REMARK VINA RESULT:      -9.0      2.408      4.289
REMARK  Name = 
REMARK  5 active torsions:
REMARK  status: ('A' for Active; 'I' for Inactive)
REMARK    1  A    between atoms: N_4  and  C_5
REMARK    2  A    between atoms: C_8  and  C_9
REMARK    3  A    between atoms: C_9  and  N_10
REMARK    4  A    between atoms: C_15  and  C_16
REMARK    5  A    between atoms: C_18  and  C_21
REMARK                            x       y       z     vdW  Elec       q    Type
REMARK                         _______ _______ _______ _____ _____    ______ ____
ROOT
ATOM     10  N   UNL     1      -1.413   3.672  25.311  0.00  0.00    -0.260 NA
ATOM     11  C   UNL     1      -0.794   4.146  25.040  0.00  0.00    +0.106 C 
ATOM     12  C   UNL     1      -1.072   4.922  24.990  0.00  0.00    +0.170 C 
ATOM     13  O   UNL     1      -0.636   5.577  24.743  0.00  0.00    -0.222 OA
ATOM     14  C   UNL     1      -1.861   4.926  25.230  0.00  0.00    +0.060 C 
ATOM     15  C   UNL     1      -2.071   4.153  25.429  0.00  0.00    +0.140 C 
ENDROOT
BRANCH  15  16
ATOM     16  C   UNL     1      -2.811   3.906  25.697  0.00  0.00    +0.251 A 
ATOM     17  N   UNL     1      -3.372   3.489  25.259  0.00  0.00    -0.188 NA
ATOM     18  C   UNL     1      -4.027   3.357  25.742  0.00  0.00    +0.223 A 
ATOM     19  N   UNL     1      -3.871   3.693  26.479  0.00  0.00    -0.054 NA
ATOM     20  O   UNL     1      -3.121   4.032  26.451  0.00  0.00    -0.336 OA
BRANCH  18  21
ATOM     21  C   UNL     1      -4.717   2.959  25.526  0.00  0.00    +0.139 A 
ATOM     22  C   UNL     1      -5.453   3.296  25.684  0.00  0.00    +0.121 A 
ATOM     23  N   UNL     1      -6.143   2.898  25.468  0.00  0.00    -0.239 NA
ATOM     24  C   UNL     1      -6.097   2.164  25.094  0.00  0.00    +0.120 A 
ATOM     25  C   UNL     1      -5.360   1.828  24.936  0.00  0.00    +0.120 A 
ATOM     26  N   UNL     1      -4.670   2.226  25.152  0.00  0.00    -0.237 NA
ENDBRANCH  18  21
ENDBRANCH  15  16
BRANCH  10   9
ATOM      9  C   UNL     1      -1.378   2.858  25.442  0.00  0.00    +0.100 C 
BRANCH   9   8
ATOM      5  C   UNL     1       0.119   1.446  24.065  0.00  0.00    +0.073 A 
ATOM      6  C   UNL     1       0.364   1.702  24.811  0.00  0.00    +0.016 A 
ATOM      7  C   UNL     1      -0.135   2.172  25.270  0.00  0.00    -0.002 A 
ATOM      8  C   UNL     1      -0.879   2.387  24.983  0.00  0.00    -0.006 A 
ATOM     27  C   UNL     1      -1.123   2.132  24.237  0.00  0.00    -0.002 A 
ATOM     28  C   UNL     1      -0.623   1.661  23.779  0.00  0.00    +0.016 A 
BRANCH   5   4
ATOM      1  C   UNL     1       0.975  -0.305  23.084  0.00  0.00    +0.097 C 
ATOM      2  C   UNL     1       0.476   0.165  23.542  0.00  0.00    +0.246 C 
ATOM      3  O   UNL     1      -0.164  -0.174  23.936  0.00  0.00    -0.273 OA
ATOM      4  N   UNL     1       0.618   0.976  23.607  0.00  0.00    -0.179 NA
ENDBRANCH   5   4
ENDBRANCH   9   8
ENDBRANCH  10   9
TORSDOF 5
ENDMDL
MODEL 7
REMARK VINA RESULT:      -8.9      2.375      4.439
REMARK  Name = 
REMARK  5 active torsions:
REMARK  status: ('A' for Active; 'I' for Inactive)
REMARK    1  A    between atoms: N_4  and  C_5
REMARK    2  A    between atoms: C_8  and  C_9
REMARK    3  A    between atoms: C_9  and  N_10
REMARK    4  A    between atoms: C_15  and  C_16
REMARK    5  A    between atoms: C_18  and  C_21
REMARK                            x       y       z     vdW  Elec       q    Type
REMARK                         _______ _______ _______ _____ _____    ______ ____
ROOT
ATOM     10  N   UNL     1      -3.425  -0.656  24.708  0.00  0.00    -0.260 NA
ATOM     11  C   UNL     1      -4.150  -0.993  24.504  0.00  0.00    +0.106 C 
ATOM     12  C   UNL     1      -3.998  -1.692  24.091  0.00  0.00    +0.170 C 
ATOM     13  O   UNL     1      -4.565  -2.205  23.783  0.00  0.00    -0.222 OA
ATOM     14  C   UNL     1      -3.180  -1.785  24.041  0.00  0.00    +0.060 C 
ATOM     15  C   UNL     1      -2.826  -1.145  24.423  0.00  0.00    +0.140 C 
ENDROOT
BRANCH  15  16
ATOM     16  C   UNL     1      -2.016  -1.017  24.504  0.00  0.00    +0.251 A 
ATOM     17  N   UNL     1      -1.546  -0.552  24.010  0.00  0.00    -0.188 NA
ATOM     18  C   UNL     1      -0.772  -0.579  24.294  0.00  0.00    +0.223 A 
ATOM     19  N   UNL     1      -0.764  -1.059  24.964  0.00  0.00    -0.054 NA
ATOM     20  O   UNL     1      -1.531  -1.329  25.094  0.00  0.00    -0.336 OA
BRANCH  18  21
ATOM     21  C   UNL     1      -0.121  -0.193  23.966  0.00  0.00    +0.139 A 
ATOM     22  C   UNL     1       0.034   0.594  24.162  0.00  0.00    +0.121 A 
ATOM     23  N   UNL     1       0.685   0.980  23.834  0.00  0.00    -0.239 NA
ATOM     24  C   UNL     1       1.180   0.580  23.309  0.00  0.00    +0.120 A 
ATOM     25  C   UNL     1       1.026  -0.206  23.113  0.00  0.00    +0.120 A 
ATOM     26  N   UNL     1       0.374  -0.592  23.441  0.00  0.00    -0.237 NA
ENDBRANCH  18  21
ENDBRANCH  15  16
BRANCH  10   9
ATOM      9  C   UNL     1      -3.319   0.047  25.126  0.00  0.00    +0.100 C 
BRANCH   9   8
ATOM      5  C   UNL     1      -5.040   1.823  25.018  0.00  0.00    +0.073 A 
ATOM      6  C   UNL     1      -4.369   1.870  24.540  0.00  0.00    +0.016 A 
ATOM      7  C   UNL     1      -3.795   1.278  24.576  0.00  0.00    -0.002 A 
ATOM      8  C   UNL     1      -3.893   0.640  25.090  0.00  0.00    -0.006 A 
ATOM     27  C   UNL     1      -4.564   0.593  25.567  0.00  0.00    -0.002 A 
ATOM     28  C   UNL     1      -5.138   1.186  25.531  0.00  0.00    +0.016 A 
BRANCH   5   4
ATOM      1  C   UNL     1      -6.118   3.678  25.422  0.00  0.00    +0.097 C 
ATOM      2  C   UNL     1      -5.544   3.086  25.458  0.00  0.00    +0.246 C 
ATOM      3  O   UNL     1      -4.902   3.165  25.969  0.00  0.00    -0.273 OA
ATOM      4  N   UNL     1      -5.613   2.415  24.982  0.00  0.00    -0.179 NA
ENDBRANCH   5   4
ENDBRANCH   9   8
ENDBRANCH  10   9
TORSDOF 5
ENDMDL
MODEL 8
REMARK VINA RESULT:      -8.9      2.077      3.389
REMARK  Name = 
REMARK  5 active torsions:
REMARK  status: ('A' for Active; 'I' for Inactive)
REMARK    1  A    between atoms: N_4  and  C_5
REMARK    2  A    between atoms: C_8  and  C_9
REMARK    3  A    between atoms: C_9  and  N_10
REMARK    4  A    between atoms: C_15  and  C_16
REMARK    5  A    between atoms: C_18  and  C_21
REMARK                            x       y       z     vdW  Elec       q    Type
REMARK                         _______ _______ _______ _____ _____    ______ ____
ROOT
ATOM     10  N   UNL     1      -1.040   2.027  25.156  0.00  0.00    -0.260 NA
ATOM     11  C   UNL     1      -0.307   1.919  25.517  0.00  0.00    +0.106 C 
ATOM     12  C   UNL     1      -0.170   2.565  26.014  0.00  0.00    +0.170 C 
ATOM     13  O   UNL     1       0.498   2.683  26.482  0.00  0.00    -0.222 OA
ATOM     14  C   UNL     1      -0.820   3.070  25.959  0.00  0.00    +0.060 C 
ATOM     15  C   UNL     1      -1.358   2.738  25.428  0.00  0.00    +0.140 C 
ENDROOT
BRANCH  15  16
ATOM     16  C   UNL     1      -2.085   3.059  25.209  0.00  0.00    +0.251 A 
ATOM     17  N   UNL     1      -2.819   2.860  25.529  0.00  0.00    -0.188 NA
ATOM     18  C   UNL     1      -3.393   3.315  25.150  0.00  0.00    +0.223 A 
ATOM     19  N   UNL     1      -3.015   3.794  24.596  0.00  0.00    -0.054 NA
ATOM     20  O   UNL     1      -2.207   3.636  24.633  0.00  0.00    -0.336 OA
BRANCH  18  21
ATOM     21  C   UNL     1      -4.205   3.293  25.298  0.00  0.00    +0.139 A 
ATOM     22  C   UNL     1      -4.581   3.949  25.628  0.00  0.00    +0.121 A 
ATOM     23  N   UNL     1      -5.393   3.928  25.776  0.00  0.00    -0.239 NA
ATOM     24  C   UNL     1      -5.827   3.250  25.595  0.00  0.00    +0.120 A 
ATOM     25  C   UNL     1      -5.451   2.594  25.266  0.00  0.00    +0.120 A 
ATOM     26  N   UNL     1      -4.640   2.616  25.118  0.00  0.00    -0.237 NA
ENDBRANCH  18  21
ENDBRANCH  15  16
BRANCH  10   9
ATOM      9  C   UNL     1      -1.395   1.513  24.617  0.00  0.00    +0.100 C 
BRANCH   9   8
ATOM      5  C   UNL     1      -1.068  -0.931  24.836  0.00  0.00    +0.073 A 
ATOM      6  C   UNL     1      -0.639  -0.506  24.274  0.00  0.00    +0.016 A 
ATOM      7  C   UNL     1      -0.747   0.308  24.200  0.00  0.00    -0.002 A 
ATOM      8  C   UNL     1      -1.286   0.698  24.690  0.00  0.00    -0.006 A 
ATOM     27  C   UNL     1      -1.714   0.274  25.253  0.00  0.00    -0.002 A 
ATOM     28  C   UNL     1      -1.605  -0.541  25.325  0.00  0.00    +0.016 A 
BRANCH   5   4
ATOM      1  C   UNL     1      -1.412  -3.080  24.677  0.00  0.00    +0.097 C 
ATOM      2  C   UNL     1      -1.522  -2.266  24.603  0.00  0.00    +0.246 C 
ATOM      3  O   UNL     1      -2.193  -1.972  24.226  0.00  0.00    -0.273 OA
ATOM      4  N   UNL     1      -0.958  -1.745  24.909  0.00  0.00    -0.179 NA
ENDBRANCH   5   4
ENDBRANCH   9   8
ENDBRANCH  10   9
TORSDOF 5
ENDMDL
MODEL 9
REMARK VINA RESULT:      -8.8      3.246      4.681
REMARK  Name = 
REMARK  5 active torsions:
REMARK  status: ('A' for Active; 'I' for Inactive)
REMARK    1  A    between atoms: N_4  and  C_5
REMARK    2  A    between atoms: C_8  and  C_9
REMARK    3  A    between atoms: C_9  and  N_10
REMARK    4  A    between atoms: C_15  and  C_16
REMARK    5  A    between atoms: C_18  and  C_21
REMARK                            x       y       z     vdW  Elec       q    Type
REMARK                         _______ _______ _______ _____ _____    ______ ____
ROOT
ATOM     10  N   UNL     1      -1.483   1.590  24.756  0.00  0.00    -0.260 NA
ATOM     11  C   UNL     1      -1.659   2.192  25.293  0.00  0.00    +0.106 C 
ATOM     12  C   UNL     1      -0.976   2.351  25.729  0.00  0.00    +0.170 C 
ATOM     13  O   UNL     1      -0.903   2.914  26.327  0.00  0.00    -0.222 OA
ATOM     14  C   UNL     1      -0.380   1.847  25.461  0.00  0.00    +0.060 C 
ATOM     15  C   UNL     1      -0.694   1.377  24.859  0.00  0.00    +0.140 C 
ENDROOT
BRANCH  15  16
ATOM     16  C   UNL     1      -0.289   0.797  24.436  0.00  0.00    +0.251 A 
ATOM     17  N   UNL     1       0.283   0.930  23.856  0.00  0.00    -0.188 NA
ATOM     18  C   UNL     1       0.541   0.196  23.580  0.00  0.00    +0.223 A 
ATOM     19  N   UNL     1       0.129  -0.389  23.989  0.00  0.00    -0.054 NA
ATOM     20  O   UNL     1      -0.383  -0.018  24.518  0.00  0.00    -0.336 OA
BRANCH  18  21
ATOM     21  C   UNL     1       1.111   0.071  22.997  0.00  0.00    +0.139 A 
ATOM     22  C   UNL     1       0.897  -0.276  22.279  0.00  0.00    +0.121 A 
ATOM     23  N   UNL     1       1.467  -0.401  21.696  0.00  0.00    -0.239 NA
ATOM     24  C   UNL     1       2.250  -0.180  21.830  0.00  0.00    +0.120 A 
ATOM     25  C   UNL     1       2.464   0.167  22.547  0.00  0.00    +0.120 A 
ATOM     26  N   UNL     1       1.894   0.292  23.131  0.00  0.00    -0.237 NA
ENDBRANCH  18  21
ENDBRANCH  15  16
BRANCH  10   9
ATOM      9  C   UNL     1      -2.007   1.260  24.211  0.00  0.00    +0.100 C 
BRANCH   9   8
ATOM      5  C   UNL     1      -4.448   1.543  24.511  0.00  0.00    +0.073 A 
ATOM      6  C   UNL     1      -4.023   2.083  24.054  0.00  0.00    +0.016 A 
ATOM      7  C   UNL     1      -3.210   1.989  23.954  0.00  0.00    -0.002 A 
ATOM      8  C   UNL     1      -2.821   1.354  24.311  0.00  0.00    -0.006 A 
ATOM     27  C   UNL     1      -3.246   0.814  24.768  0.00  0.00    -0.002 A 
ATOM     28  C   UNL     1      -4.060   0.909  24.867  0.00  0.00    +0.016 A 
BRANCH   5   4
ATOM      1  C   UNL     1      -6.364   2.185  25.337  0.00  0.00    +0.097 C 
ATOM      2  C   UNL     1      -5.550   2.091  25.237  0.00  0.00    +0.246 C 
ATOM      3  O   UNL     1      -5.026   2.449  25.763  0.00  0.00    -0.273 OA
ATOM      4  N   UNL     1      -5.261   1.637  24.611  0.00  0.00    -0.179 NA
ENDBRANCH   5   4
ENDBRANCH   9   8
ENDBRANCH  10   9
TORSDOF 5
ENDMDL
MODEL 10
REMARK VINA RESULT:      -8.2     17.025     19.123
REMARK  Name = 
REMARK  5 active torsions:
REMARK  status: ('A' for Active; 'I' for Inactive)
REMARK    1  A    between atoms: N_4  and  C_5
REMARK    2  A    between atoms: C_8  and  C_9
REMARK    3  A    between atoms: C_9  and  N_10
REMARK    4  A    between atoms: C_15  and  C_16
REMARK    5  A    between atoms: C_18  and  C_21
REMARK                            x       y       z     vdW  Elec       q    Type
REMARK                         _______ _______ _______ _____ _____    ______ ____
ROOT
ATOM     10  N   UNL     1      12.563   7.433  20.211  0.00  0.00    -0.260 NA
ATOM     11  C   UNL     1      11.789   7.178  20.340  0.00  0.00    +0.106 C 
ATOM     12  C   UNL     1      11.794   6.669  20.989  0.00  0.00    +0.170 C 
ATOM     13  O   UNL     1      11.137   6.286  21.309  0.00  0.00    -0.222 OA
ATOM     14  C   UNL     1      12.571   6.609  21.260  0.00  0.00    +0.060 C 
ATOM     15  C   UNL     1      13.046   7.082  20.779  0.00  0.00    +0.140 C 
ENDROOT
BRANCH  15  16
ATOM     16  C   UNL     1      13.861   7.185  20.853  0.00  0.00    +0.251 A 
ATOM     17  N   UNL     1      14.443   6.740  20.473  0.00  0.00    -0.188 NA
ATOM     18  C   UNL     1      15.178   7.031  20.706  0.00  0.00    +0.223 A 
ATOM     19  N   UNL     1      15.052   7.655  21.229  0.00  0.00    -0.054 NA
ATOM     20  O   UNL     1      14.238   7.750  21.320  0.00  0.00    -0.336 OA
BRANCH  18  21
ATOM     21  C   UNL     1      15.913   6.747  20.458  0.00  0.00    +0.139 A 
ATOM     22  C   UNL     1      16.516   6.630  21.008  0.00  0.00    +0.121 A 
ATOM     23  N   UNL     1      17.251   6.346  20.761  0.00  0.00    -0.239 NA
ATOM     24  C   UNL     1      17.380   6.179  19.963  0.00  0.00    +0.120 A 
ATOM     25  C   UNL     1      16.777   6.295  19.413  0.00  0.00    +0.120 A 
ATOM     26  N   UNL     1      16.043   6.579  19.661  0.00  0.00    -0.237 NA
ENDBRANCH  18  21
ENDBRANCH  15  16
BRANCH  10   9
ATOM      9  C   UNL     1      12.810   7.949  19.617  0.00  0.00    +0.100 C 
BRANCH   9   8
ATOM      5  C   UNL     1      11.375   8.338  17.637  0.00  0.00    +0.073 A 
ATOM      6  C   UNL     1      11.297   8.818  18.304  0.00  0.00    +0.016 A 
ATOM      7  C   UNL     1      11.775   8.689  18.964  0.00  0.00    -0.002 A 
ATOM      8  C   UNL     1      12.332   8.079  18.957  0.00  0.00    -0.006 A 
ATOM     27  C   UNL     1      12.410   7.599  18.290  0.00  0.00    -0.002 A 
ATOM     28  C   UNL     1      11.931   7.730  17.630  0.00  0.00    +0.016 A 
BRANCH   5   4
ATOM      1  C   UNL     1      10.727   8.975  15.653  0.00  0.00    +0.097 C 
ATOM      2  C   UNL     1      11.206   8.846  16.312  0.00  0.00    +0.246 C 
ATOM      3  O   UNL     1      11.992   9.093  16.306  0.00  0.00    -0.273 OA
ATOM      4  N   UNL     1      10.897   8.468  16.979  0.00  0.00    -0.179 NA
ENDBRANCH   5   4
ENDBRANCH   9   8
ENDBRANCH  10   9
TORSDOF 5
ENDMDL
