MODEL 1
REMARK VINA RESULT:     -12.0      0.000      0.000
REMARK  Name = 
REMARK  9 active torsions:
REMARK  status: ('A' for Active; 'I' for Inactive)
REMARK    1  A    between atoms: O_2  and  C_3
REMARK    2  A    between atoms: C_6  and  S_9
REMARK    3  A    between atoms: S_9  and  N_12
REMARK    4  A    between atoms: N_12  and  C_13
REMARK    5  A    between atoms: C_18  and  C_19
REMARK    6  A    between atoms: C_19  and  C_20
REMARK    7  A    between atoms: C_20  and  C_21
REMARK    8  A    between atoms: N_23  and  C_24
REMARK    9  A    between atoms: C_24  and  C_25
REMARK                            x       y       z     vdW  Elec       q    Type
REMARK                         _______ _______ _______ _____ _____    ______ ____
ROOT
ATOM     13  C   UNL     1      -1.866   3.342  25.107  0.00  0.00    +0.115 C 
ATOM     14  C   UNL     1      -1.199   3.558  24.671  0.00  0.00    +0.046 C 
ATOM     15  C   UNL     1      -0.691   2.909  24.646  0.00  0.00    +0.138 C 
ATOM     16  N   UNL     1      -1.044   2.292  25.066  0.00  0.00    -0.265 NA
ATOM     17  C   UNL     1      -1.770   2.560  25.351  0.00  0.00    +0.092 C 
ATOM     18  C   UNL     1      -0.657   1.566  25.135  0.00  0.00    +0.080 C 
ATOM     31  C   UNL     1       0.082   1.457  24.784  0.00  0.00    +0.131 C 
ATOM     32  N   UNL     1       0.434   2.073  24.365  0.00  0.00    -0.203 NA
ATOM     33  C   UNL     1       0.048   2.799  24.295  0.00  0.00    +0.256 C 
ATOM     34  O   UNL     1       0.400   3.415  23.876  0.00  0.00    -0.272 OA
ENDROOT
BRANCH  13  12
ATOM     12  N   UNL     1      -2.515   3.824  25.269  0.00  0.00    -0.078 NA
BRANCH  12   9
ATOM      9  S   UNL     1      -3.279   3.514  25.235  0.00  0.00    +0.077 S 
ATOM     10  O   UNL     1      -3.274   3.412  26.054  0.00  0.00    -0.152 OA
ATOM     11  O   UNL     1      -3.285   3.616  24.417  0.00  0.00    -0.152 OA
BRANCH   9   6
ATOM      3  C   UNL     1      -5.571   2.584  25.135  0.00  0.00    +0.139 A 
ATOM      4  C   UNL     1      -5.350   3.073  25.763  0.00  0.00    +0.038 A 
ATOM      5  C   UNL     1      -4.587   3.383  25.797  0.00  0.00    +0.023 A 
ATOM      6  C   UNL     1      -4.043   3.204  25.202  0.00  0.00    +0.124 A 
ATOM      7  C   UNL     1      -4.263   2.717  24.575  0.00  0.00    +0.023 A 
ATOM      8  C   UNL     1      -5.027   2.407  24.541  0.00  0.00    +0.038 A 
BRANCH   3   2
ATOM      1  C   UNL     1      -6.447   1.458  25.072  0.00  0.00    +0.252 C 
ATOM      2  O   UNL     1      -6.335   2.274  25.102  0.00  0.00    -0.471 OA
ENDBRANCH   3   2
ENDBRANCH   9   6
ENDBRANCH  12   9
ENDBRANCH  13  12
BRANCH  18  19
ATOM     19  C   UNL     1      -1.010   0.950  25.555  0.00  0.00    +0.027 C 
BRANCH  19  20
ATOM     20  C   UNL     1      -0.976   0.179  25.262  0.00  0.00    +0.088 C 
BRANCH  20  21
ATOM     21  C   UNL     1      -1.490  -0.397  25.554  0.00  0.00    +0.242 C 
ATOM     22  O   UNL     1      -1.407  -0.670  26.327  0.00  0.00    -0.273 OA
ATOM     23  N   UNL     1      -2.088  -0.697  25.072  0.00  0.00    -0.201 NA
BRANCH  23  24
ATOM     24  C   UNL     1      -2.602  -1.272  25.364  0.00  0.00    +0.141 C 
BRANCH  24  25
ATOM     25  C   UNL     1      -3.169  -1.609  24.868  0.00  0.00    -0.001 A 
ATOM     26  C   UNL     1      -3.159  -2.421  24.723  0.00  0.00    -0.003 A 
ATOM     27  C   UNL     1      -3.726  -2.758  24.226  0.00  0.00    -0.000 A 
ATOM     28  C   UNL     1      -4.302  -2.283  23.875  0.00  0.00    -0.000 A 
ATOM     29  C   UNL     1      -4.310  -1.471  24.020  0.00  0.00    -0.000 A 
ATOM     30  C   UNL     1      -3.744  -1.134  24.516  0.00  0.00    -0.003 A 
ENDBRANCH  24  25
ENDBRANCH  23  24
ENDBRANCH  20  21
ENDBRANCH  19  20
ENDBRANCH  18  19
TORSDOF 9
ENDMDL
MODEL 2
REMARK VINA RESULT:     -11.8      1.600      4.173
REMARK  Name = 
REMARK  9 active torsions:
REMARK  status: ('A' for Active; 'I' for Inactive)
REMARK    1  A    between atoms: O_2  and  C_3
REMARK    2  A    between atoms: C_6  and  S_9
REMARK    3  A    between atoms: S_9  and  N_12
REMARK    4  A    between atoms: N_12  and  C_13
REMARK    5  A    between atoms: C_18  and  C_19
REMARK    6  A    between atoms: C_19  and  C_20
REMARK    7  A    between atoms: C_20  and  C_21
REMARK    8  A    between atoms: N_23  and  C_24
REMARK    9  A    between atoms: C_24  and  C_25
REMARK                            x       y       z     vdW  Elec       q    Type
REMARK                         _______ _______ _______ _____ _____    ______ ____
ROOT
ATOM     13  C   UNL     1      -0.583   0.297  24.396  0.00  0.00    +0.115 C 
ATOM     14  C   UNL     1      -0.239  -0.375  24.730  0.00  0.00    +0.046 C 
ATOM     15  C   UNL     1      -0.834  -0.933  24.850  0.00  0.00    +0.138 C 
ATOM     16  N   UNL     1      -1.547  -0.606  24.591  0.00  0.00    -0.265 NA
ATOM     17  C   UNL     1      -1.391   0.154  24.311  0.00  0.00    +0.092 C 
ATOM     18  C   UNL     1      -2.244  -1.043  24.645  0.00  0.00    +0.080 C 
ATOM     31  C   UNL     1      -2.230  -1.806  24.957  0.00  0.00    +0.131 C 
ATOM     32  N   UNL     1      -1.518  -2.133  25.216  0.00  0.00    -0.203 NA
ATOM     33  C   UNL     1      -0.820  -1.696  25.163  0.00  0.00    +0.256 C 
ATOM     34  O   UNL     1      -0.108  -2.022  25.421  0.00  0.00    -0.272 OA
ENDROOT
BRANCH  13  12
ATOM     12  N   UNL     1      -0.188   0.990  24.185  0.00  0.00    -0.078 NA
BRANCH  12   9
ATOM      9  S   UNL     1      -0.452   1.719  24.468  0.00  0.00    +0.077 S 
ATOM     10  O   UNL     1      -0.919   1.811  23.794  0.00  0.00    -0.152 OA
ATOM     11  O   UNL     1       0.015   1.626  25.142  0.00  0.00    -0.152 OA
BRANCH   9   6
ATOM      3  C   UNL     1      -1.243   3.904  25.317  0.00  0.00    +0.139 A 
ATOM      4  C   UNL     1      -1.038   3.820  24.522  0.00  0.00    +0.038 A 
ATOM      5  C   UNL     1      -0.774   3.091  24.239  0.00  0.00    +0.023 A 
ATOM      6  C   UNL     1      -0.716   2.447  24.751  0.00  0.00    +0.124 A 
ATOM      7  C   UNL     1      -0.920   2.531  25.545  0.00  0.00    +0.023 A 
ATOM      8  C   UNL     1      -1.184   3.260  25.828  0.00  0.00    +0.038 A 
BRANCH   3   2
ATOM      1  C   UNL     1      -1.463   5.302  25.120  0.00  0.00    +0.252 C 
ATOM      2  O   UNL     1      -1.507   4.633  25.600  0.00  0.00    -0.471 OA
ENDBRANCH   3   2
ENDBRANCH   9   6
ENDBRANCH  12   9
ENDBRANCH  13  12
BRANCH  18  19
ATOM     19  C   UNL     1      -2.955  -0.716  24.386  0.00  0.00    +0.027 C 
BRANCH  19  20
ATOM     20  C   UNL     1      -3.591  -0.645  24.909  0.00  0.00    +0.088 C 
BRANCH  20  21
ATOM     21  C   UNL     1      -4.249  -0.193  24.699  0.00  0.00    +0.242 C 
ATOM     22  O   UNL     1      -4.828  -0.512  24.207  0.00  0.00    -0.273 OA
ATOM     23  N   UNL     1      -4.327   0.578  24.982  0.00  0.00    -0.201 NA
BRANCH  23  24
ATOM     24  C   UNL     1      -4.984   1.029  24.773  0.00  0.00    +0.141 C 
BRANCH  24  25
ATOM     25  C   UNL     1      -5.023   1.825  24.987  0.00  0.00    -0.001 A 
ATOM     26  C   UNL     1      -4.628   2.393  24.538  0.00  0.00    -0.003 A 
ATOM     27  C   UNL     1      -4.667   3.189  24.752  0.00  0.00    -0.000 A 
ATOM     28  C   UNL     1      -5.101   3.417  25.416  0.00  0.00    -0.000 A 
ATOM     29  C   UNL     1      -5.496   2.848  25.865  0.00  0.00    -0.000 A 
ATOM     30  C   UNL     1      -5.457   2.053  25.651  0.00  0.00    -0.003 A 
ENDBRANCH  24  25
ENDBRANCH  23  24
ENDBRANCH  20  21
ENDBRANCH  19  20
ENDBRANCH  18  19
TORSDOF 9
ENDMDL
MODEL 3
REMARK VINA RESULT:     -11.8      1.435      4.185
REMARK  Name = 
REMARK  9 active torsions:
REMARK  status: ('A' for Active; 'I' for Inactive)
REMARK    1  A    between atoms: O_2  and  C_3
REMARK    2  A    between atoms: C_6  and  S_9
REMARK    3  A    between atoms: S_9  and  N_12
REMARK    4  A    between atoms: N_12  and  C_13
REMARK    5  A    between atoms: C_18  and  C_19
REMARK    6  A    between atoms: C_19  and  C_20
REMARK    7  A    between atoms: C_20  and  C_21
REMARK    8  A    between atoms: N_23  and  C_24
REMARK    9  A    between atoms: C_24  and  C_25
REMARK                            x       y       z     vdW  Elec       q    Type
REMARK                         _______ _______ _______ _____ _____    ______ ____
ROOT
ATOM     13  C   UNL     1      -3.052  -0.368  24.198  0.00  0.00    +0.115 C 
ATOM     14  C   UNL     1      -2.853  -1.120  24.475  0.00  0.00    +0.046 C 
ATOM     15  C   UNL     1      -2.055  -1.112  24.685  0.00  0.00    +0.138 C 
ATOM     16  N   UNL     1      -1.761  -0.355  24.538  0.00  0.00    -0.265 NA
ATOM     17  C   UNL     1      -2.377   0.104  24.238  0.00  0.00    +0.092 C 
ATOM     18  C   UNL     1      -0.970  -0.182  24.698  0.00  0.00    +0.080 C 
ATOM     31  C   UNL     1      -0.474  -0.766  25.003  0.00  0.00    +0.131 C 
ATOM     32  N   UNL     1      -0.768  -1.522  25.149  0.00  0.00    -0.203 NA
ATOM     33  C   UNL     1      -1.559  -1.696  24.990  0.00  0.00    +0.256 C 
ATOM     34  O   UNL     1      -1.853  -2.452  25.136  0.00  0.00    -0.272 OA
ENDROOT
BRANCH  13  12
ATOM     12  N   UNL     1      -3.795  -0.132  23.930  0.00  0.00    -0.078 NA
BRANCH  12   9
ATOM      9  S   UNL     1      -4.177   0.509  24.283  0.00  0.00    +0.077 S 
ATOM     10  O   UNL     1      -3.871   1.010  23.704  0.00  0.00    -0.152 OA
ATOM     11  O   UNL     1      -4.483   0.007  24.862  0.00  0.00    -0.152 OA
BRANCH   9   6
ATOM      3  C   UNL     1      -5.323   2.430  25.342  0.00  0.00    +0.139 A 
ATOM      4  C   UNL     1      -4.864   2.545  24.665  0.00  0.00    +0.038 A 
ATOM      5  C   UNL     1      -4.482   1.904  24.312  0.00  0.00    +0.023 A 
ATOM      6  C   UNL     1      -4.559   1.149  24.636  0.00  0.00    +0.124 A 
ATOM      7  C   UNL     1      -5.017   1.034  25.312  0.00  0.00    +0.023 A 
ATOM      8  C   UNL     1      -5.399   1.675  25.665  0.00  0.00    +0.038 A 
BRANCH   3   2
ATOM      1  C   UNL     1      -5.457   3.839  25.531  0.00  0.00    +0.252 C 
ATOM      2  O   UNL     1      -5.705   3.070  25.695  0.00  0.00    -0.471 OA
ENDBRANCH   3   2
ENDBRANCH   9   6
ENDBRANCH  12   9
ENDBRANCH  13  12
BRANCH  18  19
ATOM     19  C   UNL     1      -0.677   0.574  24.551  0.00  0.00    +0.027 C 
BRANCH  19  20
ATOM     20  C   UNL     1      -0.338   1.011  25.165  0.00  0.00    +0.088 C 
BRANCH  20  21
ATOM     21  C   UNL     1      -0.094   1.788  25.032  0.00  0.00    +0.242 C 
ATOM     22  O   UNL     1       0.640   1.936  24.687  0.00  0.00    -0.273 OA
ATOM     23  N   UNL     1      -0.584   2.416  25.246  0.00  0.00    -0.201 NA
BRANCH  23  24
ATOM     24  C   UNL     1      -0.339   3.193  25.113  0.00  0.00    +0.141 C 
BRANCH  24  25
ATOM     25  C   UNL     1      -0.872   3.816  25.211  0.00  0.00    -0.001 A 
ATOM     26  C   UNL     1      -0.732   4.539  24.841  0.00  0.00    -0.003 A 
ATOM     27  C   UNL     1      -1.266   5.162  24.940  0.00  0.00    -0.000 A 
ATOM     28  C   UNL     1      -1.937   5.061  25.408  0.00  0.00    -0.000 A 
ATOM     29  C   UNL     1      -2.076   4.336  25.777  0.00  0.00    -0.000 A 
ATOM     30  C   UNL     1      -1.544   3.714  25.679  0.00  0.00    -0.003 A 
ENDBRANCH  24  25
ENDBRANCH  23  24
ENDBRANCH  20  21
ENDBRANCH  19  20
ENDBRANCH  18  19
TORSDOF 9
ENDMDL
MODEL 4
REMARK VINA RESULT:     -11.6      1.301      4.045
REMARK  Name = 
REMARK  9 active torsions:
REMARK  status: ('A' for Active; 'I' for Inactive)
REMARK    1  A    between atoms: O_2  and  C_3
REMARK    2  A    between atoms: C_6  and  S_9
REMARK    3  A    between atoms: S_9  and  N_12
REMARK    4  A    between atoms: N_12  and  C_13
REMARK    5  A    between atoms: C_18  and  C_19
REMARK    6  A    between atoms: C_19  and  C_20
REMARK    7  A    between atoms: C_20  and  C_21
REMARK    8  A    between atoms: N_23  and  C_24
REMARK    9  A    between atoms: C_24  and  C_25
REMARK                            x       y       z     vdW  Elec       q    Type
REMARK                         _______ _______ _______ _____ _____    ______ ____
ROOT
ATOM     13  C   UNL     1      -0.780   0.510  25.480  0.00  0.00    +0.115 C 
ATOM     14  C   UNL     1      -0.184   0.683  24.936  0.00  0.00    +0.046 C 
ATOM     15  C   UNL     1      -0.225   1.488  24.760  0.00  0.00    +0.138 C 
ATOM     16  N   UNL     1      -0.847   1.812  25.195  0.00  0.00    -0.265 NA
ATOM     17  C   UNL     1      -1.190   1.207  25.640  0.00  0.00    +0.092 C 
ATOM     18  C   UNL     1      -1.020   2.616  25.130  0.00  0.00    +0.080 C 
ATOM     31  C   UNL     1      -0.572   3.095  24.630  0.00  0.00    +0.131 C 
ATOM     32  N   UNL     1       0.049   2.771  24.196  0.00  0.00    -0.203 NA
ATOM     33  C   UNL     1       0.223   1.967  24.261  0.00  0.00    +0.256 C 
ATOM     34  O   UNL     1       0.845   1.643  23.827  0.00  0.00    -0.272 OA
ENDROOT
BRANCH  13  12
ATOM     12  N   UNL     1      -0.938  -0.231  25.805  0.00  0.00    -0.078 NA
BRANCH  12   9
ATOM      9  S   UNL     1      -1.562  -0.686  25.514  0.00  0.00    +0.077 S 
ATOM     10  O   UNL     1      -1.074  -0.971  24.913  0.00  0.00    -0.152 OA
ATOM     11  O   UNL     1      -2.051  -0.401  26.115  0.00  0.00    -0.152 OA
BRANCH   9   6
ATOM      3  C   UNL     1      -3.433  -2.051  24.640  0.00  0.00    +0.139 A 
ATOM      4  C   UNL     1      -3.588  -1.393  25.115  0.00  0.00    +0.038 A 
ATOM      5  C   UNL     1      -2.964  -0.939  25.406  0.00  0.00    +0.023 A 
ATOM      6  C   UNL     1      -2.186  -1.141  25.223  0.00  0.00    +0.124 A 
ATOM      7  C   UNL     1      -2.031  -1.797  24.748  0.00  0.00    +0.023 A 
ATOM      8  C   UNL     1      -2.654  -2.252  24.457  0.00  0.00    +0.038 A 
BRANCH   3   2
ATOM      1  C   UNL     1      -4.408  -2.310  23.629  0.00  0.00    +0.252 C 
ATOM      2  O   UNL     1      -4.056  -2.505  24.348  0.00  0.00    -0.471 OA
ENDBRANCH   3   2
ENDBRANCH   9   6
ENDBRANCH  12   9
ENDBRANCH  13  12
BRANCH  18  19
ATOM     19  C   UNL     1      -1.642   2.940  25.564  0.00  0.00    +0.027 C 
BRANCH  19  20
ATOM     20  C   UNL     1      -2.118   3.526  25.229  0.00  0.00    +0.088 C 
BRANCH  20  21
ATOM     21  C   UNL     1      -2.871   3.671  25.536  0.00  0.00    +0.242 C 
ATOM     22  O   UNL     1      -2.970   4.219  26.143  0.00  0.00    -0.273 OA
ATOM     23  N   UNL     1      -3.523   3.267  25.233  0.00  0.00    -0.201 NA
BRANCH  23  24
ATOM     24  C   UNL     1      -4.275   3.412  25.540  0.00  0.00    +0.141 C 
BRANCH  24  25
ATOM     25  C   UNL     1      -4.883   2.867  25.416  0.00  0.00    -0.001 A 
ATOM     26  C   UNL     1      -5.458   2.753  25.996  0.00  0.00    -0.003 A 
ATOM     27  C   UNL     1      -6.066   2.208  25.873  0.00  0.00    -0.000 A 
ATOM     28  C   UNL     1      -6.097   1.777  25.170  0.00  0.00    -0.000 A 
ATOM     29  C   UNL     1      -5.521   1.892  24.590  0.00  0.00    -0.000 A 
ATOM     30  C   UNL     1      -4.915   2.436  24.713  0.00  0.00    -0.003 A 
ENDBRANCH  24  25
ENDBRANCH  23  24
ENDBRANCH  20  21
ENDBRANCH  19  20
ENDBRANCH  18  19
TORSDOF 9
ENDMDL
MODEL 5
REMARK VINA RESULT:     -11.5      1.407      3.827
REMARK  Name = 
REMARK  9 active torsions:
REMARK  status: ('A' for Active; 'I' for Inactive)
REMARK    1  A    between atoms: O_2  and  C_3
REMARK    2  A    between atoms: C_6  and  S_9
REMARK    3  A    between atoms: S_9  and  N_12
REMARK    4  A    between atoms: N_12  and  C_13
REMARK    5  A    between atoms: C_18  and  C_19
REMARK    6  A    between atoms: C_19  and  C_20
REMARK    7  A    between atoms: C_20  and  C_21
REMARK    8  A    between atoms: N_23  and  C_24
REMARK    9  A    between atoms: C_24  and  C_25
REMARK                            x       y       z     vdW  Elec       q    Type
REMARK                         _______ _______ _______ _____ _____    ______ ____
ROOT
ATOM     13  C   UNL     1      -1.315   2.885  24.397  0.00  0.00    +0.115 C 
ATOM     14  C   UNL     1      -1.293   3.586  24.832  0.00  0.00    +0.046 C 
ATOM     15  C   UNL     1      -2.063   3.760  25.072  0.00  0.00    +0.138 C 
ATOM     16  N   UNL     1      -2.560   3.167  24.784  0.00  0.00    -0.265 NA
ATOM     17  C   UNL     1      -2.097   2.627  24.367  0.00  0.00    +0.092 C 
ATOM     18  C   UNL     1      -3.370   3.197  24.940  0.00  0.00    +0.080 C 
ATOM     31  C   UNL     1      -3.683   3.819  25.383  0.00  0.00    +0.131 C 
ATOM     32  N   UNL     1      -3.186   4.411  25.669  0.00  0.00    -0.203 NA
ATOM     33  C   UNL     1      -2.376   4.382  25.514  0.00  0.00    +0.256 C 
ATOM     34  O   UNL     1      -1.879   4.974  25.801  0.00  0.00    -0.272 OA
ENDROOT
BRANCH  13  12
ATOM     12  N   UNL     1      -0.666   2.509  24.052  0.00  0.00    -0.078 NA
BRANCH  12   9
ATOM      9  S   UNL     1      -0.553   1.699  24.159  0.00  0.00    +0.077 S 
ATOM     10  O   UNL     1      -0.121   1.850  24.845  0.00  0.00    -0.152 OA
ATOM     11  O   UNL     1      -0.985   1.548  23.472  0.00  0.00    -0.152 OA
BRANCH   9   6
ATOM      3  C   UNL     1      -0.214  -0.731  24.480  0.00  0.00    +0.139 A 
ATOM      4  C   UNL     1      -0.048  -0.384  23.749  0.00  0.00    +0.038 A 
ATOM      5  C   UNL     1      -0.161   0.426  23.642  0.00  0.00    +0.023 A 
ATOM      6  C   UNL     1      -0.440   0.889  24.266  0.00  0.00    +0.124 A 
ATOM      7  C   UNL     1      -0.606   0.543  24.995  0.00  0.00    +0.023 A 
ATOM      8  C   UNL     1      -0.492  -0.268  25.102  0.00  0.00    +0.038 A 
BRANCH   3   2
ATOM      1  C   UNL     1      -0.187  -1.874  25.336  0.00  0.00    +0.252 C 
ATOM      2  O   UNL     1      -0.101  -1.542  24.587  0.00  0.00    -0.471 OA
ENDBRANCH   3   2
ENDBRANCH   9   6
ENDBRANCH  12   9
ENDBRANCH  13  12
BRANCH  18  19
ATOM     19  C   UNL     1      -3.866   2.604  24.653  0.00  0.00    +0.027 C 
BRANCH  19  20
ATOM     20  C   UNL     1      -4.278   2.120  25.180  0.00  0.00    +0.088 C 
BRANCH  20  21
ATOM     21  C   UNL     1      -4.668   1.447  24.903  0.00  0.00    +0.242 C 
ATOM     22  O   UNL     1      -5.426   1.510  24.588  0.00  0.00    -0.273 OA
ATOM     23  N   UNL     1      -4.296   0.711  24.942  0.00  0.00    -0.201 NA
BRANCH  23  24
ATOM     24  C   UNL     1      -4.686   0.039  24.665  0.00  0.00    +0.141 C 
BRANCH  24  25
ATOM     25  C   UNL     1      -4.306  -0.694  24.683  0.00  0.00    -0.001 A 
ATOM     26  C   UNL     1      -4.217  -1.128  23.987  0.00  0.00    -0.003 A 
ATOM     27  C   UNL     1      -3.836  -1.861  24.004  0.00  0.00    -0.000 A 
ATOM     28  C   UNL     1      -3.546  -2.159  24.717  0.00  0.00    -0.000 A 
ATOM     29  C   UNL     1      -3.637  -1.723  25.412  0.00  0.00    -0.000 A 
ATOM     30  C   UNL     1      -4.016  -0.992  25.395  0.00  0.00    -0.003 A 
ENDBRANCH  24  25
ENDBRANCH  23  24
ENDBRANCH  20  21
ENDBRANCH  19  20
ENDBRANCH  18  19
TORSDOF 9
ENDMDL
MODEL 6
REMARK VINA RESULT:     -11.5      1.448      4.047
REMARK  Name = 
REMARK  9 active torsions:
REMARK  status: ('A' for Active; 'I' for Inactive)
REMARK    1  A    between atoms: O_2  and  C_3
REMARK    2  A    between atoms: C_6  and  S_9
REMARK    3  A    between atoms: S_9  and  N_12
REMARK    4  A    between atoms: N_12  and  C_13
REMARK    5  A    between atoms: C_18  and  C_19
REMARK    6  A    between atoms: C_19  and  C_20
REMARK    7  A    between atoms: C_20  and  C_21
REMARK    8  A    between atoms: N_23  and  C_24
REMARK    9  A    between atoms: C_24  and  C_25
REMARK                            x       y       z     vdW  Elec       q    Type
REMARK                         _______ _______ _______ _____ _____    ______ ____
ROOT
ATOM     13  C   UNL     1      -3.603   3.427  25.023  0.00  0.00    +0.115 C 
ATOM     14  C   UNL     1      -4.290   3.725  25.371  0.00  0.00    +0.046 C 
ATOM     15  C   UNL     1      -4.852   3.121  25.383  0.00  0.00    +0.138 C 
ATOM     16  N   UNL     1      -4.512   2.450  25.042  0.00  0.00    -0.265 NA
ATOM     17  C   UNL     1      -3.740   2.640  24.820  0.00  0.00    +0.092 C 
ATOM     18  C   UNL     1      -4.949   1.754  24.979  0.00  0.00    +0.080 C 
ATOM     31  C   UNL     1      -5.726   1.727  25.255  0.00  0.00    +0.131 C 
ATOM     32  N   UNL     1      -6.065   2.397  25.596  0.00  0.00    -0.203 NA
ATOM     33  C   UNL     1      -5.628   3.094  25.660  0.00  0.00    +0.256 C 
ATOM     34  O   UNL     1      -5.967   3.764  26.000  0.00  0.00    -0.272 OA
ENDROOT
BRANCH  13  12
ATOM     12  N   UNL     1      -2.902   3.845  24.901  0.00  0.00    -0.078 NA
BRANCH  12   9
ATOM      9  S   UNL     1      -2.180   3.446  24.888  0.00  0.00    +0.077 S 
ATOM     10  O   UNL     1      -2.221   3.399  24.065  0.00  0.00    -0.152 OA
ATOM     11  O   UNL     1      -2.140   3.494  25.711  0.00  0.00    -0.152 OA
BRANCH   9   6
ATOM      3  C   UNL     1      -0.014   2.250  24.850  0.00  0.00    +0.139 A 
ATOM      4  C   UNL     1      -0.473   2.295  24.165  0.00  0.00    +0.038 A 
ATOM      5  C   UNL     1      -1.195   2.694  24.178  0.00  0.00    +0.023 A 
ATOM      6  C   UNL     1      -1.458   3.048  24.875  0.00  0.00    +0.124 A 
ATOM      7  C   UNL     1      -1.000   3.003  25.559  0.00  0.00    +0.023 A 
ATOM      8  C   UNL     1      -0.278   2.604  25.547  0.00  0.00    +0.038 A 
BRANCH   3   2
ATOM      1  C   UNL     1       0.984   1.520  24.135  0.00  0.00    +0.252 C 
ATOM      2  O   UNL     1       0.708   1.851  24.838  0.00  0.00    -0.471 OA
ENDBRANCH   3   2
ENDBRANCH   9   6
ENDBRANCH  12   9
ENDBRANCH  13  12
BRANCH  18  19
ATOM     19  C   UNL     1      -4.609   1.084  24.638  0.00  0.00    +0.027 C 
BRANCH  19  20
ATOM     20  C   UNL     1      -4.602   0.369  25.052  0.00  0.00    +0.088 C 
BRANCH  20  21
ATOM     21  C   UNL     1      -4.172  -0.272  24.760  0.00  0.00    +0.242 C 
ATOM     22  O   UNL     1      -4.490  -0.745  24.165  0.00  0.00    -0.273 OA
ATOM     23  N   UNL     1      -3.424  -0.439  25.065  0.00  0.00    -0.201 NA
BRANCH  23  24
ATOM     24  C   UNL     1      -2.995  -1.080  24.774  0.00  0.00    +0.141 C 
BRANCH  24  25
ATOM     25  C   UNL     1      -2.205  -1.181  24.993  0.00  0.00    -0.001 A 
ATOM     26  C   UNL     1      -1.939  -0.894  25.719  0.00  0.00    -0.003 A 
ATOM     27  C   UNL     1      -1.150  -0.995  25.938  0.00  0.00    -0.000 A 
ATOM     28  C   UNL     1      -0.627  -1.383  25.432  0.00  0.00    -0.000 A 
ATOM     29  C   UNL     1      -0.894  -1.670  24.705  0.00  0.00    -0.000 A 
ATOM     30  C   UNL     1      -1.683  -1.570  24.486  0.00  0.00    -0.003 A 
ENDBRANCH  24  25
ENDBRANCH  23  24
ENDBRANCH  20  21
ENDBRANCH  19  20
ENDBRANCH  18  19
TORSDOF 9
ENDMDL
MODEL 7
REMARK VINA RESULT:     -11.4      1.648      5.118
REMARK  Name = 
REMARK  9 active torsions:
REMARK  status: ('A' for Active; 'I' for Inactive)
REMARK    1  A    between atoms: O_2  and  C_3
REMARK    2  A    between atoms: C_6  and  S_9
REMARK    3  A    between atoms: S_9  and  N_12
REMARK    4  A    between atoms: N_12  and  C_13
REMARK    5  A    between atoms: C_18  and  C_19
REMARK    6  A    between atoms: C_19  and  C_20
REMARK    7  A    between atoms: C_20  and  C_21
REMARK    8  A    between atoms: N_23  and  C_24
REMARK    9  A    between atoms: C_24  and  C_25
REMARK                            x       y       z     vdW  Elec       q    Type
REMARK                         _______ _______ _______ _____ _____    ______ ____
ROOT
ATOM     13  C   UNL     1      -4.636   1.015  24.720  0.00  0.00    +0.115 C 
ATOM     14  C   UNL     1      -5.331   1.111  25.154  0.00  0.00    +0.046 C 
ATOM     15  C   UNL     1      -5.375   1.898  25.396  0.00  0.00    +0.138 C 
ATOM     16  N   UNL     1      -4.706   2.290  25.111  0.00  0.00    -0.265 NA
ATOM     17  C   UNL     1      -4.250   1.743  24.693  0.00  0.00    +0.092 C 
ATOM     18  C   UNL     1      -4.600   3.092  25.269  0.00  0.00    +0.080 C 
ATOM     31  C   UNL     1      -5.162   3.504  25.711  0.00  0.00    +0.131 C 
ATOM     32  N   UNL     1      -5.829   3.113  25.996  0.00  0.00    -0.203 NA
ATOM     33  C   UNL     1      -5.936   2.310  25.839  0.00  0.00    +0.256 C 
ATOM     34  O   UNL     1      -6.604   1.918  26.124  0.00  0.00    -0.272 OA
ENDROOT
BRANCH  13  12
ATOM     12  N   UNL     1      -4.374   0.314  24.373  0.00  0.00    -0.078 NA
BRANCH  12   9
ATOM      9  S   UNL     1      -3.666  -0.029  24.620  0.00  0.00    +0.077 S 
ATOM     10  O   UNL     1      -4.062  -0.400  25.241  0.00  0.00    -0.152 OA
ATOM     11  O   UNL     1      -3.269   0.342  23.999  0.00  0.00    -0.152 OA
BRANCH   9   6
ATOM      3  C   UNL     1      -1.540  -1.058  25.361  0.00  0.00    +0.139 A 
ATOM      4  C   UNL     1      -2.132  -0.892  25.912  0.00  0.00    +0.038 A 
ATOM      5  C   UNL     1      -2.841  -0.549  25.665  0.00  0.00    +0.023 A 
ATOM      6  C   UNL     1      -2.957  -0.372  24.867  0.00  0.00    +0.124 A 
ATOM      7  C   UNL     1      -2.366  -0.538  24.317  0.00  0.00    +0.023 A 
ATOM      8  C   UNL     1      -1.657  -0.881  24.564  0.00  0.00    +0.038 A 
BRANCH   3   2
ATOM      1  C   UNL     1      -0.285  -1.664  25.050  0.00  0.00    +0.252 C 
ATOM      2  O   UNL     1      -0.832  -1.401  25.608  0.00  0.00    -0.471 OA
ENDBRANCH   3   2
ENDBRANCH   9   6
ENDBRANCH  12   9
ENDBRANCH  13  12
BRANCH  18  19
ATOM     19  C   UNL     1      -3.932   3.483  24.983  0.00  0.00    +0.027 C 
BRANCH  19  20
ATOM     20  C   UNL     1      -3.460   3.922  25.499  0.00  0.00    +0.088 C 
BRANCH  20  21
ATOM     21  C   UNL     1      -2.682   4.105  25.291  0.00  0.00    +0.242 C 
ATOM     22  O   UNL     1      -2.510   4.829  24.936  0.00  0.00    -0.273 OA
ATOM     23  N   UNL     1      -2.078   3.564  25.439  0.00  0.00    -0.201 NA
BRANCH  23  24
ATOM     24  C   UNL     1      -1.301   3.747  25.232  0.00  0.00    +0.141 C 
BRANCH  24  25
ATOM     25  C   UNL     1      -0.725   3.155  25.229  0.00  0.00    -0.001 A 
ATOM     26  C   UNL     1      -0.438   2.864  24.512  0.00  0.00    -0.003 A 
ATOM     27  C   UNL     1       0.138   2.273  24.509  0.00  0.00    -0.000 A 
ATOM     28  C   UNL     1       0.426   1.973  25.221  0.00  0.00    -0.000 A 
ATOM     29  C   UNL     1       0.139   2.266  25.937  0.00  0.00    -0.000 A 
ATOM     30  C   UNL     1      -0.437   2.856  25.941  0.00  0.00    -0.003 A 
ENDBRANCH  24  25
ENDBRANCH  23  24
ENDBRANCH  20  21
ENDBRANCH  19  20
ENDBRANCH  18  19
TORSDOF 9
ENDMDL
MODEL 8
REMARK VINA RESULT:     -11.3      1.495      3.947
REMARK  Name = 
REMARK  9 active torsions:
REMARK  status: ('A' for Active; 'I' for Inactive)
REMARK    1  A    between atoms: O_2  and  C_3
REMARK    2  A    between atoms: C_6  and  S_9
REMARK    3  A    between atoms: S_9  and  N_12
REMARK    4  A    between atoms: N_12  and  C_13
REMARK    5  A    between atoms: C_18  and  C_19
REMARK    6  A    between atoms: C_19  and  C_20
REMARK    7  A    between atoms: C_20  and  C_21
REMARK    8  A    between atoms: N_23  and  C_24
REMARK    9  A    between atoms: C_24  and  C_25
REMARK                            x       y       z     vdW  Elec       q    Type
REMARK                         _______ _______ _______ _____ _____    ______ ____
ROOT
ATOM     13  C   UNL     1      -4.298   2.001  24.637  0.00  0.00    +0.115 C 
ATOM     14  C   UNL     1      -4.648   2.504  25.190  0.00  0.00    +0.046 C 
ATOM     15  C   UNL     1      -4.093   3.077  25.400  0.00  0.00    +0.138 C 
ATOM     16  N   UNL     1      -3.400   2.928  24.977  0.00  0.00    -0.265 NA
ATOM     17  C   UNL     1      -3.527   2.263  24.506  0.00  0.00    +0.092 C 
ATOM     18  C   UNL     1      -2.744   3.417  25.076  0.00  0.00    +0.080 C 
ATOM     31  C   UNL     1      -2.779   4.056  25.597  0.00  0.00    +0.131 C 
ATOM     32  N   UNL     1      -3.471   4.204  26.020  0.00  0.00    -0.203 NA
ATOM     33  C   UNL     1      -4.129   3.715  25.922  0.00  0.00    +0.256 C 
ATOM     34  O   UNL     1      -4.821   3.864  26.344  0.00  0.00    -0.272 OA
ENDROOT
BRANCH  13  12
ATOM     12  N   UNL     1      -4.657   1.350  24.279  0.00  0.00    -0.078 NA
BRANCH  12   9
ATOM      9  S   UNL     1      -4.408   0.586  24.466  0.00  0.00    +0.077 S 
ATOM     10  O   UNL     1      -3.888   0.599  23.826  0.00  0.00    -0.152 OA
ATOM     11  O   UNL     1      -4.928   0.573  25.107  0.00  0.00    -0.152 OA
BRANCH   9   6
ATOM      3  C   UNL     1      -3.660  -1.706  25.027  0.00  0.00    +0.139 A 
ATOM      4  C   UNL     1      -3.714  -1.132  25.619  0.00  0.00    +0.038 A 
ATOM      5  C   UNL     1      -3.964  -0.368  25.432  0.00  0.00    +0.023 A 
ATOM      6  C   UNL     1      -4.159  -0.178  24.653  0.00  0.00    +0.124 A 
ATOM      7  C   UNL     1      -4.105  -0.750  24.062  0.00  0.00    +0.023 A 
ATOM      8  C   UNL     1      -3.855  -1.514  24.249  0.00  0.00    +0.038 A 
BRANCH   3   2
ATOM      1  C   UNL     1      -3.313  -3.029  24.616  0.00  0.00    +0.252 C 
ATOM      2  O   UNL     1      -3.411  -2.469  25.214  0.00  0.00    -0.471 OA
ENDBRANCH   3   2
ENDBRANCH   9   6
ENDBRANCH  12   9
ENDBRANCH  13  12
BRANCH  18  19
ATOM     19  C   UNL     1      -2.051   3.268  24.653  0.00  0.00    +0.027 C 
BRANCH  19  20
ATOM     20  C   UNL     1      -1.342   3.141  25.055  0.00  0.00    +0.088 C 
BRANCH  20  21
ATOM     21  C   UNL     1      -0.720   2.746  24.681  0.00  0.00    +0.242 C 
ATOM     22  O   UNL     1      -0.170   3.171  24.238  0.00  0.00    -0.273 OA
ATOM     23  N   UNL     1      -0.651   1.927  24.751  0.00  0.00    -0.201 NA
BRANCH  23  24
ATOM     24  C   UNL     1      -0.030   1.534  24.377  0.00  0.00    +0.141 C 
BRANCH  24  25
ATOM     25  C   UNL     1      -0.066   0.716  24.268  0.00  0.00    -0.001 A 
ATOM     26  C   UNL     1       0.144   0.388  23.541  0.00  0.00    -0.003 A 
ATOM     27  C   UNL     1       0.107  -0.429  23.431  0.00  0.00    -0.000 A 
ATOM     28  C   UNL     1      -0.140  -0.918  24.048  0.00  0.00    -0.000 A 
ATOM     29  C   UNL     1      -0.350  -0.588  24.775  0.00  0.00    -0.000 A 
ATOM     30  C   UNL     1      -0.313   0.228  24.885  0.00  0.00    -0.003 A 
ENDBRANCH  24  25
ENDBRANCH  23  24
ENDBRANCH  20  21
ENDBRANCH  19  20
ENDBRANCH  18  19
TORSDOF 9
ENDMDL
