MODEL 1
REMARK VINA RESULT:      -8.8      0.000      0.000
REMARK  Name = 
REMARK  7 active torsions:
REMARK  status: ('A' for Active; 'I' for Inactive)
REMARK    1  A    between atoms: O_2  and  C_3
REMARK    2  A    between atoms: C_6  and  C_9
REMARK    3  A    between atoms: N_11  and  C_12
REMARK    4  A    between atoms: C_16  and  N_20
REMARK    5  A    between atoms: C_24  and  O_25
REMARK    6  A    between atoms: O_25  and  C_26
REMARK    7  A    between atoms: C_28  and  N_32
REMARK                            x       y       z     vdW  Elec       q    Type
REMARK                         _______ _______ _______ _____ _____    ______ ____
ROOT
ATOM     12  C   UNL     1       1.001   0.474  23.264  0.00  0.00    +0.155 C 
ATOM     13  C   UNL     1       0.592   0.063  22.677  0.00  0.00    +0.166 C 
ATOM     14  O   UNL     1      -0.210   0.239  22.755  0.00  0.00    -0.350 OA
ATOM     15  C   UNL     1      -0.297   0.758  23.389  0.00  0.00    +0.169 C 
ATOM     16  C   UNL     1      -0.846   1.188  23.830  0.00  0.00    +0.170 C 
ATOM     17  C   UNL     1      -0.438   1.599  24.417  0.00  0.00    +0.169 C 
ATOM     18  O   UNL     1       0.364   1.423  24.339  0.00  0.00    -0.350 OA
ATOM     19  C   UNL     1       0.451   0.903  23.704  0.00  0.00    +0.167 C 
ENDROOT
BRANCH  16  20
ATOM     20  N   UNL     1      -1.662   1.204  23.706  0.00  0.00    -0.180 N 
ATOM     21  N   UNL     1      -2.062   1.691  23.173  0.00  0.00    -0.040 NA
ATOM     22  N   UNL     1      -2.868   1.523  23.230  0.00  0.00    -0.020 NA
ATOM     23  N   UNL     1      -2.966   0.933  23.797  0.00  0.00    -0.071 NA
ATOM     24  C   UNL     1      -2.220   0.736  24.091  0.00  0.00    +0.343 A 
BRANCH  24  25
ATOM     25  O   UNL     1      -2.062   0.169  24.670  0.00  0.00    -0.421 OA
BRANCH  25  26
ATOM     26  C   UNL     1      -2.656  -0.351  24.912  0.00  0.00    +0.150 A 
ATOM     27  C   UNL     1      -2.738  -1.083  24.542  0.00  0.00    +0.052 A 
ATOM     28  C   UNL     1      -3.331  -1.603  24.783  0.00  0.00    +0.051 A 
ATOM     29  C   UNL     1      -3.842  -1.391  25.395  0.00  0.00    +0.015 A 
ATOM     30  C   UNL     1      -3.760  -0.658  25.766  0.00  0.00    +0.004 A 
ATOM     31  C   UNL     1      -3.166  -0.138  25.524  0.00  0.00    +0.038 A 
BRANCH  28  32
ATOM     32  N   UNL     1      -3.414  -2.336  24.413  0.00  0.00    -0.304 N 
ATOM     33  C   UNL     1      -2.854  -2.929  24.544  0.00  0.00    +0.112 C 
ATOM     34  C   UNL     1      -4.054  -2.477  23.914  0.00  0.00    +0.112 C 
ENDBRANCH  28  32
ENDBRANCH  25  26
ENDBRANCH  24  25
ENDBRANCH  16  20
BRANCH  12  11
ATOM      9  C   UNL     1       2.324   0.240  22.775  0.00  0.00    +0.265 C 
ATOM     10  O   UNL     1       2.014   0.037  22.037  0.00  0.00    -0.268 OA
ATOM     11  N   UNL     1       1.816   0.458  23.388  0.00  0.00    -0.198 NA
BRANCH   9   6
ATOM      3  C   UNL     1       4.769   0.192  23.148  0.00  0.00    +0.139 A 
ATOM      4  C   UNL     1       4.413   0.868  22.837  0.00  0.00    +0.037 A 
ATOM      5  C   UNL     1       3.598   0.884  22.713  0.00  0.00    +0.008 A 
ATOM      6  C   UNL     1       3.139   0.224  22.899  0.00  0.00    +0.055 A 
ATOM      7  C   UNL     1       3.495  -0.452  23.210  0.00  0.00    +0.008 A 
ATOM      8  C   UNL     1       4.311  -0.468  23.335  0.00  0.00    +0.037 A 
BRANCH   3   2
ATOM      1  C   UNL     1       5.888  -0.101  23.988  0.00  0.00    +0.252 C 
ATOM      2  O   UNL     1       5.585   0.176  23.272  0.00  0.00    -0.471 OA
ENDBRANCH   3   2
ENDBRANCH   9   6
ENDBRANCH  12  11
TORSDOF 7
ENDMDL
MODEL 2
REMARK VINA RESULT:      -8.7      1.729      2.716
REMARK  Name = 
REMARK  7 active torsions:
REMARK  status: ('A' for Active; 'I' for Inactive)
REMARK    1  A    between atoms: O_2  and  C_3
REMARK    2  A    between atoms: C_6  and  C_9
REMARK    3  A    between atoms: N_11  and  C_12
REMARK    4  A    between atoms: C_16  and  N_20
REMARK    5  A    between atoms: C_24  and  O_25
REMARK    6  A    between atoms: O_25  and  C_26
REMARK    7  A    between atoms: C_28  and  N_32
REMARK                            x       y       z     vdW  Elec       q    Type
REMARK                         _______ _______ _______ _____ _____    ______ ____
ROOT
ATOM     12  C   UNL     1       0.664   0.256  23.480  0.00  0.00    +0.155 C 
ATOM     13  C   UNL     1       0.232  -0.017  22.833  0.00  0.00    +0.166 C 
ATOM     14  O   UNL     1      -0.566  -0.020  23.043  0.00  0.00    -0.350 OA
ATOM     15  C   UNL     1      -0.627   0.252  23.819  0.00  0.00    +0.169 C 
ATOM     16  C   UNL     1      -1.157   0.419  24.429  0.00  0.00    +0.170 C 
ATOM     17  C   UNL     1      -0.725   0.692  25.076  0.00  0.00    +0.169 C 
ATOM     18  O   UNL     1       0.073   0.695  24.866  0.00  0.00    -0.350 OA
ATOM     19  C   UNL     1       0.133   0.423  24.089  0.00  0.00    +0.167 C 
ENDROOT
BRANCH  16  20
ATOM     20  N   UNL     1      -1.977   0.327  24.397  0.00  0.00    -0.180 N 
ATOM     21  N   UNL     1      -2.387  -0.389  24.420  0.00  0.00    -0.040 NA
ATOM     22  N   UNL     1      -3.193  -0.222  24.373  0.00  0.00    -0.020 NA
ATOM     23  N   UNL     1      -3.282   0.596  24.321  0.00  0.00    -0.071 NA
ATOM     24  C   UNL     1      -2.530   0.935  24.336  0.00  0.00    +0.343 A 
BRANCH  24  25
ATOM     25  O   UNL     1      -2.362   1.743  24.297  0.00  0.00    -0.421 OA
BRANCH  25  26
ATOM     26  C   UNL     1      -2.976   2.290  24.229  0.00  0.00    +0.150 A 
ATOM     27  C   UNL     1      -3.301   2.631  24.906  0.00  0.00    +0.052 A 
ATOM     28  C   UNL     1      -3.915   3.178  24.839  0.00  0.00    +0.051 A 
ATOM     29  C   UNL     1      -4.205   3.383  24.093  0.00  0.00    +0.015 A 
ATOM     30  C   UNL     1      -3.880   3.041  23.416  0.00  0.00    +0.004 A 
ATOM     31  C   UNL     1      -3.266   2.494  23.484  0.00  0.00    +0.038 A 
BRANCH  28  32
ATOM     32  N   UNL     1      -4.240   3.520  25.515  0.00  0.00    -0.304 N 
ATOM     33  C   UNL     1      -5.045   3.434  25.673  0.00  0.00    +0.112 C 
ATOM     34  C   UNL     1      -3.761   3.946  26.033  0.00  0.00    +0.112 C 
ENDBRANCH  28  32
ENDBRANCH  25  26
ENDBRANCH  24  25
ENDBRANCH  16  20
BRANCH  12  11
ATOM      9  C   UNL     1       1.950   0.123  22.870  0.00  0.00    +0.265 C 
ATOM     10  O   UNL     1       1.595  -0.193  22.194  0.00  0.00    -0.268 OA
ATOM     11  N   UNL     1       1.484   0.348  23.513  0.00  0.00    -0.198 NA
BRANCH   9   6
ATOM      3  C   UNL     1       4.407   0.396  22.965  0.00  0.00    +0.139 A 
ATOM      4  C   UNL     1       3.928   1.040  22.773  0.00  0.00    +0.037 A 
ATOM      5  C   UNL     1       3.109   0.949  22.741  0.00  0.00    +0.008 A 
ATOM      6  C   UNL     1       2.768   0.214  22.901  0.00  0.00    +0.055 A 
ATOM      7  C   UNL     1       3.248  -0.429  23.093  0.00  0.00    +0.008 A 
ATOM      8  C   UNL     1       4.067  -0.338  23.125  0.00  0.00    +0.037 A 
BRANCH   3   2
ATOM      1  C   UNL     1       5.663   0.093  23.575  0.00  0.00    +0.252 C 
ATOM      2  O   UNL     1       5.227   0.487  22.997  0.00  0.00    -0.471 OA
ENDBRANCH   3   2
ENDBRANCH   9   6
ENDBRANCH  12  11
TORSDOF 7
ENDMDL
MODEL 3
REMARK VINA RESULT:      -8.2      2.989      5.982
REMARK  Name = 
REMARK  7 active torsions:
REMARK  status: ('A' for Active; 'I' for Inactive)
REMARK    1  A    between atoms: O_2  and  C_3
REMARK    2  A    between atoms: C_6  and  C_9
REMARK    3  A    between atoms: N_11  and  C_12
REMARK    4  A    between atoms: C_16  and  N_20
REMARK    5  A    between atoms: C_24  and  O_25
REMARK    6  A    between atoms: O_25  and  C_26
REMARK    7  A    between atoms: C_28  and  N_32
REMARK                            x       y       z     vdW  Elec       q    Type
REMARK                         _______ _______ _______ _____ _____    ______ ____
ROOT
ATOM     12  C   UNL     1      -1.657  -0.213  25.181  0.00  0.00    +0.155 C 
ATOM     13  C   UNL     1      -1.675  -0.019  25.982  0.00  0.00    +0.166 C 
ATOM     14  O   UNL     1      -1.203   0.648  26.093  0.00  0.00    -0.350 OA
ATOM     15  C   UNL     1      -0.893   0.866  25.361  0.00  0.00    +0.169 C 
ATOM     16  C   UNL     1      -0.411   1.413  24.975  0.00  0.00    +0.170 C 
ATOM     17  C   UNL     1      -0.393   1.219  24.174  0.00  0.00    +0.169 C 
ATOM     18  O   UNL     1      -0.865   0.552  24.063  0.00  0.00    -0.350 OA
ATOM     19  C   UNL     1      -1.174   0.334  24.797  0.00  0.00    +0.167 C 
ENDROOT
BRANCH  16  20
ATOM     20  N   UNL     1      -0.015   2.045  25.330  0.00  0.00    -0.180 N 
ATOM     21  N   UNL     1       0.594   1.986  25.884  0.00  0.00    -0.040 NA
ATOM     22  N   UNL     1       0.826   2.750  26.089  0.00  0.00    -0.020 NA
ATOM     23  N   UNL     1       0.362   3.281  25.662  0.00  0.00    -0.071 NA
ATOM     24  C   UNL     1      -0.158   2.845  25.193  0.00  0.00    +0.343 A 
BRANCH  24  25
ATOM     25  O   UNL     1      -0.722   3.156  24.677  0.00  0.00    -0.421 OA
BRANCH  25  26
ATOM     26  C   UNL     1      -1.181   3.802  24.908  0.00  0.00    +0.150 A 
ATOM     27  C   UNL     1      -1.933   3.681  25.225  0.00  0.00    +0.052 A 
ATOM     28  C   UNL     1      -2.392   4.327  25.455  0.00  0.00    +0.051 A 
ATOM     29  C   UNL     1      -2.098   5.093  25.369  0.00  0.00    +0.015 A 
ATOM     30  C   UNL     1      -1.346   5.214  25.051  0.00  0.00    +0.004 A 
ATOM     31  C   UNL     1      -0.888   4.568  24.821  0.00  0.00    +0.038 A 
BRANCH  28  32
ATOM     32  N   UNL     1      -3.143   4.207  25.773  0.00  0.00    -0.304 N 
ATOM     33  C   UNL     1      -3.250   4.212  26.591  0.00  0.00    +0.112 C 
ATOM     34  C   UNL     1      -3.788   4.083  25.274  0.00  0.00    +0.112 C 
ENDBRANCH  28  32
ENDBRANCH  25  26
ENDBRANCH  24  25
ENDBRANCH  16  20
BRANCH  12  11
ATOM      9  C   UNL     1      -2.823  -1.030  25.055  0.00  0.00    +0.265 C 
ATOM     10  O   UNL     1      -3.198  -0.583  25.640  0.00  0.00    -0.268 OA
ATOM     11  N   UNL     1      -2.053  -0.845  24.826  0.00  0.00    -0.198 NA
BRANCH   9   6
ATOM      3  C   UNL     1      -4.011  -2.922  23.992  0.00  0.00    +0.139 A 
ATOM      4  C   UNL     1      -3.388  -3.067  24.513  0.00  0.00    +0.037 A 
ATOM      5  C   UNL     1      -2.992  -2.436  24.867  0.00  0.00    +0.008 A 
ATOM      6  C   UNL     1      -3.219  -1.661  24.701  0.00  0.00    +0.055 A 
ATOM      7  C   UNL     1      -3.842  -1.516  24.180  0.00  0.00    +0.008 A 
ATOM      8  C   UNL     1      -4.239  -2.147  23.825  0.00  0.00    +0.037 A 
BRANCH   3   2
ATOM      1  C   UNL     1      -4.989  -3.409  23.071  0.00  0.00    +0.252 C 
ATOM      2  O   UNL     1      -4.407  -3.553  23.637  0.00  0.00    -0.471 OA
ENDBRANCH   3   2
ENDBRANCH   9   6
ENDBRANCH  12  11
TORSDOF 7
ENDMDL
MODEL 4
REMARK VINA RESULT:      -7.9      2.126      2.883
REMARK  Name = 
REMARK  7 active torsions:
REMARK  status: ('A' for Active; 'I' for Inactive)
REMARK    1  A    between atoms: O_2  and  C_3
REMARK    2  A    between atoms: C_6  and  C_9
REMARK    3  A    between atoms: N_11  and  C_12
REMARK    4  A    between atoms: C_16  and  N_20
REMARK    5  A    between atoms: C_24  and  O_25
REMARK    6  A    between atoms: O_25  and  C_26
REMARK    7  A    between atoms: C_28  and  N_32
REMARK                            x       y       z     vdW  Elec       q    Type
REMARK                         _______ _______ _______ _____ _____    ______ ____
ROOT
ATOM     12  C   UNL     1      -0.242   1.959  24.675  0.00  0.00    +0.155 C 
ATOM     13  C   UNL     1      -0.469   1.624  25.394  0.00  0.00    +0.166 C 
ATOM     14  O   UNL     1      -1.136   2.028  25.663  0.00  0.00    -0.350 OA
ATOM     15  C   UNL     1      -1.321   2.612  25.112  0.00  0.00    +0.169 C 
ATOM     16  C   UNL     1      -1.846   3.223  24.937  0.00  0.00    +0.170 C 
ATOM     17  C   UNL     1      -1.619   3.558  24.219  0.00  0.00    +0.169 C 
ATOM     18  O   UNL     1      -0.953   3.154  23.949  0.00  0.00    -0.350 OA
ATOM     19  C   UNL     1      -0.768   2.569  24.501  0.00  0.00    +0.167 C 
ENDROOT
BRANCH  16  20
ATOM     20  N   UNL     1      -2.488   3.458  25.400  0.00  0.00    -0.180 N 
ATOM     21  N   UNL     1      -2.448   3.901  26.096  0.00  0.00    -0.040 NA
ATOM     22  N   UNL     1      -3.216   4.008  26.375  0.00  0.00    -0.020 NA
ATOM     23  N   UNL     1      -3.731   3.632  25.852  0.00  0.00    -0.071 NA
ATOM     24  C   UNL     1      -3.281   3.293  25.250  0.00  0.00    +0.343 A 
BRANCH  24  25
ATOM     25  O   UNL     1      -3.574   2.863  24.609  0.00  0.00    -0.421 OA
BRANCH  25  26
ATOM     26  C   UNL     1      -4.183   2.317  24.722  0.00  0.00    +0.150 A 
ATOM     27  C   UNL     1      -4.015   1.510  24.737  0.00  0.00    +0.052 A 
ATOM     28  C   UNL     1      -4.623   0.964  24.850  0.00  0.00    +0.051 A 
ATOM     29  C   UNL     1      -5.400   1.227  24.947  0.00  0.00    +0.015 A 
ATOM     30  C   UNL     1      -5.568   2.035  24.932  0.00  0.00    +0.004 A 
ATOM     31  C   UNL     1      -4.958   2.579  24.819  0.00  0.00    +0.038 A 
BRANCH  28  32
ATOM     32  N   UNL     1      -4.457   0.157  24.865  0.00  0.00    -0.304 N 
ATOM     33  C   UNL     1      -4.550  -0.296  24.181  0.00  0.00    +0.112 C 
ATOM     34  C   UNL     1      -4.198  -0.199  25.562  0.00  0.00    +0.112 C 
ENDBRANCH  28  32
ENDBRANCH  25  26
ENDBRANCH  24  25
ENDBRANCH  16  20
BRANCH  12  11
ATOM      9  C   UNL     1       0.462   0.940  23.962  0.00  0.00    +0.265 C 
ATOM     10  O   UNL     1      -0.117   0.391  24.175  0.00  0.00    -0.268 OA
ATOM     11  N   UNL     1       0.399   1.723  24.212  0.00  0.00    -0.198 NA
BRANCH   9   6
ATOM      3  C   UNL     1       2.385   0.235  22.573  0.00  0.00    +0.139 A 
ATOM      4  C   UNL     1       1.661  -0.155  22.503  0.00  0.00    +0.037 A 
ATOM      5  C   UNL     1       1.020   0.080  22.966  0.00  0.00    +0.008 A 
ATOM      6  C   UNL     1       1.103   0.705  23.499  0.00  0.00    +0.055 A 
ATOM      7  C   UNL     1       1.827   1.094  23.568  0.00  0.00    +0.008 A 
ATOM      8  C   UNL     1       2.468   0.859  23.105  0.00  0.00    +0.037 A 
BRANCH   3   2
ATOM      1  C   UNL     1       3.755   0.377  22.192  0.00  0.00    +0.252 C 
ATOM      2  O   UNL     1       3.026  -0.001  22.109  0.00  0.00    -0.471 OA
ENDBRANCH   3   2
ENDBRANCH   9   6
ENDBRANCH  12  11
TORSDOF 7
ENDMDL
MODEL 5
REMARK VINA RESULT:      -7.7      2.236      3.397
REMARK  Name = 
REMARK  7 active torsions:
REMARK  status: ('A' for Active; 'I' for Inactive)
REMARK    1  A    between atoms: O_2  and  C_3
REMARK    2  A    between atoms: C_6  and  C_9
REMARK    3  A    between atoms: N_11  and  C_12
REMARK    4  A    between atoms: C_16  and  N_20
REMARK    5  A    between atoms: C_24  and  O_25
REMARK    6  A    between atoms: O_25  and  C_26
REMARK    7  A    between atoms: C_28  and  N_32
REMARK                            x       y       z     vdW  Elec       q    Type
REMARK                         _______ _______ _______ _____ _____    ______ ____
ROOT
ATOM     12  C   UNL     1      -0.693   0.603  23.936  0.00  0.00    +0.155 C 
ATOM     13  C   UNL     1      -0.831   0.249  24.669  0.00  0.00    +0.166 C 
ATOM     14  O   UNL     1      -1.645   0.250  24.802  0.00  0.00    -0.350 OA
ATOM     15  C   UNL     1      -2.010   0.603  24.152  0.00  0.00    +0.169 C 
ATOM     16  C   UNL     1      -2.738   0.822  23.832  0.00  0.00    +0.170 C 
ATOM     17  C   UNL     1      -2.600   1.175  23.100  0.00  0.00    +0.169 C 
ATOM     18  O   UNL     1      -1.786   1.174  22.967  0.00  0.00    -0.350 OA
ATOM     19  C   UNL     1      -1.421   0.821  23.617  0.00  0.00    +0.167 C 
ENDROOT
BRANCH  16  20
ATOM     20  N   UNL     1      -3.476   0.707  24.184  0.00  0.00    -0.180 N 
ATOM     21  N   UNL     1      -3.786  -0.015  24.437  0.00  0.00    -0.040 NA
ATOM     22  N   UNL     1      -4.535   0.127  24.754  0.00  0.00    -0.020 NA
ATOM     23  N   UNL     1      -4.687   0.935  24.695  0.00  0.00    -0.071 NA
ATOM     24  C   UNL     1      -4.033   1.293  24.343  0.00  0.00    +0.343 A 
BRANCH  24  25
ATOM     25  O   UNL     1      -3.951   2.098  24.180  0.00  0.00    -0.421 OA
BRANCH  25  26
ATOM     26  C   UNL     1      -4.208   2.659  24.728  0.00  0.00    +0.150 A 
ATOM     27  C   UNL     1      -3.658   3.080  25.176  0.00  0.00    +0.052 A 
ATOM     28  C   UNL     1      -3.914   3.641  25.724  0.00  0.00    +0.051 A 
ATOM     29  C   UNL     1      -4.721   3.780  25.824  0.00  0.00    +0.015 A 
ATOM     30  C   UNL     1      -5.272   3.359  25.376  0.00  0.00    +0.004 A 
ATOM     31  C   UNL     1      -5.014   2.799  24.828  0.00  0.00    +0.038 A 
BRANCH  28  32
ATOM     32  N   UNL     1      -3.365   4.062  26.172  0.00  0.00    -0.304 N 
ATOM     33  C   UNL     1      -2.675   4.345  25.818  0.00  0.00    +0.112 C 
ATOM     34  C   UNL     1      -3.504   4.201  26.972  0.00  0.00    +0.112 C 
ENDBRANCH  28  32
ENDBRANCH  25  26
ENDBRANCH  24  25
ENDBRANCH  16  20
BRANCH  12  11
ATOM      9  C   UNL     1       0.581   0.092  23.537  0.00  0.00    +0.265 C 
ATOM     10  O   UNL     1       0.379  -0.648  23.842  0.00  0.00    -0.268 OA
ATOM     11  N   UNL     1       0.045   0.717  23.585  0.00  0.00    -0.198 NA
BRANCH   9   6
ATOM      3  C   UNL     1       2.793   0.434  22.483  0.00  0.00    +0.139 A 
ATOM      4  C   UNL     1       2.577   0.882  23.142  0.00  0.00    +0.037 A 
ATOM      5  C   UNL     1       1.839   0.768  23.493  0.00  0.00    +0.008 A 
ATOM      6  C   UNL     1       1.318   0.206  23.186  0.00  0.00    +0.055 A 
ATOM      7  C   UNL     1       1.535  -0.241  22.528  0.00  0.00    +0.008 A 
ATOM      8  C   UNL     1       2.273  -0.127  22.176  0.00  0.00    +0.037 A 
BRANCH   3   2
ATOM      1  C   UNL     1       4.202   0.645  22.602  0.00  0.00    +0.252 C 
ATOM      2  O   UNL     1       3.531   0.548  22.132  0.00  0.00    -0.471 OA
ENDBRANCH   3   2
ENDBRANCH   9   6
ENDBRANCH  12  11
TORSDOF 7
ENDMDL
MODEL 6
REMARK VINA RESULT:      -7.6      2.475      6.695
REMARK  Name = 
REMARK  7 active torsions:
REMARK  status: ('A' for Active; 'I' for Inactive)
REMARK    1  A    between atoms: O_2  and  C_3
REMARK    2  A    between atoms: C_6  and  C_9
REMARK    3  A    between atoms: N_11  and  C_12
REMARK    4  A    between atoms: C_16  and  N_20
REMARK    5  A    between atoms: C_24  and  O_25
REMARK    6  A    between atoms: O_25  and  C_26
REMARK    7  A    between atoms: C_28  and  N_32
REMARK                            x       y       z     vdW  Elec       q    Type
REMARK                         _______ _______ _______ _____ _____    ______ ____
ROOT
ATOM     12  C   UNL     1      -2.859   1.053  24.745  0.00  0.00    +0.155 C 
ATOM     13  C   UNL     1      -3.089   0.406  24.289  0.00  0.00    +0.166 C 
ATOM     14  O   UNL     1      -2.445  -0.105  24.228  0.00  0.00    -0.350 OA
ATOM     15  C   UNL     1      -1.816   0.226  24.646  0.00  0.00    +0.169 C 
ATOM     16  C   UNL     1      -1.029   0.116  24.868  0.00  0.00    +0.170 C 
ATOM     17  C   UNL     1      -0.798   0.763  25.324  0.00  0.00    +0.169 C 
ATOM     18  O   UNL     1      -1.443   1.274  25.384  0.00  0.00    -0.350 OA
ATOM     19  C   UNL     1      -2.072   0.942  24.965  0.00  0.00    +0.167 C 
ENDROOT
BRANCH  16  20
ATOM     20  N   UNL     1      -0.555  -0.530  24.668  0.00  0.00    -0.180 N 
ATOM     21  N   UNL     1      -0.613  -1.290  24.983  0.00  0.00    -0.040 NA
ATOM     22  N   UNL     1      -0.034  -1.758  24.627  0.00  0.00    -0.020 NA
ATOM     23  N   UNL     1       0.381  -1.287  24.093  0.00  0.00    -0.071 NA
ATOM     24  C   UNL     1       0.059  -0.528  24.118  0.00  0.00    +0.343 A 
BRANCH  24  25
ATOM     25  O   UNL     1       0.309   0.119  23.671  0.00  0.00    -0.421 OA
BRANCH  25  26
ATOM     26  C   UNL     1       0.884   0.021  23.087  0.00  0.00    +0.150 A 
ATOM     27  C   UNL     1       1.670   0.212  23.247  0.00  0.00    +0.052 A 
ATOM     28  C   UNL     1       2.245   0.114  22.664  0.00  0.00    +0.051 A 
ATOM     29  C   UNL     1       2.034  -0.176  21.921  0.00  0.00    +0.015 A 
ATOM     30  C   UNL     1       1.247  -0.368  21.761  0.00  0.00    +0.004 A 
ATOM     31  C   UNL     1       0.673  -0.270  22.345  0.00  0.00    +0.038 A 
BRANCH  28  32
ATOM     32  N   UNL     1       3.032   0.305  22.823  0.00  0.00    -0.304 N 
ATOM     33  C   UNL     1       3.291   1.085  22.739  0.00  0.00    +0.112 C 
ATOM     34  C   UNL     1       3.559  -0.280  23.066  0.00  0.00    +0.112 C 
ENDBRANCH  28  32
ENDBRANCH  25  26
ENDBRANCH  24  25
ENDBRANCH  16  20
BRANCH  12  11
ATOM      9  C   UNL     1      -4.154   1.623  24.948  0.00  0.00    +0.265 C 
ATOM     10  O   UNL     1      -4.502   0.900  24.752  0.00  0.00    -0.268 OA
ATOM     11  N   UNL     1      -3.332   1.699  24.945  0.00  0.00    -0.198 NA
BRANCH   9   6
ATOM      3  C   UNL     1      -5.575   3.557  25.548  0.00  0.00    +0.139 A 
ATOM      4  C   UNL     1      -4.856   3.678  25.161  0.00  0.00    +0.037 A 
ATOM      5  C   UNL     1      -4.383   3.033  24.962  0.00  0.00    +0.008 A 
ATOM      6  C   UNL     1      -4.627   2.267  25.148  0.00  0.00    +0.055 A 
ATOM      7  C   UNL     1      -5.346   2.147  25.534  0.00  0.00    +0.008 A 
ATOM      8  C   UNL     1      -5.821   2.792  25.734  0.00  0.00    +0.037 A 
BRANCH   3   2
ATOM      1  C   UNL     1      -5.910   4.939  25.403  0.00  0.00    +0.252 C 
ATOM      2  O   UNL     1      -6.049   4.203  25.748  0.00  0.00    -0.471 OA
ENDBRANCH   3   2
ENDBRANCH   9   6
ENDBRANCH  12  11
TORSDOF 7
ENDMDL
MODEL 7
REMARK VINA RESULT:      -7.3      2.932      5.937
REMARK  Name = 
REMARK  7 active torsions:
REMARK  status: ('A' for Active; 'I' for Inactive)
REMARK    1  A    between atoms: O_2  and  C_3
REMARK    2  A    between atoms: C_6  and  C_9
REMARK    3  A    between atoms: N_11  and  C_12
REMARK    4  A    between atoms: C_16  and  N_20
REMARK    5  A    between atoms: C_24  and  O_25
REMARK    6  A    between atoms: O_25  and  C_26
REMARK    7  A    between atoms: C_28  and  N_32
REMARK                            x       y       z     vdW  Elec       q    Type
REMARK                         _______ _______ _______ _____ _____    ______ ____
ROOT
ATOM     12  C   UNL     1      -2.693   2.032  24.247  0.00  0.00    +0.155 C 
ATOM     13  C   UNL     1      -2.743   1.692  23.497  0.00  0.00    +0.166 C 
ATOM     14  O   UNL     1      -2.102   1.181  23.406  0.00  0.00    -0.350 OA
ATOM     15  C   UNL     1      -1.656   1.205  24.098  0.00  0.00    +0.169 C 
ATOM     16  C   UNL     1      -0.983   0.905  24.471  0.00  0.00    +0.170 C 
ATOM     17  C   UNL     1      -0.933   1.245  25.221  0.00  0.00    +0.169 C 
ATOM     18  O   UNL     1      -1.574   1.755  25.312  0.00  0.00    -0.350 OA
ATOM     19  C   UNL     1      -2.021   1.731  24.618  0.00  0.00    +0.167 C 
ENDROOT
BRANCH  16  20
ATOM     20  N   UNL     1      -0.454   0.360  24.149  0.00  0.00    -0.180 N 
ATOM     21  N   UNL     1       0.085   0.507  23.541  0.00  0.00    -0.040 NA
ATOM     22  N   UNL     1       0.501  -0.190  23.395  0.00  0.00    -0.020 NA
ATOM     23  N   UNL     1       0.220  -0.767  23.912  0.00  0.00    -0.071 NA
ATOM     24  C   UNL     1      -0.370  -0.428  24.378  0.00  0.00    +0.343 A 
BRANCH  24  25
ATOM     25  O   UNL     1      -0.801  -0.810  24.969  0.00  0.00    -0.421 OA
BRANCH  25  26
ATOM     26  C   UNL     1      -1.188  -1.520  24.804  0.00  0.00    +0.150 A 
ATOM     27  C   UNL     1      -2.012  -1.556  24.830  0.00  0.00    +0.052 A 
ATOM     28  C   UNL     1      -2.399  -2.265  24.665  0.00  0.00    +0.051 A 
ATOM     29  C   UNL     1      -1.962  -2.939  24.475  0.00  0.00    +0.015 A 
ATOM     30  C   UNL     1      -1.137  -2.903  24.450  0.00  0.00    +0.004 A 
ATOM     31  C   UNL     1      -0.751  -2.193  24.614  0.00  0.00    +0.038 A 
BRANCH  28  32
ATOM     32  N   UNL     1      -3.222  -2.303  24.690  0.00  0.00    -0.304 N 
ATOM     33  C   UNL     1      -3.636  -1.884  25.269  0.00  0.00    +0.112 C 
ATOM     34  C   UNL     1      -3.633  -2.757  24.138  0.00  0.00    +0.112 C 
ENDBRANCH  28  32
ENDBRANCH  25  26
ENDBRANCH  24  25
ENDBRANCH  16  20
BRANCH  12  11
ATOM      9  C   UNL     1      -4.029   2.404  24.595  0.00  0.00    +0.265 C 
ATOM     10  O   UNL     1      -4.305   1.684  24.299  0.00  0.00    -0.268 OA
ATOM     11  N   UNL     1      -3.222   2.577  24.569  0.00  0.00    -0.198 NA
BRANCH   9   6
ATOM      3  C   UNL     1      -5.617   4.037  25.560  0.00  0.00    +0.139 A 
ATOM      4  C   UNL     1      -4.943   4.301  25.165  0.00  0.00    +0.037 A 
ATOM      5  C   UNL     1      -4.413   3.757  24.843  0.00  0.00    +0.008 A 
ATOM      6  C   UNL     1      -4.558   2.948  24.916  0.00  0.00    +0.055 A 
ATOM      7  C   UNL     1      -5.232   2.684  25.311  0.00  0.00    +0.008 A 
ATOM      8  C   UNL     1      -5.762   3.228  25.633  0.00  0.00    +0.037 A 
BRANCH   3   2
ATOM      1  C   UNL     1      -6.281   5.301  25.501  0.00  0.00    +0.252 C 
ATOM      2  O   UNL     1      -6.147   4.582  25.882  0.00  0.00    -0.471 OA
ENDBRANCH   3   2
ENDBRANCH   9   6
ENDBRANCH  12  11
TORSDOF 7
ENDMDL
MODEL 8
REMARK VINA RESULT:      -7.0      3.401      6.065
REMARK  Name = 
REMARK  7 active torsions:
REMARK  status: ('A' for Active; 'I' for Inactive)
REMARK    1  A    between atoms: O_2  and  C_3
REMARK    2  A    between atoms: C_6  and  C_9
REMARK    3  A    between atoms: N_11  and  C_12
REMARK    4  A    between atoms: C_16  and  N_20
REMARK    5  A    between atoms: C_24  and  O_25
REMARK    6  A    between atoms: O_25  and  C_26
REMARK    7  A    between atoms: C_28  and  N_32
REMARK                            x       y       z     vdW  Elec       q    Type
REMARK                         _______ _______ _______ _____ _____    ______ ____
ROOT
ATOM     12  C   UNL     1      -3.885   0.883  24.086  0.00  0.00    +0.155 C 
ATOM     13  C   UNL     1      -3.503   1.214  23.434  0.00  0.00    +0.166 C 
ATOM     14  O   UNL     1      -3.507   2.034  23.526  0.00  0.00    -0.350 OA
ATOM     15  C   UNL     1      -3.892   2.210  24.233  0.00  0.00    +0.169 C 
ATOM     16  C   UNL     1      -4.133   2.824  24.728  0.00  0.00    +0.170 C 
ATOM     17  C   UNL     1      -4.516   2.493  25.380  0.00  0.00    +0.169 C 
ATOM     18  O   UNL     1      -4.511   1.674  25.288  0.00  0.00    -0.350 OA
ATOM     19  C   UNL     1      -4.126   1.498  24.579  0.00  0.00    +0.167 C 
ENDROOT
BRANCH  16  20
ATOM     20  N   UNL     1      -4.012   3.630  24.594  0.00  0.00    -0.180 N 
ATOM     21  N   UNL     1      -4.445   4.106  24.077  0.00  0.00    -0.040 NA
ATOM     22  N   UNL     1      -4.138   4.870  24.117  0.00  0.00    -0.020 NA
ATOM     23  N   UNL     1      -3.516   4.867  24.659  0.00  0.00    -0.071 NA
ATOM     24  C   UNL     1      -3.439   4.100  24.954  0.00  0.00    +0.343 A 
BRANCH  24  25
ATOM     25  O   UNL     1      -2.884   3.848  25.511  0.00  0.00    -0.421 OA
BRANCH  25  26
ATOM     26  C   UNL     1      -2.082   4.008  25.396  0.00  0.00    +0.150 A 
ATOM     27  C   UNL     1      -1.534   3.392  25.402  0.00  0.00    +0.052 A 
ATOM     28  C   UNL     1      -0.733   3.551  25.287  0.00  0.00    +0.051 A 
ATOM     29  C   UNL     1      -0.480   4.327  25.166  0.00  0.00    +0.015 A 
ATOM     30  C   UNL     1      -1.029   4.944  25.160  0.00  0.00    +0.004 A 
ATOM     31  C   UNL     1      -1.830   4.784  25.275  0.00  0.00    +0.038 A 
BRANCH  28  32
ATOM     32  N   UNL     1      -0.184   2.935  25.293  0.00  0.00    -0.304 N 
ATOM     33  C   UNL     1       0.111   2.654  26.010  0.00  0.00    +0.112 C 
ATOM     34  C   UNL     1       0.069   2.601  24.583  0.00  0.00    +0.112 C 
ENDBRANCH  28  32
ENDBRANCH  25  26
ENDBRANCH  24  25
ENDBRANCH  16  20
BRANCH  12  11
ATOM      9  C   UNL     1      -3.369  -0.446  24.185  0.00  0.00    +0.265 C 
ATOM     10  O   UNL     1      -2.612  -0.164  24.017  0.00  0.00    -0.268 OA
ATOM     11  N   UNL     1      -4.006   0.078  24.220  0.00  0.00    -0.198 NA
BRANCH   9   6
ATOM      3  C   UNL     1      -3.730  -2.861  24.587  0.00  0.00    +0.139 A 
ATOM      4  C   UNL     1      -4.107  -2.487  23.955  0.00  0.00    +0.037 A 
ATOM      5  C   UNL     1      -3.986  -1.683  23.821  0.00  0.00    +0.008 A 
ATOM      6  C   UNL     1      -3.490  -1.251  24.319  0.00  0.00    +0.055 A 
ATOM      7  C   UNL     1      -3.113  -1.624  24.951  0.00  0.00    +0.008 A 
ATOM      8  C   UNL     1      -3.233  -2.430  25.085  0.00  0.00    +0.037 A 
BRANCH   3   2
ATOM      1  C   UNL     1      -3.774  -4.204  24.100  0.00  0.00    +0.252 C 
ATOM      2  O   UNL     1      -3.850  -3.666  24.721  0.00  0.00    -0.471 OA
ENDBRANCH   3   2
ENDBRANCH   9   6
ENDBRANCH  12  11
TORSDOF 7
ENDMDL
MODEL 9
REMARK VINA RESULT:      -6.1     14.325     16.596
REMARK  Name = 
REMARK  7 active torsions:
REMARK  status: ('A' for Active; 'I' for Inactive)
REMARK    1  A    between atoms: O_2  and  C_3
REMARK    2  A    between atoms: C_6  and  C_9
REMARK    3  A    between atoms: N_11  and  C_12
REMARK    4  A    between atoms: C_16  and  N_20
REMARK    5  A    between atoms: C_24  and  O_25
REMARK    6  A    between atoms: O_25  and  C_26
REMARK    7  A    between atoms: C_28  and  N_32
REMARK                            x       y       z     vdW  Elec       q    Type
REMARK                         _______ _______ _______ _____ _____    ______ ____
ROOT
ATOM     12  C   UNL     1      -6.580 -10.012  15.253  0.00  0.00    +0.155 C 
ATOM     13  C   UNL     1      -5.853  -9.685  15.463  0.00  0.00    +0.166 C 
ATOM     14  O   UNL     1      -5.339  -9.776  14.825  0.00  0.00    -0.350 OA
ATOM     15  C   UNL     1      -5.748 -10.160  14.221  0.00  0.00    +0.169 C 
ATOM     16  C   UNL     1      -5.684 -10.454  13.452  0.00  0.00    +0.170 C 
ATOM     17  C   UNL     1      -6.411 -10.781  13.242  0.00  0.00    +0.169 C 
ATOM     18  O   UNL     1      -6.925 -10.690  13.881  0.00  0.00    -0.350 OA
ATOM     19  C   UNL     1      -6.515 -10.306  14.485  0.00  0.00    +0.167 C 
ENDROOT
BRANCH  16  20
ATOM     20  N   UNL     1      -5.009 -10.425  12.977  0.00  0.00    -0.180 N 
ATOM     21  N   UNL     1      -4.277 -10.763  13.153  0.00  0.00    -0.040 NA
ATOM     22  N   UNL     1      -3.765 -10.600  12.528  0.00  0.00    -0.020 NA
ATOM     23  N   UNL     1      -4.180 -10.162  11.966  0.00  0.00    -0.071 NA
ATOM     24  C   UNL     1      -4.949 -10.054  12.244  0.00  0.00    +0.343 A 
BRANCH  24  25
ATOM     25  O   UNL     1      -5.552  -9.646  11.855  0.00  0.00    -0.421 OA
BRANCH  25  26
ATOM     26  C   UNL     1      -5.405  -9.289  11.125  0.00  0.00    +0.150 A 
ATOM     27  C   UNL     1      -5.571  -9.694  10.427  0.00  0.00    +0.052 A 
ATOM     28  C   UNL     1      -5.425  -9.337   9.698  0.00  0.00    +0.051 A 
ATOM     29  C   UNL     1      -5.111  -8.574   9.668  0.00  0.00    +0.015 A 
ATOM     30  C   UNL     1      -4.945  -8.168  10.367  0.00  0.00    +0.004 A 
ATOM     31  C   UNL     1      -5.092  -8.526  11.096  0.00  0.00    +0.038 A 
BRANCH  28  32
ATOM     32  N   UNL     1      -5.591  -9.741   8.999  0.00  0.00    -0.304 N 
ATOM     33  C   UNL     1      -6.363  -9.761   8.708  0.00  0.00    +0.112 C 
ATOM     34  C   UNL     1      -4.987 -10.126   8.590  0.00  0.00    +0.112 C 
ENDBRANCH  28  32
ENDBRANCH  25  26
ENDBRANCH  24  25
ENDBRANCH  16  20
BRANCH  12  11
ATOM      9  C   UNL     1      -7.262  -9.655  16.458  0.00  0.00    +0.265 C 
ATOM     10  O   UNL     1      -6.595  -9.240  16.711  0.00  0.00    -0.268 OA
ATOM     11  N   UNL     1      -7.254 -10.041  15.728  0.00  0.00    -0.198 NA
BRANCH   9   6
ATOM      3  C   UNL     1      -9.283  -9.741  17.882  0.00  0.00    +0.139 A 
ATOM      4  C   UNL     1      -9.134  -9.075  17.418  0.00  0.00    +0.037 A 
ATOM      5  C   UNL     1      -8.461  -9.047  16.943  0.00  0.00    +0.008 A 
ATOM      6  C   UNL     1      -7.936  -9.683  16.932  0.00  0.00    +0.055 A 
ATOM      7  C   UNL     1      -8.085 -10.349  17.397  0.00  0.00    +0.008 A 
ATOM      8  C   UNL     1      -8.759 -10.378  17.872  0.00  0.00    +0.037 A 
BRANCH   3   2
ATOM      1  C   UNL     1     -10.602  -9.284  18.189  0.00  0.00    +0.252 C 
ATOM      2  O   UNL     1      -9.957  -9.769  18.358  0.00  0.00    -0.471 OA
ENDBRANCH   3   2
ENDBRANCH   9   6
ENDBRANCH  12  11
TORSDOF 7
ENDMDL
MODEL 10
REMARK VINA RESULT:      -6.0     13.918     16.371
REMARK  Name = 
REMARK  7 active torsions:
REMARK  status: ('A' for Active; 'I' for Inactive)
REMARK    1  A    between atoms: O_2  and  C_3
REMARK    2  A    between atoms: C_6  and  C_9
REMARK    3  A    between atoms: N_11  and  C_12
REMARK    4  A    between atoms: C_16  and  N_20
REMARK    5  A    between atoms: C_24  and  O_25
REMARK    6  A    between atoms: O_25  and  C_26
REMARK    7  A    between atoms: C_28  and  N_32
REMARK                            x       y       z     vdW  Elec       q    Type
REMARK                         _______ _______ _______ _____ _____    ______ ____
ROOT
ATOM     12  C   UNL     1      -4.775 -10.410  15.011  0.00  0.00    +0.155 C 
ATOM     13  C   UNL     1      -4.000 -10.202  15.205  0.00  0.00    +0.166 C 
ATOM     14  O   UNL     1      -3.554 -10.205  14.512  0.00  0.00    -0.350 OA
ATOM     15  C   UNL     1      -4.052 -10.414  13.889  0.00  0.00    +0.169 C 
ATOM     16  C   UNL     1      -4.085 -10.545  13.075  0.00  0.00    +0.170 C 
ATOM     17  C   UNL     1      -4.859 -10.753  12.880  0.00  0.00    +0.169 C 
ATOM     18  O   UNL     1      -5.305 -10.750  13.574  0.00  0.00    -0.350 OA
ATOM     19  C   UNL     1      -4.806 -10.541  14.197  0.00  0.00    +0.167 C 
ENDROOT
BRANCH  16  20
ATOM     20  N   UNL     1      -3.453 -10.480  12.548  0.00  0.00    -0.180 N 
ATOM     21  N   UNL     1      -2.693 -10.781  12.661  0.00  0.00    -0.040 NA
ATOM     22  N   UNL     1      -2.241 -10.589  11.999  0.00  0.00    -0.020 NA
ATOM     23  N   UNL     1      -2.721 -10.170  11.476  0.00  0.00    -0.071 NA
ATOM     24  C   UNL     1      -3.470 -10.102  11.815  0.00  0.00    +0.343 A 
BRANCH  24  25
ATOM     25  O   UNL     1      -4.122  -9.723  11.480  0.00  0.00    -0.421 OA
BRANCH  25  26
ATOM     26  C   UNL     1      -4.122  -9.536  10.676  0.00  0.00    +0.150 A 
ATOM     27  C   UNL     1      -4.577  -9.978  10.149  0.00  0.00    +0.052 A 
ATOM     28  C   UNL     1      -4.577  -9.792   9.346  0.00  0.00    +0.051 A 
ATOM     29  C   UNL     1      -4.122  -9.161   9.069  0.00  0.00    +0.015 A 
ATOM     30  C   UNL     1      -3.666  -8.719   9.596  0.00  0.00    +0.004 A 
ATOM     31  C   UNL     1      -3.667  -8.906  10.399  0.00  0.00    +0.038 A 
BRANCH  28  32
ATOM     32  N   UNL     1      -5.032 -10.233   8.819  0.00  0.00    -0.304 N 
ATOM     33  C   UNL     1      -5.850 -10.127   8.792  0.00  0.00    +0.112 C 
ATOM     34  C   UNL     1      -4.671 -10.781   8.319  0.00  0.00    +0.112 C 
ENDBRANCH  28  32
ENDBRANCH  25  26
ENDBRANCH  24  25
ENDBRANCH  16  20
BRANCH  12  11
ATOM      9  C   UNL     1      -5.342 -10.166  16.300  0.00  0.00    +0.265 C 
ATOM     10  O   UNL     1      -4.644  -9.791  16.535  0.00  0.00    -0.268 OA
ATOM     11  N   UNL     1      -5.406 -10.475  15.538  0.00  0.00    -0.198 NA
BRANCH   9   6
ATOM      3  C   UNL     1      -7.235 -10.361  17.881  0.00  0.00    +0.139 A 
ATOM      4  C   UNL     1      -7.320  -9.921  17.188  0.00  0.00    +0.037 A 
ATOM      5  C   UNL     1      -6.689  -9.856  16.662  0.00  0.00    +0.008 A 
ATOM      6  C   UNL     1      -5.973 -10.231  16.827  0.00  0.00    +0.055 A 
ATOM      7  C   UNL     1      -5.888 -10.671  17.519  0.00  0.00    +0.008 A 
ATOM      8  C   UNL     1      -6.519 -10.737  18.047  0.00  0.00    +0.037 A 
BRANCH   3   2
ATOM      1  C   UNL     1      -7.722 -10.527  19.214  0.00  0.00    +0.252 C 
ATOM      2  O   UNL     1      -7.867 -10.427  18.408  0.00  0.00    -0.471 OA
ENDBRANCH   3   2
ENDBRANCH   9   6
ENDBRANCH  12  11
TORSDOF 7
ENDMDL
