MODEL 1
REMARK VINA RESULT:     -11.3      0.000      0.000
REMARK  Name = 
REMARK  7 active torsions:
REMARK  status: ('A' for Active; 'I' for Inactive)
REMARK    1  A    between atoms: C_2  and  C_4
REMARK    2  A    between atoms: C_6  and  C_7
REMARK    3  A    between atoms: C_7  and  C_8
REMARK    4  A    between atoms: C_11  and  C_13
REMARK    5  A    between atoms: C_22  and  C_23
REMARK    6  A    between atoms: C_23  and  N_24
REMARK    7  A    between atoms: C_25  and  C_27
REMARK                            x       y       z     vdW  Elec       q    Type
REMARK                         _______ _______ _______ _____ _____    ______ ____
ROOT
ATOM      4  C   UNL     1      -3.459   1.363  23.917  0.00  0.00    +0.006 C 
ATOM      5  C   UNL     1      -3.586   2.124  24.212  0.00  0.00    +0.005 C 
ATOM      6  C   UNL     1      -4.191   2.259  24.756  0.00  0.00    +0.027 C 
ATOM     19  C   UNL     1      -4.669   1.634  25.005  0.00  0.00    -0.048 C 
ATOM     20  C   UNL     1      -5.274   1.769  25.549  0.00  0.00    +0.026 C 
ATOM     21  C   UNL     1      -4.541   0.874  24.711  0.00  0.00    -0.033 C 
ATOM     22  C   UNL     1      -3.936   0.739  24.167  0.00  0.00    +0.043 C 
ENDROOT
BRANCH   4   2
ATOM      1  C   UNL     1      -2.111   0.981  23.635  0.00  0.00    +0.000 C 
ATOM      2  C   UNL     1      -2.853   1.227  23.373  0.00  0.00    +0.000 C 
ATOM      3  C   UNL     1      -2.991   1.339  22.567  0.00  0.00    +0.000 C 
ENDBRANCH   4   2
BRANCH   6   7
ATOM      7  C   UNL     1      -4.319   3.020  25.050  0.00  0.00    +0.091 C 
BRANCH   7   8
ATOM      8  C   UNL     1      -3.691   3.450  25.366  0.00  0.00    +0.227 A 
ATOM      9  N   UNL     1      -3.536   3.563  26.168  0.00  0.00    -0.111 NA
ATOM     10  N   UNL     1      -2.856   4.027  26.234  0.00  0.00    -0.106 NA
ATOM     11  C   UNL     1      -2.592   4.200  25.472  0.00  0.00    +0.267 A 
ATOM     12  O   UNL     1      -3.108   3.844  24.935  0.00  0.00    -0.418 OA
BRANCH  11  13
ATOM     13  C   UNL     1      -1.928   4.651  25.279  0.00  0.00    +0.136 A 
ATOM     14  C   UNL     1      -1.928   5.448  25.068  0.00  0.00    +0.123 A 
ATOM     15  N   UNL     1      -1.147   5.674  24.922  0.00  0.00    -0.222 NA
ATOM     16  C   UNL     1      -0.665   5.016  25.044  0.00  0.00    +0.179 A 
ATOM     17  N   UNL     1      -1.148   4.383  25.265  0.00  0.00    -0.303 N 
ATOM     18  C   UNL     1      -0.894   3.618  25.440  0.00  0.00    +0.132 C 
ENDBRANCH  11  13
ENDBRANCH   7   8
ENDBRANCH   6   7
BRANCH  22  23
ATOM     23  C   UNL     1      -3.809  -0.021  23.873  0.00  0.00    +0.119 C 
BRANCH  23  24
ATOM     24  N   UNL     1      -3.666  -0.646  24.393  0.00  0.00    -0.205 NA
ATOM     25  C   UNL     1      -3.809  -1.423  24.152  0.00  0.00    +0.241 C 
ATOM     26  O   UNL     1      -4.094  -1.574  23.394  0.00  0.00    -0.273 OA
BRANCH  25  27
ATOM     27  C   UNL     1      -3.667  -2.048  24.672  0.00  0.00    +0.078 C 
ATOM     28  C   UNL     1      -3.409  -2.322  25.405  0.00  0.00    +0.010 C 
ATOM     29  C   UNL     1      -3.679  -2.856  24.837  0.00  0.00    +0.010 C 
ENDBRANCH  25  27
ENDBRANCH  23  24
ENDBRANCH  22  23
TORSDOF 7
ENDMDL
MODEL 2
REMARK VINA RESULT:     -10.8      0.985      5.451
REMARK  Name = 
REMARK  7 active torsions:
REMARK  status: ('A' for Active; 'I' for Inactive)
REMARK    1  A    between atoms: C_2  and  C_4
REMARK    2  A    between atoms: C_6  and  C_7
REMARK    3  A    between atoms: C_7  and  C_8
REMARK    4  A    between atoms: C_11  and  C_13
REMARK    5  A    between atoms: C_22  and  C_23
REMARK    6  A    between atoms: C_23  and  N_24
REMARK    7  A    between atoms: C_25  and  C_27
REMARK                            x       y       z     vdW  Elec       q    Type
REMARK                         _______ _______ _______ _____ _____    ______ ____
ROOT
ATOM      4  C   UNL     1      -3.901   2.346  24.605  0.00  0.00    +0.006 C 
ATOM      5  C   UNL     1      -4.032   1.650  24.182  0.00  0.00    +0.005 C 
ATOM      6  C   UNL     1      -3.417   1.305  23.754  0.00  0.00    +0.027 C 
ATOM     19  C   UNL     1      -2.670   1.657  23.750  0.00  0.00    -0.048 C 
ATOM     20  C   UNL     1      -2.054   1.313  23.323  0.00  0.00    +0.026 C 
ATOM     21  C   UNL     1      -2.540   2.353  24.174  0.00  0.00    -0.033 C 
ATOM     22  C   UNL     1      -3.156   2.697  24.601  0.00  0.00    +0.043 C 
ENDROOT
BRANCH   4   2
ATOM      1  C   UNL     1      -4.653   2.467  25.815  0.00  0.00    +0.000 C 
ATOM      2  C   UNL     1      -4.518   2.691  25.033  0.00  0.00    +0.000 C 
ATOM      3  C   UNL     1      -4.999   3.259  24.677  0.00  0.00    +0.000 C 
ENDBRANCH   4   2
BRANCH   6   7
ATOM      7  C   UNL     1      -3.547   0.609  23.331  0.00  0.00    +0.091 C 
BRANCH   7   8
ATOM      8  C   UNL     1      -3.816  -0.066  23.720  0.00  0.00    +0.227 A 
ATOM      9  N   UNL     1      -4.603  -0.255  23.875  0.00  0.00    -0.111 NA
ATOM     10  N   UNL     1      -4.619  -0.978  24.274  0.00  0.00    -0.106 NA
ATOM     11  C   UNL     1      -3.840  -1.235  24.365  0.00  0.00    +0.267 A 
ATOM     12  O   UNL     1      -3.343  -0.672  24.022  0.00  0.00    -0.418 OA
BRANCH  11  13
ATOM     13  C   UNL     1      -3.600  -1.933  24.733  0.00  0.00    +0.136 A 
ATOM     14  C   UNL     1      -3.546  -2.676  24.377  0.00  0.00    +0.123 A 
ATOM     15  N   UNL     1      -3.284  -3.213  24.946  0.00  0.00    -0.222 NA
ATOM     16  C   UNL     1      -3.176  -2.802  25.653  0.00  0.00    +0.179 A 
ATOM     17  N   UNL     1      -3.371  -2.011  25.522  0.00  0.00    -0.303 N 
ATOM     18  C   UNL     1      -3.343  -1.406  26.081  0.00  0.00    +0.132 C 
ENDBRANCH  11  13
ENDBRANCH   7   8
ENDBRANCH   6   7
BRANCH  22  23
ATOM     23  C   UNL     1      -3.025   3.393  25.024  0.00  0.00    +0.119 C 
BRANCH  23  24
ATOM     24  N   UNL     1      -2.403   3.893  24.814  0.00  0.00    -0.205 NA
ATOM     25  C   UNL     1      -2.114   4.442  25.357  0.00  0.00    +0.241 C 
ATOM     26  O   UNL     1      -2.445   4.491  26.111  0.00  0.00    -0.273 OA
BRANCH  25  27
ATOM     27  C   UNL     1      -1.492   4.943  25.147  0.00  0.00    +0.078 C 
ATOM     28  C   UNL     1      -1.210   5.698  24.975  0.00  0.00    +0.010 C 
ATOM     29  C   UNL     1      -0.698   5.052  24.954  0.00  0.00    +0.010 C 
ENDBRANCH  25  27
ENDBRANCH  23  24
ENDBRANCH  22  23
TORSDOF 7
ENDMDL
MODEL 3
REMARK VINA RESULT:     -10.7      1.220      5.419
REMARK  Name = 
REMARK  7 active torsions:
REMARK  status: ('A' for Active; 'I' for Inactive)
REMARK    1  A    between atoms: C_2  and  C_4
REMARK    2  A    between atoms: C_6  and  C_7
REMARK    3  A    between atoms: C_7  and  C_8
REMARK    4  A    between atoms: C_11  and  C_13
REMARK    5  A    between atoms: C_22  and  C_23
REMARK    6  A    between atoms: C_23  and  N_24
REMARK    7  A    between atoms: C_25  and  C_27
REMARK                            x       y       z     vdW  Elec       q    Type
REMARK                         _______ _______ _______ _____ _____    ______ ____
ROOT
ATOM      4  C   UNL     1      -2.053   1.589  24.546  0.00  0.00    +0.006 C 
ATOM      5  C   UNL     1      -2.687   1.081  24.399  0.00  0.00    +0.005 C 
ATOM      6  C   UNL     1      -3.460   1.370  24.420  0.00  0.00    +0.027 C 
ATOM     19  C   UNL     1      -3.598   2.166  24.590  0.00  0.00    -0.048 C 
ATOM     20  C   UNL     1      -4.370   2.454  24.612  0.00  0.00    +0.026 C 
ATOM     21  C   UNL     1      -2.964   2.672  24.737  0.00  0.00    -0.033 C 
ATOM     22  C   UNL     1      -2.191   2.383  24.715  0.00  0.00    +0.043 C 
ENDROOT
BRANCH   4   2
ATOM      1  C   UNL     1      -0.914   1.049  25.219  0.00  0.00    +0.000 C 
ATOM      2  C   UNL     1      -1.280   1.300  24.525  0.00  0.00    +0.000 C 
ATOM      3  C   UNL     1      -0.874   1.261  23.807  0.00  0.00    +0.000 C 
ENDBRANCH   4   2
BRANCH   6   7
ATOM      7  C   UNL     1      -4.094   0.863  24.273  0.00  0.00    +0.091 C 
BRANCH   7   8
ATOM      8  C   UNL     1      -4.077   0.088  24.554  0.00  0.00    +0.227 A 
ATOM      9  N   UNL     1      -4.230  -0.150  25.329  0.00  0.00    -0.111 NA
ATOM     10  N   UNL     1      -4.152  -0.971  25.364  0.00  0.00    -0.106 NA
ATOM     11  C   UNL     1      -3.950  -1.240  24.611  0.00  0.00    +0.267 A 
ATOM     12  O   UNL     1      -3.904  -0.585  24.110  0.00  0.00    -0.418 OA
BRANCH  11  13
ATOM     13  C   UNL     1      -3.817  -2.025  24.395  0.00  0.00    +0.136 A 
ATOM     14  C   UNL     1      -4.318  -2.492  23.935  0.00  0.00    +0.123 A 
ATOM     15  N   UNL     1      -3.971  -3.237  23.858  0.00  0.00    -0.222 NA
ATOM     16  C   UNL     1      -3.257  -3.230  24.270  0.00  0.00    +0.179 A 
ATOM     17  N   UNL     1      -3.162  -2.481  24.602  0.00  0.00    -0.303 N 
ATOM     18  C   UNL     1      -2.523  -2.231  25.061  0.00  0.00    +0.132 C 
ENDBRANCH  11  13
ENDBRANCH   7   8
ENDBRANCH   6   7
BRANCH  22  23
ATOM     23  C   UNL     1      -1.558   2.890  24.863  0.00  0.00    +0.119 C 
BRANCH  23  24
ATOM     24  N   UNL     1      -1.657   3.707  24.789  0.00  0.00    -0.205 NA
ATOM     25  C   UNL     1      -1.078   4.219  25.078  0.00  0.00    +0.241 C 
ATOM     26  O   UNL     1      -0.403   3.917  25.441  0.00  0.00    -0.273 OA
BRANCH  25  27
ATOM     27  C   UNL     1      -1.177   5.035  25.004  0.00  0.00    +0.078 C 
ATOM     28  C   UNL     1      -1.632   5.713  25.120  0.00  0.00    +0.010 C 
ATOM     29  C   UNL     1      -0.892   5.770  24.760  0.00  0.00    +0.010 C 
ENDBRANCH  25  27
ENDBRANCH  23  24
ENDBRANCH  22  23
TORSDOF 7
ENDMDL
MODEL 4
REMARK VINA RESULT:     -10.7      1.204      2.171
REMARK  Name = 
REMARK  7 active torsions:
REMARK  status: ('A' for Active; 'I' for Inactive)
REMARK    1  A    between atoms: C_2  and  C_4
REMARK    2  A    between atoms: C_6  and  C_7
REMARK    3  A    between atoms: C_7  and  C_8
REMARK    4  A    between atoms: C_11  and  C_13
REMARK    5  A    between atoms: C_22  and  C_23
REMARK    6  A    between atoms: C_23  and  N_24
REMARK    7  A    between atoms: C_25  and  C_27
REMARK                            x       y       z     vdW  Elec       q    Type
REMARK                         _______ _______ _______ _____ _____    ______ ____
ROOT
ATOM      4  C   UNL     1      -2.665   0.829  24.286  0.00  0.00    +0.006 C 
ATOM      5  C   UNL     1      -2.002   1.301  24.418  0.00  0.00    +0.005 C 
ATOM      6  C   UNL     1      -1.300   0.961  24.687  0.00  0.00    +0.027 C 
ATOM     19  C   UNL     1      -1.262   0.148  24.826  0.00  0.00    -0.048 C 
ATOM     20  C   UNL     1      -0.562  -0.193  25.095  0.00  0.00    +0.026 C 
ATOM     21  C   UNL     1      -1.926  -0.324  24.694  0.00  0.00    -0.033 C 
ATOM     22  C   UNL     1      -2.628   0.017  24.424  0.00  0.00    +0.043 C 
ENDROOT
BRANCH   4   2
ATOM      1  C   UNL     1      -3.468   1.324  23.213  0.00  0.00    +0.000 C 
ATOM      2  C   UNL     1      -3.367   1.170  24.017  0.00  0.00    +0.000 C 
ATOM      3  C   UNL     1      -3.967   1.356  24.552  0.00  0.00    +0.000 C 
ENDBRANCH   4   2
BRANCH   6   7
ATOM      7  C   UNL     1      -0.636   1.433  24.819  0.00  0.00    +0.091 C 
BRANCH   7   8
ATOM      8  C   UNL     1      -0.719   2.171  25.176  0.00  0.00    +0.227 A 
ATOM      9  N   UNL     1      -0.651   2.330  25.982  0.00  0.00    -0.111 NA
ATOM     10  N   UNL     1      -0.775   3.139  26.094  0.00  0.00    -0.106 NA
ATOM     11  C   UNL     1      -0.919   3.479  25.356  0.00  0.00    +0.267 A 
ATOM     12  O   UNL     1      -0.884   2.881  24.788  0.00  0.00    -0.418 OA
BRANCH  11  13
ATOM     13  C   UNL     1      -1.070   4.277  25.212  0.00  0.00    +0.136 A 
ATOM     14  C   UNL     1      -0.561   4.807  24.836  0.00  0.00    +0.123 A 
ATOM     15  N   UNL     1      -0.934   5.543  24.809  0.00  0.00    -0.222 NA
ATOM     16  C   UNL     1      -1.673   5.467  25.168  0.00  0.00    +0.179 A 
ATOM     17  N   UNL     1      -1.758   4.685  25.417  0.00  0.00    -0.303 N 
ATOM     18  C   UNL     1      -2.414   4.367  25.802  0.00  0.00    +0.132 C 
ENDBRANCH  11  13
ENDBRANCH   7   8
ENDBRANCH   6   7
BRANCH  22  23
ATOM     23  C   UNL     1      -3.291  -0.455  24.293  0.00  0.00    +0.119 C 
BRANCH  23  24
ATOM     24  N   UNL     1      -3.228  -1.277  24.338  0.00  0.00    -0.205 NA
ATOM     25  C   UNL     1      -3.895  -1.749  24.220  0.00  0.00    +0.241 C 
ATOM     26  O   UNL     1      -4.624  -1.399  24.059  0.00  0.00    -0.273 OA
BRANCH  25  27
ATOM     27  C   UNL     1      -3.832  -2.570  24.264  0.00  0.00    +0.078 C 
ATOM     28  C   UNL     1      -3.626  -3.249  24.684  0.00  0.00    +0.010 C 
ATOM     29  C   UNL     1      -3.929  -3.313  23.920  0.00  0.00    +0.010 C 
ENDBRANCH  25  27
ENDBRANCH  23  24
ENDBRANCH  22  23
TORSDOF 7
ENDMDL
MODEL 5
REMARK VINA RESULT:     -10.3      2.198      4.495
REMARK  Name = 
REMARK  7 active torsions:
REMARK  status: ('A' for Active; 'I' for Inactive)
REMARK    1  A    between atoms: C_2  and  C_4
REMARK    2  A    between atoms: C_6  and  C_7
REMARK    3  A    between atoms: C_7  and  C_8
REMARK    4  A    between atoms: C_11  and  C_13
REMARK    5  A    between atoms: C_22  and  C_23
REMARK    6  A    between atoms: C_23  and  N_24
REMARK    7  A    between atoms: C_25  and  C_27
REMARK                            x       y       z     vdW  Elec       q    Type
REMARK                         _______ _______ _______ _____ _____    ______ ____
ROOT
ATOM      4  C   UNL     1      -2.481   3.273  24.907  0.00  0.00    +0.006 C 
ATOM      5  C   UNL     1      -1.834   2.975  24.490  0.00  0.00    +0.005 C 
ATOM      6  C   UNL     1      -1.954   2.506  23.823  0.00  0.00    +0.027 C 
ATOM     19  C   UNL     1      -2.722   2.334  23.572  0.00  0.00    -0.048 C 
ATOM     20  C   UNL     1      -2.842   1.865  22.905  0.00  0.00    +0.026 C 
ATOM     21  C   UNL     1      -3.368   2.632  23.989  0.00  0.00    -0.033 C 
ATOM     22  C   UNL     1      -3.247   3.101  24.657  0.00  0.00    +0.043 C 
ENDROOT
BRANCH   4   2
ATOM      1  C   UNL     1      -2.287   3.393  26.318  0.00  0.00    +0.000 C 
ATOM      2  C   UNL     1      -2.360   3.743  25.575  0.00  0.00    +0.000 C 
ATOM      3  C   UNL     1      -2.313   4.564  25.499  0.00  0.00    +0.000 C 
ENDBRANCH   4   2
BRANCH   6   7
ATOM      7  C   UNL     1      -1.307   2.208  23.405  0.00  0.00    +0.091 C 
BRANCH   7   8
ATOM      8  C   UNL     1      -0.828   1.630  23.745  0.00  0.00    +0.227 A 
ATOM      9  N   UNL     1      -0.049   1.730  23.994  0.00  0.00    -0.111 NA
ATOM     10  N   UNL     1       0.217   1.011  24.299  0.00  0.00    -0.106 NA
ATOM     11  C   UNL     1      -0.399   0.465  24.239  0.00  0.00    +0.267 A 
ATOM     12  O   UNL     1      -1.045   0.848  23.896  0.00  0.00    -0.418 OA
BRANCH  11  13
ATOM     13  C   UNL     1      -0.373  -0.323  24.479  0.00  0.00    +0.136 A 
ATOM     14  C   UNL     1      -0.034  -0.947  24.058  0.00  0.00    +0.123 A 
ATOM     15  N   UNL     1      -0.134  -1.637  24.501  0.00  0.00    -0.222 NA
ATOM     16  C   UNL     1      -0.534  -1.439  25.194  0.00  0.00    +0.179 A 
ATOM     17  N   UNL     1      -0.682  -0.627  25.181  0.00  0.00    -0.303 N 
ATOM     18  C   UNL     1      -1.071  -0.196  25.766  0.00  0.00    +0.132 C 
ENDBRANCH  11  13
ENDBRANCH   7   8
ENDBRANCH   6   7
BRANCH  22  23
ATOM     23  C   UNL     1      -3.894   3.399  25.073  0.00  0.00    +0.119 C 
BRANCH  23  24
ATOM     24  N   UNL     1      -4.500   2.892  25.311  0.00  0.00    -0.205 NA
ATOM     25  C   UNL     1      -5.251   3.195  25.474  0.00  0.00    +0.241 C 
ATOM     26  O   UNL     1      -5.395   4.003  25.399  0.00  0.00    -0.273 OA
BRANCH  25  27
ATOM     27  C   UNL     1      -5.857   2.688  25.712  0.00  0.00    +0.078 C 
ATOM     28  C   UNL     1      -6.511   2.221  25.527  0.00  0.00    +0.010 C 
ATOM     29  C   UNL     1      -6.251   2.277  26.308  0.00  0.00    +0.010 C 
ENDBRANCH  25  27
ENDBRANCH  23  24
ENDBRANCH  22  23
TORSDOF 7
ENDMDL
MODEL 6
REMARK VINA RESULT:     -10.2      2.363      3.993
REMARK  Name = 
REMARK  7 active torsions:
REMARK  status: ('A' for Active; 'I' for Inactive)
REMARK    1  A    between atoms: C_2  and  C_4
REMARK    2  A    between atoms: C_6  and  C_7
REMARK    3  A    between atoms: C_7  and  C_8
REMARK    4  A    between atoms: C_11  and  C_13
REMARK    5  A    between atoms: C_22  and  C_23
REMARK    6  A    between atoms: C_23  and  N_24
REMARK    7  A    between atoms: C_25  and  C_27
REMARK                            x       y       z     vdW  Elec       q    Type
REMARK                         _______ _______ _______ _____ _____    ______ ____
ROOT
ATOM      4  C   UNL     1      -1.367   0.987  24.810  0.00  0.00    +0.006 C 
ATOM      5  C   UNL     1      -1.787   1.650  25.066  0.00  0.00    +0.005 C 
ATOM      6  C   UNL     1      -1.515   2.407  24.880  0.00  0.00    +0.027 C 
ATOM     19  C   UNL     1      -0.824   2.500  24.438  0.00  0.00    -0.048 C 
ATOM     20  C   UNL     1      -0.553   3.256  24.253  0.00  0.00    +0.026 C 
ATOM     21  C   UNL     1      -0.405   1.837  24.184  0.00  0.00    -0.033 C 
ATOM     22  C   UNL     1      -0.677   1.080  24.370  0.00  0.00    +0.043 C 
ENDROOT
BRANCH   4   2
ATOM      1  C   UNL     1      -1.398  -0.134  25.696  0.00  0.00    +0.000 C 
ATOM      2  C   UNL     1      -1.639   0.230  24.997  0.00  0.00    +0.000 C 
ATOM      3  C   UNL     1      -2.152  -0.162  24.482  0.00  0.00    +0.000 C 
ENDBRANCH   4   2
BRANCH   6   7
ATOM      7  C   UNL     1      -1.935   3.070  25.135  0.00  0.00    +0.091 C 
BRANCH   7   8
ATOM      8  C   UNL     1      -2.737   3.144  24.960  0.00  0.00    +0.227 A 
ATOM      9  N   UNL     1      -3.055   3.421  24.252  0.00  0.00    -0.111 NA
ATOM     10  N   UNL     1      -3.877   3.402  24.316  0.00  0.00    -0.106 NA
ATOM     11  C   UNL     1      -4.067   3.112  25.065  0.00  0.00    +0.267 A 
ATOM     12  O   UNL     1      -3.362   2.952  25.463  0.00  0.00    -0.418 OA
BRANCH  11  13
ATOM     13  C   UNL     1      -4.828   3.001  25.363  0.00  0.00    +0.136 A 
ATOM     14  C   UNL     1      -5.229   3.513  25.872  0.00  0.00    +0.123 A 
ATOM     15  N   UNL     1      -5.971   3.187  26.029  0.00  0.00    -0.222 NA
ATOM     16  C   UNL     1      -6.028   2.474  25.618  0.00  0.00    +0.179 A 
ATOM     17  N   UNL     1      -5.322   2.359  25.206  0.00  0.00    -0.303 N 
ATOM     18  C   UNL     1      -5.142   1.715  24.723  0.00  0.00    +0.132 C 
ENDBRANCH  11  13
ENDBRANCH   7   8
ENDBRANCH   6   7
BRANCH  22  23
ATOM     23  C   UNL     1      -0.258   0.418  24.114  0.00  0.00    +0.119 C 
BRANCH  23  24
ATOM     24  N   UNL     1       0.379   0.507  23.597  0.00  0.00    -0.205 NA
ATOM     25  C   UNL     1       0.793  -0.158  23.334  0.00  0.00    +0.241 C 
ATOM     26  O   UNL     1       0.570  -0.910  23.588  0.00  0.00    -0.273 OA
BRANCH  25  27
ATOM     27  C   UNL     1       1.429  -0.069  22.817  0.00  0.00    +0.078 C 
ATOM     28  C   UNL     1       2.211   0.153  22.678  0.00  0.00    +0.010 C 
ATOM     29  C   UNL     1       1.749  -0.138  22.060  0.00  0.00    +0.010 C 
ENDBRANCH  25  27
ENDBRANCH  23  24
ENDBRANCH  22  23
TORSDOF 7
ENDMDL
