MODEL 1
REMARK VINA RESULT:     -11.9      0.000      0.000
REMARK  Name = 
REMARK  8 active torsions:
REMARK  status: ('A' for Active; 'I' for Inactive)
REMARK    1  A    between atoms: S_2  and  N_4
REMARK    2  A    between atoms: S_2  and  C_28
REMARK    3  A    between atoms: N_4  and  C_5
REMARK    4  A    between atoms: C_5  and  C_6
REMARK    5  A    between atoms: C_13  and  C_14
REMARK    6  A    between atoms: C_14  and  N_15
REMARK    7  A    between atoms: C_18  and  C_19
REMARK    8  A    between atoms: C_19  and  C_20
REMARK                            x       y       z     vdW  Elec       q    Type
REMARK                         _______ _______ _______ _____ _____    ______ ____
ROOT
ATOM      6  C   UNL     1      -4.265   2.912  24.792  0.00  0.00    +0.077 C 
ATOM      7  C   UNL     1      -4.974   2.641  24.965  0.00  0.00    +0.018 C 
ATOM      8  C   UNL     1      -5.191   1.861  24.977  0.00  0.00    +0.005 C 
ATOM      9  C   UNL     1      -6.053   1.758  25.200  0.00  0.00    +0.017 C 
ATOM     10  C   UNL     1      -5.507   2.094  25.075  0.00  0.00    +0.072 C 
ATOM     11  N   UNL     1      -4.494   2.119  24.808  0.00  0.00    -0.272 NA
ATOM     12  C   UNL     1      -4.034   1.348  24.642  0.00  0.00    +0.073 C 
ATOM     13  C   UNL     1      -4.742   1.124  24.817  0.00  0.00    +0.032 C 
ENDROOT
BRANCH   6   5
ATOM      5  C   UNL     1      -3.716   3.517  24.682  0.00  0.00    +0.131 C 
BRANCH   5   4
ATOM      4  N   UNL     1      -3.316   3.835  25.330  0.00  0.00    -0.076 NA
BRANCH   4   2
ATOM      1  O   UNL     1      -2.800   4.457  24.489  0.00  0.00    -0.151 OA
ATOM      2  S   UNL     1      -2.571   4.173  25.228  0.00  0.00    +0.083 S 
ATOM      3  O   UNL     1      -2.341   3.889  25.969  0.00  0.00    -0.151 OA
BRANCH   2  28
ATOM     28  C   UNL     1      -1.825   4.512  25.128  0.00  0.00    +0.153 A 
ATOM     29  C   UNL     1      -1.659   5.319  25.092  0.00  0.00    +0.027 A 
ATOM     30  C   UNL     1      -0.846   5.408  24.987  0.00  0.00    +0.009 A 
ATOM     31  C   UNL     1      -0.509   4.656  24.958  0.00  0.00    +0.037 A 
ATOM     32  S   UNL     1      -1.113   4.102  25.045  0.00  0.00    -0.067 S 
ENDBRANCH   2  28
ENDBRANCH   4   2
ENDBRANCH   5   4
ENDBRANCH   6   5
BRANCH  13  14
ATOM     14  C   UNL     1      -5.027   0.350  24.848  0.00  0.00    +0.073 C 
BRANCH  14  15
ATOM     15  N   UNL     1      -4.498  -0.283  24.882  0.00  0.00    -0.273 NA
ATOM     16  C   UNL     1      -4.151  -0.491  25.600  0.00  0.00    +0.072 C 
ATOM     17  C   UNL     1      -3.621  -1.124  25.634  0.00  0.00    +0.018 C 
ATOM     18  C   UNL     1      -3.441  -1.547  24.949  0.00  0.00    +0.007 C 
ATOM     26  C   UNL     1      -3.789  -1.338  24.231  0.00  0.00    +0.018 C 
ATOM     27  C   UNL     1      -4.318  -0.705  24.198  0.00  0.00    +0.072 C 
BRANCH  18  19
ATOM     19  C   UNL     1      -2.912  -2.179  24.982  0.00  0.00    +0.026 C 
BRANCH  19  20
ATOM     20  C   UNL     1      -2.103  -2.045  24.892  0.00  0.00    -0.022 A 
ATOM     21  C   UNL     1      -1.727  -2.253  24.187  0.00  0.00    -0.004 A 
ATOM     22  C   UNL     1      -0.918  -2.119  24.096  0.00  0.00    -0.000 A 
ATOM     23  C   UNL     1      -0.485  -1.778  24.710  0.00  0.00    -0.000 A 
ATOM     24  C   UNL     1      -0.861  -1.572  25.415  0.00  0.00    -0.000 A 
ATOM     25  C   UNL     1      -1.670  -1.705  25.505  0.00  0.00    -0.004 A 
ENDBRANCH  19  20
ENDBRANCH  18  19
ENDBRANCH  14  15
ENDBRANCH  13  14
TORSDOF 8
ENDMDL
MODEL 2
REMARK VINA RESULT:     -11.6      2.216      5.306
REMARK  Name = 
REMARK  8 active torsions:
REMARK  status: ('A' for Active; 'I' for Inactive)
REMARK    1  A    between atoms: S_2  and  N_4
REMARK    2  A    between atoms: S_2  and  C_28
REMARK    3  A    between atoms: N_4  and  C_5
REMARK    4  A    between atoms: C_5  and  C_6
REMARK    5  A    between atoms: C_13  and  C_14
REMARK    6  A    between atoms: C_14  and  N_15
REMARK    7  A    between atoms: C_18  and  C_19
REMARK    8  A    between atoms: C_19  and  C_20
REMARK                            x       y       z     vdW  Elec       q    Type
REMARK                         _______ _______ _______ _____ _____    ______ ____
ROOT
ATOM      6  C   UNL     1      -4.816   0.490  24.719  0.00  0.00    +0.077 C 
ATOM      7  C   UNL     1      -5.420   0.907  24.976  0.00  0.00    +0.018 C 
ATOM      8  C   UNL     1      -5.414   1.703  25.127  0.00  0.00    +0.005 C 
ATOM      9  C   UNL     1      -6.211   1.994  25.416  0.00  0.00    +0.017 C 
ATOM     10  C   UNL     1      -5.780   1.551  25.205  0.00  0.00    +0.072 C 
ATOM     11  N   UNL     1      -4.817   1.300  24.875  0.00  0.00    -0.272 NA
ATOM     12  C   UNL     1      -4.166   1.936  24.807  0.00  0.00    +0.073 C 
ATOM     13  C   UNL     1      -4.783   2.309  25.059  0.00  0.00    +0.032 C 
ENDROOT
BRANCH   6   5
ATOM      5  C   UNL     1      -4.456  -0.212  24.479  0.00  0.00    +0.131 C 
BRANCH   5   4
ATOM      4  N   UNL     1      -4.313  -0.812  25.028  0.00  0.00    -0.076 NA
BRANCH   4   2
ATOM      1  O   UNL     1      -4.140  -1.512  24.112  0.00  0.00    -0.151 OA
ATOM      2  S   UNL     1      -3.782  -1.417  24.849  0.00  0.00    +0.083 S 
ATOM      3  O   UNL     1      -3.425  -1.321  25.588  0.00  0.00    -0.151 OA
BRANCH   2  28
ATOM     28  C   UNL     1      -3.251  -2.022  24.671  0.00  0.00    +0.153 A 
ATOM     29  C   UNL     1      -3.447  -2.799  24.476  0.00  0.00    +0.027 A 
ATOM     30  C   UNL     1      -2.747  -3.213  24.341  0.00  0.00    +0.009 A 
ATOM     31  C   UNL     1      -2.118  -2.692  24.453  0.00  0.00    +0.037 A 
ATOM     32  S   UNL     1      -2.428  -1.957  24.656  0.00  0.00    -0.067 S 
ENDBRANCH   2  28
ENDBRANCH   4   2
ENDBRANCH   5   4
ENDBRANCH   6   5
BRANCH  13  14
ATOM     14  C   UNL     1      -4.843   3.114  25.232  0.00  0.00    +0.073 C 
BRANCH  14  15
ATOM     15  N   UNL     1      -4.160   3.571  25.310  0.00  0.00    -0.273 NA
ATOM     16  C   UNL     1      -3.834   3.941  24.650  0.00  0.00    +0.072 C 
ATOM     17  C   UNL     1      -3.151   4.398  24.729  0.00  0.00    +0.018 C 
ATOM     18  C   UNL     1      -2.796   4.484  25.468  0.00  0.00    +0.007 C 
ATOM     26  C   UNL     1      -3.122   4.113  26.129  0.00  0.00    +0.018 C 
ATOM     27  C   UNL     1      -3.805   3.656  26.049  0.00  0.00    +0.072 C 
BRANCH  18  19
ATOM     19  C   UNL     1      -2.113   4.940  25.548  0.00  0.00    +0.026 C 
BRANCH  19  20
ATOM     20  C   UNL     1      -1.393   4.660  25.256  0.00  0.00    -0.022 A 
ATOM     21  C   UNL     1      -0.986   5.091  24.682  0.00  0.00    -0.004 A 
ATOM     22  C   UNL     1      -0.266   4.811  24.390  0.00  0.00    -0.000 A 
ATOM     23  C   UNL     1       0.045   4.101  24.673  0.00  0.00    -0.000 A 
ATOM     24  C   UNL     1      -0.362   3.671  25.247  0.00  0.00    -0.000 A 
ATOM     25  C   UNL     1      -1.082   3.951  25.539  0.00  0.00    -0.004 A 
ENDBRANCH  19  20
ENDBRANCH  18  19
ENDBRANCH  14  15
ENDBRANCH  13  14
TORSDOF 8
ENDMDL
MODEL 3
REMARK VINA RESULT:     -10.5      1.774      3.443
REMARK  Name = 
REMARK  8 active torsions:
REMARK  status: ('A' for Active; 'I' for Inactive)
REMARK    1  A    between atoms: S_2  and  N_4
REMARK    2  A    between atoms: S_2  and  C_28
REMARK    3  A    between atoms: N_4  and  C_5
REMARK    4  A    between atoms: C_5  and  C_6
REMARK    5  A    between atoms: C_13  and  C_14
REMARK    6  A    between atoms: C_14  and  N_15
REMARK    7  A    between atoms: C_18  and  C_19
REMARK    8  A    between atoms: C_19  and  C_20
REMARK                            x       y       z     vdW  Elec       q    Type
REMARK                         _______ _______ _______ _____ _____    ______ ____
ROOT
ATOM      6  C   UNL     1      -1.680   2.969  25.228  0.00  0.00    +0.077 C 
ATOM      7  C   UNL     1      -0.962   2.933  24.930  0.00  0.00    +0.018 C 
ATOM      8  C   UNL     1      -0.528   2.258  24.825  0.00  0.00    +0.005 C 
ATOM      9  C   UNL     1       0.276   2.430  24.467  0.00  0.00    +0.017 C 
ATOM     10  C   UNL     1      -0.317   2.578  24.699  0.00  0.00    +0.072 C 
ATOM     11  N   UNL     1      -1.231   2.285  25.118  0.00  0.00    -0.272 NA
ATOM     12  C   UNL     1      -1.405   1.406  25.294  0.00  0.00    +0.073 C 
ATOM     13  C   UNL     1      -0.702   1.414  24.997  0.00  0.00    +0.032 C 
ENDROOT
BRANCH   6   5
ATOM      5  C   UNL     1      -2.359   3.373  25.466  0.00  0.00    +0.131 C 
BRANCH   5   4
ATOM      4  N   UNL     1      -2.927   3.590  24.908  0.00  0.00    -0.076 NA
BRANCH   4   2
ATOM      1  O   UNL     1      -3.542   3.884  25.854  0.00  0.00    -0.151 OA
ATOM      2  S   UNL     1      -3.727   3.581  25.110  0.00  0.00    +0.083 S 
ATOM      3  O   UNL     1      -3.911   3.277  24.364  0.00  0.00    -0.151 OA
BRANCH   2  28
ATOM     28  C   UNL     1      -4.527   3.572  25.311  0.00  0.00    +0.153 A 
ATOM     29  C   UNL     1      -5.003   4.233  25.436  0.00  0.00    +0.027 A 
ATOM     30  C   UNL     1      -5.762   3.969  25.624  0.00  0.00    +0.009 A 
ATOM     31  C   UNL     1      -5.754   3.144  25.615  0.00  0.00    +0.037 A 
ATOM     32  S   UNL     1      -4.991   2.899  25.421  0.00  0.00    -0.067 S 
ENDBRANCH   2  28
ENDBRANCH   4   2
ENDBRANCH   5   4
ENDBRANCH   6   5
BRANCH  13  14
ATOM     14  C   UNL     1      -0.208   0.766  24.864  0.00  0.00    +0.073 C 
BRANCH  14  15
ATOM     15  N   UNL     1      -0.524   0.004  24.853  0.00  0.00    -0.273 NA
ATOM     16  C   UNL     1      -0.644  -0.382  24.135  0.00  0.00    +0.072 C 
ATOM     17  C   UNL     1      -0.960  -1.146  24.125  0.00  0.00    +0.018 C 
ATOM     18  C   UNL     1      -1.154  -1.520  24.833  0.00  0.00    +0.007 C 
ATOM     26  C   UNL     1      -1.033  -1.134  25.552  0.00  0.00    +0.018 C 
ATOM     27  C   UNL     1      -0.718  -0.371  25.562  0.00  0.00    +0.072 C 
BRANCH  18  19
ATOM     19  C   UNL     1      -1.469  -2.282  24.823  0.00  0.00    +0.026 C 
BRANCH  19  20
ATOM     20  C   UNL     1      -2.281  -2.392  24.722  0.00  0.00    -0.022 A 
ATOM     21  C   UNL     1      -2.576  -2.645  23.994  0.00  0.00    -0.004 A 
ATOM     22  C   UNL     1      -3.388  -2.754  23.893  0.00  0.00    -0.000 A 
ATOM     23  C   UNL     1      -3.904  -2.611  24.520  0.00  0.00    -0.000 A 
ATOM     24  C   UNL     1      -3.609  -2.358  25.248  0.00  0.00    -0.000 A 
ATOM     25  C   UNL     1      -2.797  -2.249  25.349  0.00  0.00    -0.004 A 
ENDBRANCH  19  20
ENDBRANCH  18  19
ENDBRANCH  14  15
ENDBRANCH  13  14
TORSDOF 8
ENDMDL
MODEL 4
REMARK VINA RESULT:     -10.3      2.534      5.646
REMARK  Name = 
REMARK  8 active torsions:
REMARK  status: ('A' for Active; 'I' for Inactive)
REMARK    1  A    between atoms: S_2  and  N_4
REMARK    2  A    between atoms: S_2  and  C_28
REMARK    3  A    between atoms: N_4  and  C_5
REMARK    4  A    between atoms: C_5  and  C_6
REMARK    5  A    between atoms: C_13  and  C_14
REMARK    6  A    between atoms: C_14  and  N_15
REMARK    7  A    between atoms: C_18  and  C_19
REMARK    8  A    between atoms: C_19  and  C_20
REMARK                            x       y       z     vdW  Elec       q    Type
REMARK                         _______ _______ _______ _____ _____    ______ ____
ROOT
ATOM      6  C   UNL     1      -0.401   1.016  24.878  0.00  0.00    +0.077 C 
ATOM      7  C   UNL     1      -0.095   1.646  25.217  0.00  0.00    +0.018 C 
ATOM      8  C   UNL     1      -0.462   2.362  25.301  0.00  0.00    +0.005 C 
ATOM      9  C   UNL     1       0.059   2.958  25.721  0.00  0.00    +0.017 C 
ATOM     10  C   UNL     1      -0.092   2.378  25.463  0.00  0.00    +0.072 C 
ATOM     11  N   UNL     1      -0.769   1.750  24.966  0.00  0.00    -0.272 NA
ATOM     12  C   UNL     1      -1.593   2.053  24.718  0.00  0.00    +0.073 C 
ATOM     13  C   UNL     1      -1.256   2.647  25.059  0.00  0.00    +0.032 C 
ENDROOT
BRANCH   6   5
ATOM      5  C   UNL     1      -0.377   0.231  24.626  0.00  0.00    +0.131 C 
BRANCH   5   4
ATOM      4  N   UNL     1      -0.509  -0.379  25.165  0.00  0.00    -0.076 NA
BRANCH   4   2
ATOM      1  O   UNL     1      -0.561  -1.066  24.225  0.00  0.00    -0.151 OA
ATOM      2  S   UNL     1      -0.960  -1.034  24.945  0.00  0.00    +0.083 S 
ATOM      3  O   UNL     1      -1.360  -1.000  25.668  0.00  0.00    -0.151 OA
BRANCH   2  28
ATOM     28  C   UNL     1      -1.412  -1.688  24.726  0.00  0.00    +0.153 A 
ATOM     29  C   UNL     1      -1.122  -2.398  24.423  0.00  0.00    +0.027 A 
ATOM     30  C   UNL     1      -1.765  -2.896  24.281  0.00  0.00    +0.009 A 
ATOM     31  C   UNL     1      -2.451  -2.493  24.496  0.00  0.00    +0.037 A 
ATOM     32  S   UNL     1      -2.234  -1.747  24.771  0.00  0.00    -0.067 S 
ENDBRANCH   2  28
ENDBRANCH   4   2
ENDBRANCH   5   4
ENDBRANCH   6   5
BRANCH  13  14
ATOM     14  C   UNL     1      -1.573   3.401  25.176  0.00  0.00    +0.073 C 
BRANCH  14  15
ATOM     15  N   UNL     1      -2.391   3.501  25.218  0.00  0.00    -0.273 NA
ATOM     16  C   UNL     1      -2.842   3.513  24.528  0.00  0.00    +0.072 C 
ATOM     17  C   UNL     1      -3.661   3.614  24.571  0.00  0.00    +0.018 C 
ATOM     18  C   UNL     1      -4.026   3.702  25.305  0.00  0.00    +0.007 C 
ATOM     26  C   UNL     1      -3.575   3.690  25.996  0.00  0.00    +0.018 C 
ATOM     27  C   UNL     1      -2.757   3.590  25.952  0.00  0.00    +0.072 C 
BRANCH  18  19
ATOM     19  C   UNL     1      -4.844   3.803  25.349  0.00  0.00    +0.026 C 
BRANCH  19  20
ATOM     20  C   UNL     1      -5.337   3.145  25.422  0.00  0.00    -0.022 A 
ATOM     21  C   UNL     1      -5.521   2.692  24.758  0.00  0.00    -0.004 A 
ATOM     22  C   UNL     1      -6.014   2.034  24.832  0.00  0.00    -0.000 A 
ATOM     23  C   UNL     1      -6.323   1.831  25.569  0.00  0.00    -0.000 A 
ATOM     24  C   UNL     1      -6.139   2.285  26.233  0.00  0.00    -0.000 A 
ATOM     25  C   UNL     1      -5.646   2.943  26.159  0.00  0.00    -0.004 A 
ENDBRANCH  19  20
ENDBRANCH  18  19
ENDBRANCH  14  15
ENDBRANCH  13  14
TORSDOF 8
ENDMDL
MODEL 5
REMARK VINA RESULT:     -10.2      3.556      4.805
REMARK  Name = 
REMARK  8 active torsions:
REMARK  status: ('A' for Active; 'I' for Inactive)
REMARK    1  A    between atoms: S_2  and  N_4
REMARK    2  A    between atoms: S_2  and  C_28
REMARK    3  A    between atoms: N_4  and  C_5
REMARK    4  A    between atoms: C_5  and  C_6
REMARK    5  A    between atoms: C_13  and  C_14
REMARK    6  A    between atoms: C_14  and  N_15
REMARK    7  A    between atoms: C_18  and  C_19
REMARK    8  A    between atoms: C_19  and  C_20
REMARK                            x       y       z     vdW  Elec       q    Type
REMARK                         _______ _______ _______ _____ _____    ______ ____
ROOT
ATOM      6  C   UNL     1       0.651   1.318  23.875  0.00  0.00    +0.077 C 
ATOM      7  C   UNL     1       0.346   1.993  24.114  0.00  0.00    +0.018 C 
ATOM      8  C   UNL     1      -0.439   2.132  24.258  0.00  0.00    +0.005 C 
ATOM      9  C   UNL     1      -0.586   2.975  24.526  0.00  0.00    +0.017 C 
ATOM     10  C   UNL     1      -0.225   2.467  24.329  0.00  0.00    +0.072 C 
ATOM     11  N   UNL     1      -0.148   1.467  24.024  0.00  0.00    -0.272 NA
ATOM     12  C   UNL     1      -0.889   0.937  23.966  0.00  0.00    +0.073 C 
ATOM     13  C   UNL     1      -1.147   1.617  24.200  0.00  0.00    +0.032 C 
ENDROOT
BRANCH   6   5
ATOM      5  C   UNL     1       1.278   0.834  23.650  0.00  0.00    +0.131 C 
BRANCH   5   4
ATOM      4  N   UNL     1       1.803   1.083  23.064  0.00  0.00    -0.076 NA
BRANCH   4   2
ATOM      1  O   UNL     1       2.873   1.472  23.314  0.00  0.00    -0.151 OA
ATOM      2  S   UNL     1       2.562   0.764  23.027  0.00  0.00    +0.083 S 
ATOM      3  O   UNL     1       2.250   0.056  22.739  0.00  0.00    -0.151 OA
BRANCH   2  28
ATOM     28  C   UNL     1       3.322   0.445  22.989  0.00  0.00    +0.153 A 
ATOM     29  C   UNL     1       3.534  -0.326  23.190  0.00  0.00    +0.027 A 
ATOM     30  C   UNL     1       4.346  -0.407  23.070  0.00  0.00    +0.009 A 
ATOM     31  C   UNL     1       4.635   0.314  22.794  0.00  0.00    +0.037 A 
ATOM     32  S   UNL     1       4.003   0.840  22.744  0.00  0.00    -0.067 S 
ENDBRANCH   2  28
ENDBRANCH   4   2
ENDBRANCH   5   4
ENDBRANCH   6   5
BRANCH  13  14
ATOM     14  C   UNL     1      -1.930   1.823  24.363  0.00  0.00    +0.073 C 
BRANCH  14  15
ATOM     15  N   UNL     1      -2.504   1.235  24.438  0.00  0.00    -0.273 NA
ATOM     16  C   UNL     1      -2.637   0.879  25.169  0.00  0.00    +0.072 C 
ATOM     17  C   UNL     1      -3.212   0.291  25.243  0.00  0.00    +0.018 C 
ATOM     18  C   UNL     1      -3.652   0.060  24.585  0.00  0.00    +0.007 C 
ATOM     26  C   UNL     1      -3.519   0.417  23.853  0.00  0.00    +0.018 C 
ATOM     27  C   UNL     1      -2.944   1.005  23.780  0.00  0.00    +0.072 C 
BRANCH  18  19
ATOM     19  C   UNL     1      -4.226  -0.527  24.658  0.00  0.00    +0.026 C 
BRANCH  19  20
ATOM     20  C   UNL     1      -4.020  -1.321  24.560  0.00  0.00    -0.022 A 
ATOM     21  C   UNL     1      -4.210  -1.712  23.858  0.00  0.00    -0.004 A 
ATOM     22  C   UNL     1      -4.003  -2.505  23.760  0.00  0.00    -0.000 A 
ATOM     23  C   UNL     1      -3.608  -2.906  24.363  0.00  0.00    -0.000 A 
ATOM     24  C   UNL     1      -3.419  -2.514  25.064  0.00  0.00    -0.000 A 
ATOM     25  C   UNL     1      -3.626  -1.721  25.162  0.00  0.00    -0.004 A 
ENDBRANCH  19  20
ENDBRANCH  18  19
ENDBRANCH  14  15
ENDBRANCH  13  14
TORSDOF 8
ENDMDL
MODEL 6
REMARK VINA RESULT:     -10.0      3.589      5.640
REMARK  Name = 
REMARK  8 active torsions:
REMARK  status: ('A' for Active; 'I' for Inactive)
REMARK    1  A    between atoms: S_2  and  N_4
REMARK    2  A    between atoms: S_2  and  C_28
REMARK    3  A    between atoms: N_4  and  C_5
REMARK    4  A    between atoms: C_5  and  C_6
REMARK    5  A    between atoms: C_13  and  C_14
REMARK    6  A    between atoms: C_14  and  N_15
REMARK    7  A    between atoms: C_18  and  C_19
REMARK    8  A    between atoms: C_19  and  C_20
REMARK                            x       y       z     vdW  Elec       q    Type
REMARK                         _______ _______ _______ _____ _____    ______ ____
ROOT
ATOM      6  C   UNL     1       0.516  -0.103  23.618  0.00  0.00    +0.077 C 
ATOM      7  C   UNL     1       0.141  -0.682  23.979  0.00  0.00    +0.018 C 
ATOM      8  C   UNL     1      -0.589  -0.628  24.324  0.00  0.00    +0.005 C 
ATOM      9  C   UNL     1      -0.845  -1.407  24.687  0.00  0.00    +0.017 C 
ATOM     10  C   UNL     1      -0.444  -1.003  24.366  0.00  0.00    +0.072 C 
ATOM     11  N   UNL     1      -0.229  -0.056  23.972  0.00  0.00    -0.272 NA
ATOM     12  C   UNL     1      -0.823   0.631  24.055  0.00  0.00    +0.073 C 
ATOM     13  C   UNL     1      -1.156   0.038  24.401  0.00  0.00    +0.032 C 
ENDROOT
BRANCH   6   5
ATOM      5  C   UNL     1       1.155   0.216  23.206  0.00  0.00    +0.131 C 
BRANCH   5   4
ATOM      4  N   UNL     1       1.766  -0.276  22.949  0.00  0.00    -0.076 NA
BRANCH   4   2
ATOM      1  O   UNL     1       2.246   0.747  22.661  0.00  0.00    -0.151 OA
ATOM      2  S   UNL     1       2.536   0.014  22.902  0.00  0.00    +0.083 S 
ATOM      3  O   UNL     1       2.827  -0.720  23.143  0.00  0.00    -0.151 OA
BRANCH   2  28
ATOM     28  C   UNL     1       3.308   0.304  22.856  0.00  0.00    +0.153 A 
ATOM     29  C   UNL     1       3.531   1.048  22.579  0.00  0.00    +0.027 A 
ATOM     30  C   UNL     1       4.352   1.103  22.630  0.00  0.00    +0.009 A 
ATOM     31  C   UNL     1       4.636   0.394  22.939  0.00  0.00    +0.037 A 
ATOM     32  S   UNL     1       3.992  -0.100  23.079  0.00  0.00    -0.067 S 
ENDBRANCH   2  28
ENDBRANCH   4   2
ENDBRANCH   5   4
ENDBRANCH   6   5
BRANCH  13  14
ATOM     14  C   UNL     1      -1.895   0.024  24.769  0.00  0.00    +0.073 C 
BRANCH  14  15
ATOM     15  N   UNL     1      -2.446   0.617  24.608  0.00  0.00    -0.273 NA
ATOM     16  C   UNL     1      -2.378   1.353  24.973  0.00  0.00    +0.072 C 
ATOM     17  C   UNL     1      -2.930   1.946  24.812  0.00  0.00    +0.018 C 
ATOM     18  C   UNL     1      -3.548   1.801  24.286  0.00  0.00    +0.007 C 
ATOM     26  C   UNL     1      -3.616   1.064  23.921  0.00  0.00    +0.018 C 
ATOM     27  C   UNL     1      -3.064   0.472  24.082  0.00  0.00    +0.072 C 
BRANCH  18  19
ATOM     19  C   UNL     1      -4.099   2.393  24.124  0.00  0.00    +0.026 C 
BRANCH  19  20
ATOM     20  C   UNL     1      -4.705   2.551  24.663  0.00  0.00    -0.022 A 
ATOM     21  C   UNL     1      -4.665   3.222  25.142  0.00  0.00    -0.004 A 
ATOM     22  C   UNL     1      -5.271   3.380  25.680  0.00  0.00    -0.000 A 
ATOM     23  C   UNL     1      -5.915   2.867  25.739  0.00  0.00    -0.000 A 
ATOM     24  C   UNL     1      -5.954   2.197  25.259  0.00  0.00    -0.000 A 
ATOM     25  C   UNL     1      -5.348   2.039  24.721  0.00  0.00    -0.004 A 
ENDBRANCH  19  20
ENDBRANCH  18  19
ENDBRANCH  14  15
ENDBRANCH  13  14
TORSDOF 8
ENDMDL
MODEL 7
REMARK VINA RESULT:      -9.9      2.953      6.278
REMARK  Name = 
REMARK  8 active torsions:
REMARK  status: ('A' for Active; 'I' for Inactive)
REMARK    1  A    between atoms: S_2  and  N_4
REMARK    2  A    between atoms: S_2  and  C_28
REMARK    3  A    between atoms: N_4  and  C_5
REMARK    4  A    between atoms: C_5  and  C_6
REMARK    5  A    between atoms: C_13  and  C_14
REMARK    6  A    between atoms: C_14  and  N_15
REMARK    7  A    between atoms: C_18  and  C_19
REMARK    8  A    between atoms: C_19  and  C_20
REMARK                            x       y       z     vdW  Elec       q    Type
REMARK                         _______ _______ _______ _____ _____    ______ ____
ROOT
ATOM      6  C   UNL     1      -0.471  -0.590  24.357  0.00  0.00    +0.077 C 
ATOM      7  C   UNL     1       0.092  -0.245  23.945  0.00  0.00    +0.018 C 
ATOM      8  C   UNL     1       0.304   0.535  23.997  0.00  0.00    +0.005 C 
ATOM      9  C   UNL     1       0.976   0.736  23.438  0.00  0.00    +0.017 C 
ATOM     10  C   UNL     1       0.535   0.347  23.723  0.00  0.00    +0.072 C 
ATOM     11  N   UNL     1      -0.249   0.204  24.405  0.00  0.00    -0.272 NA
ATOM     12  C   UNL     1      -0.559   0.895  24.913  0.00  0.00    +0.073 C 
ATOM     13  C   UNL     1       0.000   1.195  24.489  0.00  0.00    +0.032 C 
ENDROOT
BRANCH   6   5
ATOM      5  C   UNL     1      -0.929  -1.239  24.576  0.00  0.00    +0.131 C 
BRANCH   5   4
ATOM      4  N   UNL     1      -1.372  -1.642  24.008  0.00  0.00    -0.076 NA
BRANCH   4   2
ATOM      1  O   UNL     1      -1.644  -2.570  24.659  0.00  0.00    -0.151 OA
ATOM      2  S   UNL     1      -2.074  -2.018  24.222  0.00  0.00    +0.083 S 
ATOM      3  O   UNL     1      -2.504  -1.465  23.785  0.00  0.00    -0.151 OA
BRANCH   2  28
ATOM     28  C   UNL     1      -2.777  -2.394  24.437  0.00  0.00    +0.153 A 
ATOM     29  C   UNL     1      -2.845  -3.043  24.941  0.00  0.00    +0.027 A 
ATOM     30  C   UNL     1      -3.645  -3.236  25.000  0.00  0.00    +0.009 A 
ATOM     31  C   UNL     1      -4.070  -2.707  24.532  0.00  0.00    +0.037 A 
ATOM     32  S   UNL     1      -3.534  -2.186  24.184  0.00  0.00    -0.067 S 
ENDBRANCH   2  28
ENDBRANCH   4   2
ENDBRANCH   5   4
ENDBRANCH   6   5
BRANCH  13  14
ATOM     14  C   UNL     1       0.265   1.977  24.493  0.00  0.00    +0.073 C 
BRANCH  14  15
ATOM     15  N   UNL     1      -0.251   2.585  24.707  0.00  0.00    -0.273 NA
ATOM     16  C   UNL     1      -0.376   2.758  25.503  0.00  0.00    +0.072 C 
ATOM     17  C   UNL     1      -0.892   3.367  25.717  0.00  0.00    +0.018 C 
ATOM     18  C   UNL     1      -1.281   3.801  25.133  0.00  0.00    +0.007 C 
ATOM     26  C   UNL     1      -1.156   3.627  24.336  0.00  0.00    +0.018 C 
ATOM     27  C   UNL     1      -0.640   3.019  24.124  0.00  0.00    +0.072 C 
BRANCH  18  19
ATOM     19  C   UNL     1      -1.797   4.408  25.347  0.00  0.00    +0.026 C 
BRANCH  19  20
ATOM     20  C   UNL     1      -2.596   4.246  25.473  0.00  0.00    -0.022 A 
ATOM     21  C   UNL     1      -2.880   4.149  26.242  0.00  0.00    -0.004 A 
ATOM     22  C   UNL     1      -3.680   3.987  26.368  0.00  0.00    -0.000 A 
ATOM     23  C   UNL     1      -4.194   3.922  25.726  0.00  0.00    -0.000 A 
ATOM     24  C   UNL     1      -3.909   4.020  24.958  0.00  0.00    -0.000 A 
ATOM     25  C   UNL     1      -3.110   4.182  24.832  0.00  0.00    -0.004 A 
ENDBRANCH  19  20
ENDBRANCH  18  19
ENDBRANCH  14  15
ENDBRANCH  13  14
TORSDOF 8
ENDMDL
