MODEL 1
REMARK VINA RESULT:     -10.0      0.000      0.000
REMARK  Name = 
REMARK  10 active torsions:
REMARK  status: ('A' for Active; 'I' for Inactive)
REMARK    1  A    between atoms: O_2  and  C_3
REMARK    2  A    between atoms: C_5  and  O_6
REMARK    3  A    between atoms: C_9  and  N_10
REMARK    4  A    between atoms: N_13  and  C_14
REMARK    5  A    between atoms: C_14  and  C_15
REMARK    6  A    between atoms: C_17  and  C_18
REMARK    7  A    between atoms: C_22  and  N_23
REMARK    8  A    between atoms: N_23  and  C_25
REMARK    9  A    between atoms: C_25  and  C_26
REMARK   10  A    between atoms: C_26  and  C_27
REMARK                            x       y       z     vdW  Elec       q    Type
REMARK                         _______ _______ _______ _____ _____    ______ ____
ROOT
ATOM     15  C   UNL     1      -0.422   0.293  24.317  0.00  0.00    +0.154 C 
ATOM     16  O   UNL     1       0.182   0.496  23.792  0.00  0.00    -0.350 OA
ATOM     17  C   UNL     1       0.498  -0.202  23.487  0.00  0.00    +0.180 C 
ATOM     20  C   UNL     1       0.091  -0.837  23.823  0.00  0.00    +0.198 C 
ATOM     21  O   UNL     1       0.229  -1.635  23.672  0.00  0.00    -0.219 OA
ATOM     22  C   UNL     1      -0.478  -0.531  24.336  0.00  0.00    +0.120 C 
ENDROOT
BRANCH  17  18
ATOM     18  C   UNL     1       1.115  -0.256  22.941  0.00  0.00    +0.214 C 
ATOM     19  O   UNL     1       1.625   0.382  22.829  0.00  0.00    -0.218 OA
ENDBRANCH  17  18
BRANCH  22  23
ATOM     23  N   UNL     1      -1.009  -0.970  24.789  0.00  0.00    -0.268 NA
ATOM     24  C   UNL     1      -0.824  -1.164  25.569  0.00  0.00    +0.090 C 
BRANCH  23  25
ATOM     25  C   UNL     1      -1.726  -1.216  24.462  0.00  0.00    +0.077 C 
BRANCH  25  26
ATOM     26  C   UNL     1      -2.283  -1.601  24.933  0.00  0.00    +0.044 C 
BRANCH  26  27
ATOM     27  C   UNL     1      -2.993  -1.861  24.603  0.00  0.00    -0.021 A 
ATOM     28  C   UNL     1      -3.572  -1.314  24.388  0.00  0.00    -0.004 A 
ATOM     29  C   UNL     1      -4.283  -1.574  24.058  0.00  0.00    -0.000 A 
ATOM     30  C   UNL     1      -4.413  -2.380  23.944  0.00  0.00    -0.000 A 
ATOM     31  C   UNL     1      -3.833  -2.927  24.159  0.00  0.00    -0.000 A 
ATOM     32  C   UNL     1      -3.124  -2.667  24.488  0.00  0.00    -0.004 A 
ENDBRANCH  26  27
ENDBRANCH  25  26
ENDBRANCH  23  25
ENDBRANCH  22  23
BRANCH  15  14
ATOM     14  C   UNL     1      -0.888   0.821  24.747  0.00  0.00    +0.148 C 
BRANCH  14  13
ATOM     10  N   UNL     1      -1.942   2.704  24.426  0.00  0.00    -0.161 NA
ATOM     11  C   UNL     1      -1.574   2.073  24.807  0.00  0.00    +0.344 C 
ATOM     12  O   UNL     1      -1.524   2.061  25.632  0.00  0.00    -0.249 OA
ATOM     13  N   UNL     1      -1.256   1.452  24.366  0.00  0.00    -0.184 NA
BRANCH  10   9
ATOM      3  C   UNL     1      -2.135   4.629  25.438  0.00  0.00    +0.143 A 
ATOM      4  C   UNL     1      -2.896   4.565  25.750  0.00  0.00    +0.074 A 
ATOM      5  C   UNL     1      -3.339   3.880  25.621  0.00  0.00    +0.143 A 
ATOM      8  C   UNL     1      -3.021   3.260  25.180  0.00  0.00    +0.054 A 
ATOM      9  C   UNL     1      -2.260   3.324  24.867  0.00  0.00    +0.081 A 
ATOM     33  C   UNL     1      -1.817   4.009  24.996  0.00  0.00    +0.054 A 
BRANCH   3   2
ATOM      1  C   UNL     1      -1.319   5.687  24.934  0.00  0.00    +0.252 C 
ATOM      2  O   UNL     1      -1.693   5.313  25.567  0.00  0.00    -0.471 OA
ENDBRANCH   3   2
BRANCH   5   6
ATOM      6  O   UNL     1      -4.100   3.817  25.934  0.00  0.00    -0.471 OA
ATOM      7  C   UNL     1      -4.750   3.760  25.429  0.00  0.00    +0.252 C 
ENDBRANCH   5   6
ENDBRANCH  10   9
ENDBRANCH  14  13
ENDBRANCH  15  14
TORSDOF 10
ENDMDL
MODEL 2
REMARK VINA RESULT:     -10.0      0.038      1.301
REMARK  Name = 
REMARK  10 active torsions:
REMARK  status: ('A' for Active; 'I' for Inactive)
REMARK    1  A    between atoms: O_2  and  C_3
REMARK    2  A    between atoms: C_5  and  O_6
REMARK    3  A    between atoms: C_9  and  N_10
REMARK    4  A    between atoms: N_13  and  C_14
REMARK    5  A    between atoms: C_14  and  C_15
REMARK    6  A    between atoms: C_17  and  C_18
REMARK    7  A    between atoms: C_22  and  N_23
REMARK    8  A    between atoms: N_23  and  C_25
REMARK    9  A    between atoms: C_25  and  C_26
REMARK   10  A    between atoms: C_26  and  C_27
REMARK                            x       y       z     vdW  Elec       q    Type
REMARK                         _______ _______ _______ _____ _____    ______ ____
ROOT
ATOM     15  C   UNL     1      -0.421   0.282  24.307  0.00  0.00    +0.154 C 
ATOM     16  O   UNL     1       0.178   0.493  23.779  0.00  0.00    -0.350 OA
ATOM     17  C   UNL     1       0.503  -0.201  23.473  0.00  0.00    +0.180 C 
ATOM     20  C   UNL     1       0.106  -0.840  23.812  0.00  0.00    +0.198 C 
ATOM     21  O   UNL     1       0.254  -1.637  23.662  0.00  0.00    -0.219 OA
ATOM     22  C   UNL     1      -0.465  -0.542  24.327  0.00  0.00    +0.120 C 
ENDROOT
BRANCH  17  18
ATOM     18  C   UNL     1       1.119  -0.247  22.925  0.00  0.00    +0.214 C 
ATOM     19  O   UNL     1       1.623   0.396  22.816  0.00  0.00    -0.218 OA
ENDBRANCH  17  18
BRANCH  22  23
ATOM     23  N   UNL     1      -0.989  -0.988  24.782  0.00  0.00    -0.268 NA
ATOM     24  C   UNL     1      -0.804  -1.166  25.567  0.00  0.00    +0.090 C 
BRANCH  23  25
ATOM     25  C   UNL     1      -1.696  -1.256  24.454  0.00  0.00    +0.077 C 
BRANCH  25  26
ATOM     26  C   UNL     1      -2.255  -1.634  24.930  0.00  0.00    +0.044 C 
BRANCH  26  27
ATOM     27  C   UNL     1      -2.961  -1.905  24.602  0.00  0.00    -0.021 A 
ATOM     28  C   UNL     1      -3.554  -1.368  24.400  0.00  0.00    -0.004 A 
ATOM     29  C   UNL     1      -4.261  -1.639  24.071  0.00  0.00    -0.000 A 
ATOM     30  C   UNL     1      -4.374  -2.447  23.946  0.00  0.00    -0.000 A 
ATOM     31  C   UNL     1      -3.781  -2.983  24.149  0.00  0.00    -0.000 A 
ATOM     32  C   UNL     1      -3.075  -2.712  24.477  0.00  0.00    -0.004 A 
ENDBRANCH  26  27
ENDBRANCH  25  26
ENDBRANCH  23  25
ENDBRANCH  22  23
BRANCH  15  14
ATOM     14  C   UNL     1      -0.892   0.804  24.738  0.00  0.00    +0.148 C 
BRANCH  14  13
ATOM     10  N   UNL     1      -1.948   2.688  24.426  0.00  0.00    -0.161 NA
ATOM     11  C   UNL     1      -1.581   2.055  24.804  0.00  0.00    +0.344 C 
ATOM     12  O   UNL     1      -1.533   2.038  25.628  0.00  0.00    -0.249 OA
ATOM     13  N   UNL     1      -1.260   1.438  24.360  0.00  0.00    -0.184 NA
BRANCH  10   9
ATOM      3  C   UNL     1      -3.352   3.854  25.623  0.00  0.00    +0.143 A 
ATOM      4  C   UNL     1      -2.912   4.537  25.759  0.00  0.00    +0.074 A 
ATOM      5  C   UNL     1      -2.148   4.604  25.450  0.00  0.00    +0.143 A 
ATOM      8  C   UNL     1      -1.828   3.988  25.006  0.00  0.00    +0.054 A 
ATOM      9  C   UNL     1      -2.269   3.304  24.870  0.00  0.00    +0.081 A 
ATOM     33  C   UNL     1      -3.032   3.237  25.178  0.00  0.00    +0.054 A 
BRANCH   3   2
ATOM      1  C   UNL     1      -4.763   3.747  25.422  0.00  0.00    +0.252 C 
ATOM      2  O   UNL     1      -4.115   3.788  25.931  0.00  0.00    -0.471 OA
ENDBRANCH   3   2
BRANCH   5   6
ATOM      6  O   UNL     1      -1.707   5.288  25.587  0.00  0.00    -0.471 OA
ATOM      7  C   UNL     1      -1.357   5.686  24.955  0.00  0.00    +0.252 C 
ENDBRANCH   5   6
ENDBRANCH  10   9
ENDBRANCH  14  13
ENDBRANCH  15  14
TORSDOF 10
ENDMDL
MODEL 3
REMARK VINA RESULT:      -9.9      1.907      6.280
REMARK  Name = 
REMARK  10 active torsions:
REMARK  status: ('A' for Active; 'I' for Inactive)
REMARK    1  A    between atoms: O_2  and  C_3
REMARK    2  A    between atoms: C_5  and  O_6
REMARK    3  A    between atoms: C_9  and  N_10
REMARK    4  A    between atoms: N_13  and  C_14
REMARK    5  A    between atoms: C_14  and  C_15
REMARK    6  A    between atoms: C_17  and  C_18
REMARK    7  A    between atoms: C_22  and  N_23
REMARK    8  A    between atoms: N_23  and  C_25
REMARK    9  A    between atoms: C_25  and  C_26
REMARK   10  A    between atoms: C_26  and  C_27
REMARK                            x       y       z     vdW  Elec       q    Type
REMARK                         _______ _______ _______ _____ _____    ______ ____
ROOT
ATOM     15  C   UNL     1      -4.700   1.933  25.152  0.00  0.00    +0.154 C 
ATOM     16  O   UNL     1      -5.341   1.825  25.662  0.00  0.00    -0.350 OA
ATOM     17  C   UNL     1      -5.672   2.566  25.813  0.00  0.00    +0.180 C 
ATOM     20  C   UNL     1      -5.236   3.131  25.398  0.00  0.00    +0.198 C 
ATOM     21  O   UNL     1      -5.376   3.943  25.392  0.00  0.00    -0.219 OA
ATOM     22  C   UNL     1      -4.636   2.739  24.989  0.00  0.00    +0.120 C 
ENDROOT
BRANCH  17  18
ATOM     18  C   UNL     1      -6.324   2.716  26.296  0.00  0.00    +0.214 C 
ATOM     19  O   UNL     1      -6.524   2.186  26.895  0.00  0.00    -0.218 OA
ENDBRANCH  17  18
BRANCH  22  23
ATOM     23  N   UNL     1      -4.070   3.092  24.503  0.00  0.00    -0.268 NA
ATOM     24  C   UNL     1      -4.208   3.159  23.692  0.00  0.00    +0.090 C 
BRANCH  23  25
ATOM     25  C   UNL     1      -3.367   3.376  24.827  0.00  0.00    +0.077 C 
BRANCH  25  26
ATOM     26  C   UNL     1      -2.787   3.699  24.335  0.00  0.00    +0.044 C 
BRANCH  26  27
ATOM     27  C   UNL     1      -2.075   3.963  24.655  0.00  0.00    -0.021 A 
ATOM     28  C   UNL     1      -1.447   3.437  24.755  0.00  0.00    -0.004 A 
ATOM     29  C   UNL     1      -0.734   3.702  25.075  0.00  0.00    -0.000 A 
ATOM     30  C   UNL     1      -0.650   4.492  25.296  0.00  0.00    -0.000 A 
ATOM     31  C   UNL     1      -1.278   5.018  25.196  0.00  0.00    -0.000 A 
ATOM     32  C   UNL     1      -1.990   4.753  24.876  0.00  0.00    -0.004 A 
ENDBRANCH  26  27
ENDBRANCH  25  26
ENDBRANCH  23  25
ENDBRANCH  22  23
BRANCH  15  14
ATOM     14  C   UNL     1      -4.211   1.337  24.857  0.00  0.00    +0.148 C 
BRANCH  14  13
ATOM     10  N   UNL     1      -3.459  -0.620  25.464  0.00  0.00    -0.161 NA
ATOM     11  C   UNL     1      -3.644   0.033  24.995  0.00  0.00    +0.344 C 
ATOM     12  O   UNL     1      -3.446   0.034  24.193  0.00  0.00    -0.249 OA
ATOM     13  N   UNL     1      -4.026   0.685  25.326  0.00  0.00    -0.184 NA
BRANCH  10   9
ATOM      3  C   UNL     1      -1.876  -1.909  24.691  0.00  0.00    +0.143 A 
ATOM      4  C   UNL     1      -2.310  -2.574  24.470  0.00  0.00    +0.074 A 
ATOM      5  C   UNL     1      -3.129  -2.587  24.581  0.00  0.00    +0.143 A 
ATOM      8  C   UNL     1      -3.511  -1.936  24.912  0.00  0.00    +0.054 A 
ATOM      9  C   UNL     1      -3.077  -1.271  25.133  0.00  0.00    +0.081 A 
ATOM     33  C   UNL     1      -2.258  -1.257  25.023  0.00  0.00    +0.054 A 
BRANCH   3   2
ATOM      1  C   UNL     1      -0.557  -1.813  25.230  0.00  0.00    +0.252 C 
ATOM      2  O   UNL     1      -1.059  -1.895  24.581  0.00  0.00    -0.471 OA
ENDBRANCH   3   2
BRANCH   5   6
ATOM      6  O   UNL     1      -3.563  -3.253  24.359  0.00  0.00    -0.471 OA
ATOM      7  C   UNL     1      -4.061  -3.220  23.702  0.00  0.00    +0.252 C 
ENDBRANCH   5   6
ENDBRANCH  10   9
ENDBRANCH  14  13
ENDBRANCH  15  14
TORSDOF 10
ENDMDL
MODEL 4
REMARK VINA RESULT:      -8.9      1.443      6.173
REMARK  Name = 
REMARK  10 active torsions:
REMARK  status: ('A' for Active; 'I' for Inactive)
REMARK    1  A    between atoms: O_2  and  C_3
REMARK    2  A    between atoms: C_5  and  O_6
REMARK    3  A    between atoms: C_9  and  N_10
REMARK    4  A    between atoms: N_13  and  C_14
REMARK    5  A    between atoms: C_14  and  C_15
REMARK    6  A    between atoms: C_17  and  C_18
REMARK    7  A    between atoms: C_22  and  N_23
REMARK    8  A    between atoms: N_23  and  C_25
REMARK    9  A    between atoms: C_25  and  C_26
REMARK   10  A    between atoms: C_26  and  C_27
REMARK                            x       y       z     vdW  Elec       q    Type
REMARK                         _______ _______ _______ _____ _____    ______ ____
ROOT
ATOM     15  C   UNL     1      -4.135   2.211  25.245  0.00  0.00    +0.154 C 
ATOM     16  O   UNL     1      -4.843   1.944  24.916  0.00  0.00    -0.350 OA
ATOM     17  C   UNL     1      -5.409   2.535  25.015  0.00  0.00    +0.180 C 
ATOM     20  C   UNL     1      -5.051   3.169  25.405  0.00  0.00    +0.198 C 
ATOM     21  O   UNL     1      -5.417   3.878  25.615  0.00  0.00    -0.219 OA
ATOM     22  C   UNL     1      -4.264   2.969  25.547  0.00  0.00    +0.120 C 
ENDROOT
BRANCH  17  18
ATOM     18  C   UNL     1      -6.196   2.501  24.767  0.00  0.00    +0.214 C 
ATOM     19  O   UNL     1      -6.575   1.772  24.701  0.00  0.00    -0.218 OA
ENDBRANCH  17  18
BRANCH  22  23
ATOM     23  N   UNL     1      -3.703   3.441  25.924  0.00  0.00    -0.268 NA
ATOM     24  C   UNL     1      -3.732   3.541  26.743  0.00  0.00    +0.090 C 
BRANCH  23  25
ATOM     25  C   UNL     1      -3.113   3.814  25.484  0.00  0.00    +0.077 C 
BRANCH  25  26
ATOM     26  C   UNL     1      -2.545   4.276  25.864  0.00  0.00    +0.044 C 
BRANCH  26  27
ATOM     27  C   UNL     1      -1.890   4.552  25.446  0.00  0.00    -0.021 A 
ATOM     28  C   UNL     1      -1.247   4.051  25.312  0.00  0.00    -0.004 A 
ATOM     29  C   UNL     1      -0.591   4.327  24.893  0.00  0.00    -0.000 A 
ATOM     30  C   UNL     1      -0.579   5.102  24.610  0.00  0.00    -0.000 A 
ATOM     31  C   UNL     1      -1.222   5.601  24.744  0.00  0.00    -0.000 A 
ATOM     32  C   UNL     1      -1.877   5.325  25.162  0.00  0.00    -0.004 A 
ENDBRANCH  26  27
ENDBRANCH  25  26
ENDBRANCH  23  25
ENDBRANCH  22  23
BRANCH  15  14
ATOM     14  C   UNL     1      -3.423   1.794  25.267  0.00  0.00    +0.148 C 
BRANCH  14  13
ATOM     10  N   UNL     1      -2.461   0.145  24.211  0.00  0.00    -0.161 NA
ATOM     11  C   UNL     1      -2.629   0.706  24.791  0.00  0.00    +0.344 C 
ATOM     12  O   UNL     1      -2.172   0.739  25.478  0.00  0.00    -0.249 OA
ATOM     13  N   UNL     1      -3.255   1.233  24.687  0.00  0.00    -0.184 NA
BRANCH  10   9
ATOM      3  C   UNL     1      -1.359  -1.681  24.675  0.00  0.00    +0.143 A 
ATOM      4  C   UNL     1      -0.585  -1.438  24.526  0.00  0.00    +0.074 A 
ATOM      5  C   UNL     1      -0.436  -0.667  24.272  0.00  0.00    +0.143 A 
ATOM      8  C   UNL     1      -1.061  -0.140  24.167  0.00  0.00    +0.054 A 
ATOM      9  C   UNL     1      -1.836  -0.382  24.316  0.00  0.00    +0.081 A 
ATOM     33  C   UNL     1      -1.985  -1.154  24.570  0.00  0.00    +0.054 A 
BRANCH   3   2
ATOM      1  C   UNL     1      -2.045  -2.924  24.520  0.00  0.00    +0.252 C 
ATOM      2  O   UNL     1      -1.507  -2.452  24.929  0.00  0.00    -0.471 OA
ENDBRANCH   3   2
BRANCH   5   6
ATOM      6  O   UNL     1       0.339  -0.424  24.122  0.00  0.00    -0.471 OA
ATOM      7  C   UNL     1       0.583  -0.281  23.348  0.00  0.00    +0.252 C 
ENDBRANCH   5   6
ENDBRANCH  10   9
ENDBRANCH  14  13
ENDBRANCH  15  14
TORSDOF 10
ENDMDL
MODEL 5
REMARK VINA RESULT:      -6.9     15.365     17.981
REMARK  Name = 
REMARK  10 active torsions:
REMARK  status: ('A' for Active; 'I' for Inactive)
REMARK    1  A    between atoms: O_2  and  C_3
REMARK    2  A    between atoms: C_5  and  O_6
REMARK    3  A    between atoms: C_9  and  N_10
REMARK    4  A    between atoms: N_13  and  C_14
REMARK    5  A    between atoms: C_14  and  C_15
REMARK    6  A    between atoms: C_17  and  C_18
REMARK    7  A    between atoms: C_22  and  N_23
REMARK    8  A    between atoms: N_23  and  C_25
REMARK    9  A    between atoms: C_25  and  C_26
REMARK   10  A    between atoms: C_26  and  C_27
REMARK                            x       y       z     vdW  Elec       q    Type
REMARK                         _______ _______ _______ _____ _____    ______ ____
ROOT
ATOM     15  C   UNL     1      12.574   8.484  18.848  0.00  0.00    +0.154 C 
ATOM     16  O   UNL     1      12.540   8.570  18.027  0.00  0.00    -0.350 OA
ATOM     17  C   UNL     1      11.746   8.630  17.810  0.00  0.00    +0.180 C 
ATOM     20  C   UNL     1      11.289   8.581  18.496  0.00  0.00    +0.198 C 
ATOM     21  O   UNL     1      10.466   8.616  18.534  0.00  0.00    -0.219 OA
ATOM     22  C   UNL     1      11.801   8.491  19.137  0.00  0.00    +0.120 C 
ENDROOT
BRANCH  17  18
ATOM     18  C   UNL     1      11.459   8.723  17.042  0.00  0.00    +0.214 C 
ATOM     19  O   UNL     1      11.877   8.408  16.405  0.00  0.00    -0.218 OA
ENDBRANCH  17  18
BRANCH  22  23
ATOM     23  N   UNL     1      11.579   8.419  19.929  0.00  0.00    -0.268 NA
ATOM     24  C   UNL     1      11.509   9.094  20.399  0.00  0.00    +0.090 C 
BRANCH  23  25
ATOM     25  C   UNL     1      11.427   7.675  20.249  0.00  0.00    +0.077 C 
BRANCH  25  26
ATOM     26  C   UNL     1      11.330   7.589  21.064  0.00  0.00    +0.044 C 
BRANCH  26  27
ATOM     27  C   UNL     1      11.107   6.860  21.379  0.00  0.00    -0.021 A 
ATOM     28  C   UNL     1      10.380   6.782  21.761  0.00  0.00    -0.004 A 
ATOM     29  C   UNL     1      10.157   6.052  22.077  0.00  0.00    -0.000 A 
ATOM     30  C   UNL     1      10.661   5.403  22.010  0.00  0.00    -0.000 A 
ATOM     31  C   UNL     1      11.388   5.482  21.627  0.00  0.00    -0.000 A 
ATOM     32  C   UNL     1      11.610   6.211  21.313  0.00  0.00    -0.004 A 
ENDBRANCH  26  27
ENDBRANCH  25  26
ENDBRANCH  23  25
ENDBRANCH  22  23
BRANCH  15  14
ATOM     14  C   UNL     1      13.260   8.405  19.298  0.00  0.00    +0.148 C 
BRANCH  14  13
ATOM     10  N   UNL     1      15.372   7.939  19.003  0.00  0.00    -0.161 NA
ATOM     11  C   UNL     1      14.646   8.066  19.374  0.00  0.00    +0.344 C 
ATOM     12  O   UNL     1      14.581   7.983  20.193  0.00  0.00    -0.249 OA
ATOM     13  N   UNL     1      13.985   8.277  18.928  0.00  0.00    -0.184 NA
BRANCH  10   9
ATOM      3  C   UNL     1      16.998   6.752  19.846  0.00  0.00    +0.143 A 
ATOM      4  C   UNL     1      17.354   7.305  20.343  0.00  0.00    +0.074 A 
ATOM      5  C   UNL     1      17.048   8.071  20.394  0.00  0.00    +0.143 A 
ATOM      8  C   UNL     1      16.388   8.281  19.948  0.00  0.00    +0.054 A 
ATOM      9  C   UNL     1      16.032   7.728  19.450  0.00  0.00    +0.081 A 
ATOM     33  C   UNL     1      16.337   6.962  19.399  0.00  0.00    +0.054 A 
BRANCH   3   2
ATOM      1  C   UNL     1      17.364   5.616  19.061  0.00  0.00    +0.252 C 
ATOM      2  O   UNL     1      17.304   5.987  19.795  0.00  0.00    -0.471 OA
ENDBRANCH   3   2
BRANCH   5   6
ATOM      6  O   UNL     1      17.404   8.624  20.893  0.00  0.00    -0.471 OA
ATOM      7  C   UNL     1      17.230   8.624  21.699  0.00  0.00    +0.252 C 
ENDBRANCH   5   6
ENDBRANCH  10   9
ENDBRANCH  14  13
ENDBRANCH  15  14
TORSDOF 10
ENDMDL
