MODEL 1
REMARK VINA RESULT:     -15.5      0.000      0.000
REMARK  Name = 
REMARK  5 active torsions:
REMARK  status: ('A' for Active; 'I' for Inactive)
REMARK    1  A    between atoms: C_5  and  C_8
REMARK    2  A    between atoms: C_19  and  N_20
REMARK    3  A    between atoms: N_20  and  S_21
REMARK    4  A    between atoms: S_21  and  C_24
REMARK    5  A    between atoms: C_24  and  C_25
REMARK                            x       y       z     vdW  Elec       q    Type
REMARK                         _______ _______ _______ _____ _____    ______ ____
ROOT
ATOM      8  C   UNL     1      -0.875   1.886  25.280  0.00  0.00    +0.249 C 
ATOM      9  O   UNL     1      -0.108   1.631  25.577  0.00  0.00    -0.270 OA
ATOM     10  N   UNL     1      -1.028   2.720  25.469  0.00  0.00    -0.276 N 
ATOM     11  C   UNL     1      -0.810   3.452  25.808  0.00  0.00    +0.096 C 
ATOM     12  C   UNL     1      -1.611   3.985  25.583  0.00  0.00    +0.043 C 
ATOM     13  C   UNL     1      -2.189   4.549  25.477  0.00  0.00    +0.011 C 
ATOM     14  C   UNL     1      -2.086   3.875  25.313  0.00  0.00    +0.058 C 
ATOM     15  C   UNL     1      -1.306   3.373  25.539  0.00  0.00    +0.099 C 
ATOM     16  C   UNL     1      -2.491   3.166  24.890  0.00  0.00    +0.041 A 
ATOM     17  C   UNL     1      -3.184   2.972  24.487  0.00  0.00    +0.014 A 
ATOM     18  C   UNL     1      -3.290   2.209  24.193  0.00  0.00    +0.024 A 
ATOM     19  C   UNL     1      -2.702   1.639  24.302  0.00  0.00    +0.147 A 
ATOM     31  C   UNL     1      -2.009   1.834  24.705  0.00  0.00    +0.277 A 
ATOM     32  O   UNL     1      -1.962   1.000  24.464  0.00  0.00    -0.266 OA
ATOM     33  N   UNL     1      -1.904   2.597  24.999  0.00  0.00    -0.298 N 
ATOM     34  C   UNL     1      -2.026   3.239  25.142  0.00  0.00    +0.110 C 
ENDROOT
BRANCH   8   5
ATOM      1  F   UNL     1      -3.650   0.529  22.947  0.00  0.00    -0.204 F 
ATOM      2  C   UNL     1      -3.118   0.875  23.774  0.00  0.00    +0.140 A 
ATOM      3  C   UNL     1      -3.044   1.094  24.645  0.00  0.00    +0.030 A 
ATOM      4  C   UNL     1      -2.331   1.423  25.155  0.00  0.00    +0.007 A 
ATOM      5  C   UNL     1      -1.588   1.571  24.829  0.00  0.00    +0.054 A 
ATOM      6  C   UNL     1      -1.453   1.430  24.028  0.00  0.00    +0.007 A 
ATOM      7  C   UNL     1      -2.061   1.140  23.552  0.00  0.00    +0.030 A 
ENDBRANCH   8   5
BRANCH  19  20
ATOM     20  N   UNL     1      -2.735   0.823  24.027  0.00  0.00    -0.095 NA
BRANCH  20  21
ATOM     21  S   UNL     1      -3.525   0.361  24.517  0.00  0.00    +0.078 S 
ATOM     22  O   UNL     1      -3.580   0.009  25.388  0.00  0.00    -0.153 OA
ATOM     23  O   UNL     1      -3.835   0.601  23.611  0.00  0.00    -0.153 OA
BRANCH  21  24
ATOM     24  C   UNL     1      -4.251  -0.043  24.915  0.00  0.00    +0.201 C 
BRANCH  24  25
ATOM     25  C   UNL     1      -3.990  -0.847  24.836  0.00  0.00    +0.003 A 
ATOM     26  C   UNL     1      -3.526  -1.205  25.418  0.00  0.00    -0.003 A 
ATOM     27  C   UNL     1      -3.281  -1.987  25.325  0.00  0.00    -0.000 A 
ATOM     28  C   UNL     1      -3.498  -2.410  24.652  0.00  0.00    -0.000 A 
ATOM     29  C   UNL     1      -3.962  -2.052  24.071  0.00  0.00    -0.000 A 
ATOM     30  C   UNL     1      -4.207  -1.270  24.163  0.00  0.00    -0.003 A 
ENDBRANCH  24  25
ENDBRANCH  21  24
ENDBRANCH  20  21
ENDBRANCH  19  20
TORSDOF 5
ENDMDL
MODEL 2
REMARK VINA RESULT:     -15.4      1.413      2.039
REMARK  Name = 
REMARK  5 active torsions:
REMARK  status: ('A' for Active; 'I' for Inactive)
REMARK    1  A    between atoms: C_5  and  C_8
REMARK    2  A    between atoms: C_19  and  N_20
REMARK    3  A    between atoms: N_20  and  S_21
REMARK    4  A    between atoms: S_21  and  C_24
REMARK    5  A    between atoms: C_24  and  C_25
REMARK                            x       y       z     vdW  Elec       q    Type
REMARK                         _______ _______ _______ _____ _____    ______ ____
ROOT
ATOM      8  C   UNL     1      -2.842   2.588  24.605  0.00  0.00    +0.249 C 
ATOM      9  O   UNL     1      -2.100   3.016  24.513  0.00  0.00    -0.270 OA
ATOM     10  N   UNL     1      -3.465   3.098  24.933  0.00  0.00    -0.276 N 
ATOM     11  C   UNL     1      -3.741   3.830  25.226  0.00  0.00    +0.096 C 
ATOM     12  C   UNL     1      -4.677   3.587  25.427  0.00  0.00    +0.043 C 
ATOM     13  C   UNL     1      -5.461   3.547  25.643  0.00  0.00    +0.011 C 
ATOM     14  C   UNL     1      -4.974   3.118  25.377  0.00  0.00    +0.058 C 
ATOM     15  C   UNL     1      -4.073   3.369  25.188  0.00  0.00    +0.099 C 
ATOM     16  C   UNL     1      -4.855   2.252  25.092  0.00  0.00    +0.041 A 
ATOM     17  C   UNL     1      -5.269   1.544  25.006  0.00  0.00    +0.014 A 
ATOM     18  C   UNL     1      -4.887   0.878  24.702  0.00  0.00    +0.024 A 
ATOM     19  C   UNL     1      -4.093   0.921  24.484  0.00  0.00    +0.147 A 
ATOM     31  C   UNL     1      -3.679   1.630  24.570  0.00  0.00    +0.277 A 
ATOM     32  O   UNL     1      -3.139   1.035  24.240  0.00  0.00    -0.266 OA
ATOM     33  N   UNL     1      -4.061   2.295  24.873  0.00  0.00    -0.298 N 
ATOM     34  C   UNL     1      -4.543   2.685  25.126  0.00  0.00    +0.110 C 
ENDROOT
BRANCH   8   5
ATOM      1  F   UNL     1      -4.331  -0.826  23.551  0.00  0.00    -0.204 F 
ATOM      2  C   UNL     1      -3.976  -0.016  24.103  0.00  0.00    +0.140 A 
ATOM      3  C   UNL     1      -3.789   0.405  24.877  0.00  0.00    +0.030 A 
ATOM      4  C   UNL     1      -3.423   1.247  25.066  0.00  0.00    +0.007 A 
ATOM      5  C   UNL     1      -3.198   1.772  24.471  0.00  0.00    +0.054 A 
ATOM      6  C   UNL     1      -3.292   1.564  23.679  0.00  0.00    +0.007 A 
ATOM      7  C   UNL     1      -3.612   0.830  23.480  0.00  0.00    +0.030 A 
ENDBRANCH   8   5
BRANCH  19  20
ATOM     20  N   UNL     1      -3.623   0.275  24.160  0.00  0.00    -0.095 NA
BRANCH  20  21
ATOM     21  S   UNL     1      -3.545  -0.452  24.897  0.00  0.00    +0.078 S 
ATOM     22  O   UNL     1      -2.973  -0.506  25.642  0.00  0.00    -0.153 OA
ATOM     23  O   UNL     1      -4.259  -0.733  24.275  0.00  0.00    -0.153 OA
BRANCH  21  24
ATOM     24  C   UNL     1      -3.508  -1.119  25.531  0.00  0.00    +0.201 C 
BRANCH  24  25
ATOM     25  C   UNL     1      -2.824  -1.522  25.231  0.00  0.00    +0.003 A 
ATOM     26  C   UNL     1      -2.062  -1.276  25.431  0.00  0.00    -0.003 A 
ATOM     27  C   UNL     1      -1.407  -1.678  25.131  0.00  0.00    -0.000 A 
ATOM     28  C   UNL     1      -1.513  -2.325  24.631  0.00  0.00    -0.000 A 
ATOM     29  C   UNL     1      -2.275  -2.571  24.431  0.00  0.00    -0.000 A 
ATOM     30  C   UNL     1      -2.930  -2.168  24.731  0.00  0.00    -0.003 A 
ENDBRANCH  24  25
ENDBRANCH  21  24
ENDBRANCH  20  21
ENDBRANCH  19  20
TORSDOF 5
ENDMDL
MODEL 3
REMARK VINA RESULT:     -14.6      1.249      3.977
REMARK  Name = 
REMARK  5 active torsions:
REMARK  status: ('A' for Active; 'I' for Inactive)
REMARK    1  A    between atoms: C_5  and  C_8
REMARK    2  A    between atoms: C_19  and  N_20
REMARK    3  A    between atoms: N_20  and  S_21
REMARK    4  A    between atoms: S_21  and  C_24
REMARK    5  A    between atoms: C_24  and  C_25
REMARK                            x       y       z     vdW  Elec       q    Type
REMARK                         _______ _______ _______ _____ _____    ______ ____
ROOT
ATOM      8  C   UNL     1      -2.315  -0.625  25.540  0.00  0.00    +0.249 C 
ATOM      9  O   UNL     1      -1.821  -0.846  26.210  0.00  0.00    -0.270 OA
ATOM     10  N   UNL     1      -2.830  -1.280  25.294  0.00  0.00    -0.276 N 
ATOM     11  C   UNL     1      -3.118  -2.060  25.370  0.00  0.00    +0.096 C 
ATOM     12  C   UNL     1      -3.775  -2.067  24.631  0.00  0.00    +0.043 C 
ATOM     13  C   UNL     1      -4.345  -2.233  24.073  0.00  0.00    +0.011 C 
ATOM     14  C   UNL     1      -3.938  -1.690  24.254  0.00  0.00    +0.058 C 
ATOM     15  C   UNL     1      -3.307  -1.699  24.971  0.00  0.00    +0.099 C 
ATOM     16  C   UNL     1      -3.749  -0.821  24.021  0.00  0.00    +0.041 A 
ATOM     17  C   UNL     1      -3.969  -0.242  23.477  0.00  0.00    +0.014 A 
ATOM     18  C   UNL     1      -3.612   0.501  23.499  0.00  0.00    +0.024 A 
ATOM     19  C   UNL     1      -3.035   0.665  24.066  0.00  0.00    +0.147 A 
ATOM     31  C   UNL     1      -2.815   0.086  24.610  0.00  0.00    +0.277 A 
ATOM     32  O   UNL     1      -2.350   0.802  24.768  0.00  0.00    -0.266 OA
ATOM     33  N   UNL     1      -3.173  -0.657  24.588  0.00  0.00    -0.298 N 
ATOM     34  C   UNL     1      -3.571  -1.159  24.396  0.00  0.00    +0.110 C 
ENDROOT
BRANCH   8   5
ATOM      1  F   UNL     1      -2.579   2.293  23.010  0.00  0.00    -0.204 F 
ATOM      2  C   UNL     1      -2.775   1.603  23.766  0.00  0.00    +0.140 A 
ATOM      3  C   UNL     1      -3.294   1.247  24.412  0.00  0.00    +0.030 A 
ATOM      4  C   UNL     1      -3.167   0.528  24.998  0.00  0.00    +0.007 A 
ATOM      5  C   UNL     1      -2.479   0.074  24.996  0.00  0.00    +0.054 A 
ATOM      6  C   UNL     1      -1.872   0.246  24.465  0.00  0.00    +0.007 A 
ATOM      7  C   UNL     1      -1.953   0.874  23.935  0.00  0.00    +0.030 A 
ENDBRANCH   8   5
BRANCH  19  20
ATOM     20  N   UNL     1      -2.616   1.413  24.155  0.00  0.00    -0.095 NA
BRANCH  20  21
ATOM     21  S   UNL     1      -3.322   2.141  24.375  0.00  0.00    +0.078 S 
ATOM     22  O   UNL     1      -3.797   2.309  25.170  0.00  0.00    -0.153 OA
ATOM     23  O   UNL     1      -3.040   2.272  23.438  0.00  0.00    -0.153 OA
BRANCH  21  24
ATOM     24  C   UNL     1      -3.944   2.802  24.529  0.00  0.00    +0.201 C 
BRANCH  24  25
ATOM     25  C   UNL     1      -3.440   3.334  24.959  0.00  0.00    +0.003 A 
ATOM     26  C   UNL     1      -2.924   3.844  24.566  0.00  0.00    -0.003 A 
ATOM     27  C   UNL     1      -2.441   4.354  24.998  0.00  0.00    -0.000 A 
ATOM     28  C   UNL     1      -2.473   4.354  25.822  0.00  0.00    -0.000 A 
ATOM     29  C   UNL     1      -2.989   3.844  26.214  0.00  0.00    -0.000 A 
ATOM     30  C   UNL     1      -3.472   3.334  25.782  0.00  0.00    -0.003 A 
ENDBRANCH  24  25
ENDBRANCH  21  24
ENDBRANCH  20  21
ENDBRANCH  19  20
TORSDOF 5
ENDMDL
MODEL 4
REMARK VINA RESULT:     -14.5      1.274      3.933
REMARK  Name = 
REMARK  5 active torsions:
REMARK  status: ('A' for Active; 'I' for Inactive)
REMARK    1  A    between atoms: C_5  and  C_8
REMARK    2  A    between atoms: C_19  and  N_20
REMARK    3  A    between atoms: N_20  and  S_21
REMARK    4  A    between atoms: S_21  and  C_24
REMARK    5  A    between atoms: C_24  and  C_25
REMARK                            x       y       z     vdW  Elec       q    Type
REMARK                         _______ _______ _______ _____ _____    ______ ____
ROOT
ATOM      8  C   UNL     1      -1.650   0.139  24.249  0.00  0.00    +0.249 C 
ATOM      9  O   UNL     1      -0.850  -0.123  24.067  0.00  0.00    -0.270 OA
ATOM     10  N   UNL     1      -2.144  -0.518  24.531  0.00  0.00    -0.276 N 
ATOM     11  C   UNL     1      -2.259  -1.321  24.730  0.00  0.00    +0.096 C 
ATOM     12  C   UNL     1      -3.208  -1.288  25.004  0.00  0.00    +0.043 C 
ATOM     13  C   UNL     1      -3.970  -1.428  25.258  0.00  0.00    +0.011 C 
ATOM     14  C   UNL     1      -3.590  -0.882  25.033  0.00  0.00    +0.058 C 
ATOM     15  C   UNL     1      -2.672  -0.930  24.772  0.00  0.00    +0.099 C 
ATOM     16  C   UNL     1      -3.652   0.019  24.865  0.00  0.00    +0.041 A 
ATOM     17  C   UNL     1      -4.193   0.641  24.897  0.00  0.00    +0.014 A 
ATOM     18  C   UNL     1      -3.962   1.400  24.672  0.00  0.00    +0.024 A 
ATOM     19  C   UNL     1      -3.190   1.538  24.416  0.00  0.00    +0.147 A 
ATOM     31  C   UNL     1      -2.649   0.916  24.384  0.00  0.00    +0.277 A 
ATOM     32  O   UNL     1      -2.250   1.641  24.117  0.00  0.00    -0.266 OA
ATOM     33  N   UNL     1      -2.879   0.157  24.609  0.00  0.00    -0.298 N 
ATOM     34  C   UNL     1      -3.263  -0.346  24.826  0.00  0.00    +0.110 C 
ENDROOT
BRANCH   8   5
ATOM      1  F   UNL     1      -3.809   3.312  23.745  0.00  0.00    -0.204 F 
ATOM      2  C   UNL     1      -3.274   2.521  24.164  0.00  0.00    +0.140 A 
ATOM      3  C   UNL     1      -2.959   2.048  24.863  0.00  0.00    +0.030 A 
ATOM      4  C   UNL     1      -2.432   1.275  24.916  0.00  0.00    +0.007 A 
ATOM      5  C   UNL     1      -2.157   0.883  24.246  0.00  0.00    +0.054 A 
ATOM      6  C   UNL     1      -2.343   1.168  23.494  0.00  0.00    +0.007 A 
ATOM      7  C   UNL     1      -2.806   1.847  23.414  0.00  0.00    +0.030 A 
ENDBRANCH   8   5
BRANCH  19  20
ATOM     20  N   UNL     1      -2.871   2.298  24.164  0.00  0.00    -0.095 NA
BRANCH  20  21
ATOM     21  S   UNL     1      -2.833   2.911  25.001  0.00  0.00    +0.078 S 
ATOM     22  O   UNL     1      -2.232   2.919  25.725  0.00  0.00    -0.153 OA
ATOM     23  O   UNL     1      -3.604   3.198  24.455  0.00  0.00    -0.153 OA
BRANCH  21  24
ATOM     24  C   UNL     1      -2.836   3.477  25.728  0.00  0.00    +0.201 C 
BRANCH  24  25
ATOM     25  C   UNL     1      -2.194   3.977  25.484  0.00  0.00    +0.003 A 
ATOM     26  C   UNL     1      -1.409   3.760  25.618  0.00  0.00    -0.003 A 
ATOM     27  C   UNL     1      -0.798   4.257  25.375  0.00  0.00    -0.000 A 
ATOM     28  C   UNL     1      -0.971   4.970  24.999  0.00  0.00    -0.000 A 
ATOM     29  C   UNL     1      -1.756   5.187  24.865  0.00  0.00    -0.000 A 
ATOM     30  C   UNL     1      -2.367   4.690  25.108  0.00  0.00    -0.003 A 
ENDBRANCH  24  25
ENDBRANCH  21  24
ENDBRANCH  20  21
ENDBRANCH  19  20
TORSDOF 5
ENDMDL
