MODEL 1
REMARK VINA RESULT:      -9.8      0.000      0.000
REMARK  Name = 
REMARK  4 active torsions:
REMARK  status: ('A' for Active; 'I' for Inactive)
REMARK    1  A    between atoms: C_3  and  C_9
REMARK    2  A    between atoms: C_9  and  C_11
REMARK    3  A    between atoms: C_14  and  N_15
REMARK    4  A    between atoms: C_16  and  C_18
REMARK                            x       y       z     vdW  Elec       q    Type
REMARK                         _______ _______ _______ _____ _____    ______ ____
ROOT
ATOM     11  C   UNL     1      -3.893   0.465  24.464  0.00  0.00    +0.010 A 
ATOM     12  C   UNL     1      -3.218   0.584  24.004  0.00  0.00    -0.000 A 
ATOM     13  C   UNL     1      -2.842   1.318  24.004  0.00  0.00    +0.016 A 
ATOM     14  C   UNL     1      -3.141   1.935  24.465  0.00  0.00    +0.074 A 
ATOM     24  C   UNL     1      -3.815   1.816  24.924  0.00  0.00    +0.016 A 
ATOM     25  C   UNL     1      -4.192   1.082  24.925  0.00  0.00    -0.000 A 
ENDROOT
BRANCH  14  15
ATOM     15  N   UNL     1      -2.765   2.669  24.464  0.00  0.00    -0.174 NA
ATOM     16  C   UNL     1      -2.156   2.821  24.999  0.00  0.00    +0.288 C 
ATOM     17  O   UNL     1      -1.923   2.239  25.536  0.00  0.00    -0.266 OA
BRANCH  16  18
ATOM     18  C   UNL     1      -1.780   3.556  24.999  0.00  0.00    +0.156 A 
ATOM     19  C   UNL     1      -2.156   4.213  25.326  0.00  0.00    +0.123 A 
ATOM     20  N   UNL     1      -1.779   4.947  25.326  0.00  0.00    -0.239 NA
ATOM     21  C   UNL     1      -1.026   5.024  24.997  0.00  0.00    +0.120 A 
ATOM     22  C   UNL     1      -0.650   4.366  24.669  0.00  0.00    +0.120 A 
ATOM     23  N   UNL     1      -1.027   3.633  24.670  0.00  0.00    -0.236 NA
ENDBRANCH  16  18
ENDBRANCH  14  15
BRANCH  11   9
ATOM      9  C   UNL     1      -4.268  -0.269  24.464  0.00  0.00    +0.195 C 
ATOM     10  O   UNL     1      -4.982  -0.367  24.062  0.00  0.00    -0.216 OA
BRANCH   9   3
ATOM      1  C   UNL     1      -4.173  -1.747  23.738  0.00  0.00    +0.115 C 
ATOM      2  N   UNL     1      -3.883  -1.644  24.504  0.00  0.00    -0.272 N 
ATOM      3  C   UNL     1      -3.931  -0.906  24.867  0.00  0.00    +0.139 C 
ATOM      4  C   UNL     1      -3.642  -0.802  25.633  0.00  0.00    +0.165 C 
ATOM      5  O   UNL     1      -3.305  -1.438  26.036  0.00  0.00    -0.343 OA
ATOM      6  C   UNL     1      -3.257  -2.178  25.673  0.00  0.00    +0.227 C 
ATOM      7  C   UNL     1      -3.547  -2.281  24.906  0.00  0.00    +0.256 C 
ATOM      8  O   UNL     1      -3.499  -3.020  24.544  0.00  0.00    -0.272 OA
ENDBRANCH   9   3
ENDBRANCH  11   9
TORSDOF 4
ENDMDL
MODEL 2
REMARK VINA RESULT:      -9.5      1.358      5.112
REMARK  Name = 
REMARK  4 active torsions:
REMARK  status: ('A' for Active; 'I' for Inactive)
REMARK    1  A    between atoms: C_3  and  C_9
REMARK    2  A    between atoms: C_9  and  C_11
REMARK    3  A    between atoms: C_14  and  N_15
REMARK    4  A    between atoms: C_16  and  C_18
REMARK                            x       y       z     vdW  Elec       q    Type
REMARK                         _______ _______ _______ _____ _____    ______ ____
ROOT
ATOM     11  C   UNL     1      -3.703   2.158  24.208  0.00  0.00    +0.010 A 
ATOM     12  C   UNL     1      -3.215   1.788  23.655  0.00  0.00    -0.000 A 
ATOM     13  C   UNL     1      -3.219   0.966  23.587  0.00  0.00    +0.016 A 
ATOM     14  C   UNL     1      -3.711   0.514  24.072  0.00  0.00    +0.074 A 
ATOM     24  C   UNL     1      -4.198   0.884  24.625  0.00  0.00    +0.016 A 
ATOM     25  C   UNL     1      -4.195   1.706  24.693  0.00  0.00    -0.000 A 
ENDROOT
BRANCH  14  15
ATOM     15  N   UNL     1      -3.714  -0.309  24.004  0.00  0.00    -0.174 NA
ATOM     16  C   UNL     1      -3.271  -0.769  24.525  0.00  0.00    +0.288 C 
ATOM     17  O   UNL     1      -2.823  -0.406  25.117  0.00  0.00    -0.266 OA
BRANCH  16  18
ATOM     18  C   UNL     1      -3.274  -1.591  24.456  0.00  0.00    +0.156 A 
ATOM     19  C   UNL     1      -2.577  -2.017  24.567  0.00  0.00    +0.123 A 
ATOM     20  N   UNL     1      -2.580  -2.840  24.499  0.00  0.00    -0.239 NA
ATOM     21  C   UNL     1      -3.281  -3.235  24.318  0.00  0.00    +0.120 A 
ATOM     22  C   UNL     1      -3.979  -2.808  24.207  0.00  0.00    +0.120 A 
ATOM     23  N   UNL     1      -3.975  -1.986  24.276  0.00  0.00    -0.236 NA
ENDBRANCH  16  18
ENDBRANCH  14  15
BRANCH  11   9
ATOM      9  C   UNL     1      -3.699   2.980  24.277  0.00  0.00    +0.195 C 
ATOM     10  O   UNL     1      -4.245   3.431  23.853  0.00  0.00    -0.216 OA
BRANCH   9   3
ATOM      1  C   UNL     1      -4.214   3.852  25.580  0.00  0.00    +0.115 C 
ATOM      2  N   UNL     1      -3.407   3.787  25.419  0.00  0.00    -0.272 N 
ATOM      3  C   UNL     1      -3.150   3.352  24.768  0.00  0.00    +0.139 C 
ATOM      4  C   UNL     1      -2.343   3.287  24.607  0.00  0.00    +0.165 C 
ATOM      5  O   UNL     1      -1.794   3.658  25.098  0.00  0.00    -0.343 OA
ATOM      6  C   UNL     1      -2.051   4.094  25.750  0.00  0.00    +0.227 C 
ATOM      7  C   UNL     1      -2.859   4.159  25.911  0.00  0.00    +0.256 C 
ATOM      8  O   UNL     1      -3.116   4.594  26.562  0.00  0.00    -0.272 OA
ENDBRANCH   9   3
ENDBRANCH  11   9
TORSDOF 4
ENDMDL
MODEL 3
REMARK VINA RESULT:      -9.2      1.434      5.399
REMARK  Name = 
REMARK  4 active torsions:
REMARK  status: ('A' for Active; 'I' for Inactive)
REMARK    1  A    between atoms: C_3  and  C_9
REMARK    2  A    between atoms: C_9  and  C_11
REMARK    3  A    between atoms: C_14  and  N_15
REMARK    4  A    between atoms: C_16  and  C_18
REMARK                            x       y       z     vdW  Elec       q    Type
REMARK                         _______ _______ _______ _____ _____    ______ ____
ROOT
ATOM     11  C   UNL     1      -1.130   1.865  25.042  0.00  0.00    +0.010 A 
ATOM     12  C   UNL     1      -1.501   1.761  24.312  0.00  0.00    -0.000 A 
ATOM     13  C   UNL     1      -1.851   1.038  24.126  0.00  0.00    +0.016 A 
ATOM     14  C   UNL     1      -1.829   0.417  24.670  0.00  0.00    +0.074 A 
ATOM     24  C   UNL     1      -1.458   0.520  25.398  0.00  0.00    +0.016 A 
ATOM     25  C   UNL     1      -1.108   1.243  25.585  0.00  0.00    -0.000 A 
ENDROOT
BRANCH  14  15
ATOM     15  N   UNL     1      -2.179  -0.307  24.483  0.00  0.00    -0.174 NA
ATOM     16  C   UNL     1      -2.957  -0.460  24.708  0.00  0.00    +0.288 C 
ATOM     17  O   UNL     1      -3.387   0.112  25.122  0.00  0.00    -0.266 OA
BRANCH  16  18
ATOM     18  C   UNL     1      -3.307  -1.183  24.521  0.00  0.00    +0.156 A 
ATOM     19  C   UNL     1      -3.949  -1.210  24.005  0.00  0.00    +0.123 A 
ATOM     20  N   UNL     1      -4.299  -1.934  23.818  0.00  0.00    -0.239 NA
ATOM     21  C   UNL     1      -4.006  -2.631  24.148  0.00  0.00    +0.120 A 
ATOM     22  C   UNL     1      -3.363  -2.604  24.665  0.00  0.00    +0.120 A 
ATOM     23  N   UNL     1      -3.014  -1.880  24.851  0.00  0.00    -0.236 NA
ENDBRANCH  16  18
ENDBRANCH  14  15
BRANCH  11   9
ATOM      9  C   UNL     1      -0.780   2.588  25.228  0.00  0.00    +0.195 C 
ATOM     10  O   UNL     1       0.042   2.658  25.240  0.00  0.00    -0.216 OA
BRANCH   9   3
ATOM      1  C   UNL     1      -0.422   4.062  24.579  0.00  0.00    +0.115 C 
ATOM      2  N   UNL     1      -1.073   3.979  25.079  0.00  0.00    -0.272 N 
ATOM      3  C   UNL     1      -1.252   3.242  25.403  0.00  0.00    +0.139 C 
ATOM      4  C   UNL     1      -1.904   3.158  25.904  0.00  0.00    +0.165 C 
ATOM      5  O   UNL     1      -2.375   3.812  26.079  0.00  0.00    -0.343 OA
ATOM      6  C   UNL     1      -2.196   4.549  25.755  0.00  0.00    +0.227 C 
ATOM      7  C   UNL     1      -1.545   4.633  25.254  0.00  0.00    +0.256 C 
ATOM      8  O   UNL     1      -1.366   5.369  24.930  0.00  0.00    -0.272 OA
ENDBRANCH   9   3
ENDBRANCH  11   9
TORSDOF 4
ENDMDL
MODEL 4
REMARK VINA RESULT:      -9.1      1.474      1.894
REMARK  Name = 
REMARK  4 active torsions:
REMARK  status: ('A' for Active; 'I' for Inactive)
REMARK    1  A    between atoms: C_3  and  C_9
REMARK    2  A    between atoms: C_9  and  C_11
REMARK    3  A    between atoms: C_14  and  N_15
REMARK    4  A    between atoms: C_16  and  C_18
REMARK                            x       y       z     vdW  Elec       q    Type
REMARK                         _______ _______ _______ _____ _____    ______ ____
ROOT
ATOM     11  C   UNL     1      -1.251  -0.206  25.089  0.00  0.00    +0.010 A 
ATOM     12  C   UNL     1      -1.357   0.201  24.378  0.00  0.00    -0.000 A 
ATOM     13  C   UNL     1      -1.251   1.018  24.350  0.00  0.00    +0.016 A 
ATOM     14  C   UNL     1      -1.040   1.430  25.034  0.00  0.00    +0.074 A 
ATOM     24  C   UNL     1      -0.934   1.025  25.744  0.00  0.00    +0.016 A 
ATOM     25  C   UNL     1      -1.040   0.207  25.772  0.00  0.00    -0.000 A 
ENDROOT
BRANCH  14  15
ATOM     15  N   UNL     1      -0.934   2.248  25.006  0.00  0.00    -0.174 NA
ATOM     16  C   UNL     1      -1.573   2.752  25.141  0.00  0.00    +0.288 C 
ATOM     17  O   UNL     1      -2.319   2.438  25.305  0.00  0.00    -0.266 OA
BRANCH  16  18
ATOM     18  C   UNL     1      -1.467   3.570  25.113  0.00  0.00    +0.156 A 
ATOM     19  C   UNL     1      -2.051   4.072  25.406  0.00  0.00    +0.123 A 
ATOM     20  N   UNL     1      -1.946   4.890  25.378  0.00  0.00    -0.239 NA
ATOM     21  C   UNL     1      -1.255   5.205  25.056  0.00  0.00    +0.120 A 
ATOM     22  C   UNL     1      -0.669   4.703  24.762  0.00  0.00    +0.120 A 
ATOM     23  N   UNL     1      -0.776   3.885  24.791  0.00  0.00    -0.236 NA
ENDBRANCH  16  18
ENDBRANCH  14  15
BRANCH  11   9
ATOM      9  C   UNL     1      -1.357  -1.023  25.116  0.00  0.00    +0.195 C 
ATOM     10  O   UNL     1      -0.703  -1.524  25.085  0.00  0.00    -0.216 OA
BRANCH   9   3
ATOM      1  C   UNL     1      -1.779  -2.333  24.206  0.00  0.00    +0.115 C 
ATOM      2  N   UNL     1      -2.327  -1.994  24.721  0.00  0.00    -0.272 N 
ATOM      3  C   UNL     1      -2.116  -1.340  25.176  0.00  0.00    +0.139 C 
ATOM      4  C   UNL     1      -2.666  -1.000  25.691  0.00  0.00    +0.165 C 
ATOM      5  O   UNL     1      -3.425  -1.317  25.750  0.00  0.00    -0.343 OA
ATOM      6  C   UNL     1      -3.636  -1.972  25.296  0.00  0.00    +0.227 C 
ATOM      7  C   UNL     1      -3.087  -2.311  24.780  0.00  0.00    +0.256 C 
ATOM      8  O   UNL     1      -3.298  -2.966  24.326  0.00  0.00    -0.272 OA
ENDBRANCH   9   3
ENDBRANCH  11   9
TORSDOF 4
ENDMDL
MODEL 5
REMARK VINA RESULT:      -8.9      2.662      4.095
REMARK  Name = 
REMARK  4 active torsions:
REMARK  status: ('A' for Active; 'I' for Inactive)
REMARK    1  A    between atoms: C_3  and  C_9
REMARK    2  A    between atoms: C_9  and  C_11
REMARK    3  A    between atoms: C_14  and  N_15
REMARK    4  A    between atoms: C_16  and  C_18
REMARK                            x       y       z     vdW  Elec       q    Type
REMARK                         _______ _______ _______ _____ _____    ______ ____
ROOT
ATOM     11  C   UNL     1      -3.314   2.764  24.222  0.00  0.00    +0.010 A 
ATOM     12  C   UNL     1      -3.216   2.396  23.490  0.00  0.00    -0.000 A 
ATOM     13  C   UNL     1      -2.520   1.987  23.324  0.00  0.00    +0.016 A 
ATOM     14  C   UNL     1      -1.920   1.945  23.890  0.00  0.00    +0.074 A 
ATOM     24  C   UNL     1      -2.017   2.313  24.621  0.00  0.00    +0.016 A 
ATOM     25  C   UNL     1      -2.714   2.723  24.788  0.00  0.00    -0.000 A 
ENDROOT
BRANCH  14  15
ATOM     15  N   UNL     1      -1.223   1.536  23.723  0.00  0.00    -0.174 NA
ATOM     16  C   UNL     1      -1.147   0.745  23.942  0.00  0.00    +0.288 C 
ATOM     17  O   UNL     1      -1.768   0.362  24.329  0.00  0.00    -0.266 OA
BRANCH  16  18
ATOM     18  C   UNL     1      -0.450   0.335  23.775  0.00  0.00    +0.156 A 
ATOM     19  C   UNL     1      -0.321  -0.411  24.102  0.00  0.00    +0.123 A 
ATOM     20  N   UNL     1       0.375  -0.820  23.934  0.00  0.00    -0.239 NA
ATOM     21  C   UNL     1       0.943  -0.483  23.439  0.00  0.00    +0.120 A 
ATOM     22  C   UNL     1       0.814   0.263  23.112  0.00  0.00    +0.120 A 
ATOM     23  N   UNL     1       0.117   0.672  23.280  0.00  0.00    -0.236 NA
ENDBRANCH  16  18
ENDBRANCH  14  15
BRANCH  11   9
ATOM      9  C   UNL     1      -4.010   3.173  24.389  0.00  0.00    +0.195 C 
ATOM     10  O   UNL     1      -4.074   3.973  24.198  0.00  0.00    -0.216 OA
BRANCH   9   3
ATOM      1  C   UNL     1      -4.664   3.766  25.783  0.00  0.00    +0.115 C 
ATOM      2  N   UNL     1      -4.970   3.079  25.443  0.00  0.00    -0.272 N 
ATOM      3  C   UNL     1      -4.643   2.783  24.746  0.00  0.00    +0.139 C 
ATOM      4  C   UNL     1      -4.950   2.096  24.406  0.00  0.00    +0.165 C 
ATOM      5  O   UNL     1      -5.582   1.706  24.763  0.00  0.00    -0.343 OA
ATOM      6  C   UNL     1      -5.910   2.002  25.460  0.00  0.00    +0.227 C 
ATOM      7  C   UNL     1      -5.603   2.690  25.801  0.00  0.00    +0.256 C 
ATOM      8  O   UNL     1      -5.930   2.985  26.497  0.00  0.00    -0.272 OA
ENDBRANCH   9   3
ENDBRANCH  11   9
TORSDOF 4
ENDMDL
