MODEL 1
REMARK VINA RESULT:     -12.9      0.000      0.000
REMARK  Name = 
REMARK  7 active torsions:
REMARK  status: ('A' for Active; 'I' for Inactive)
REMARK    1  A    between atoms: C_2  and  C_4
REMARK    2  A    between atoms: C_4  and  O_5
REMARK    3  A    between atoms: O_5  and  C_6
REMARK    4  A    between atoms: C_6  and  C_7
REMARK    5  A    between atoms: N_16  and  C_27
REMARK    6  A    between atoms: N_19  and  C_20
REMARK    7  A    between atoms: C_20  and  C_21
REMARK                            x       y       z     vdW  Elec       q    Type
REMARK                         _______ _______ _______ _____ _____    ______ ____
ROOT
ATOM      7  C   UNL     1      -0.002   0.302  23.814  0.00  0.00    +0.256 C 
ATOM      8  O   UNL     1      -0.119   1.087  23.589  0.00  0.00    -0.272 OA
ATOM      9  N   UNL     1      -0.609  -0.116  24.182  0.00  0.00    -0.270 N 
ATOM     10  C   UNL     1      -0.572  -0.901  24.436  0.00  0.00    +0.096 C 
ATOM     11  C   UNL     1      -1.301  -1.094  24.772  0.00  0.00    +0.044 C 
ATOM     12  C   UNL     1      -1.787  -0.430  24.725  0.00  0.00    +0.106 C 
ATOM     13  C   UNL     1      -1.360   0.174  24.360  0.00  0.00    +0.171 C 
ATOM     14  C   UNL     1      -1.710   0.911  24.238  0.00  0.00    +0.256 C 
ATOM     15  O   UNL     1      -1.283   1.515  23.873  0.00  0.00    -0.272 OA
ATOM     16  N   UNL     1      -2.487   1.045  24.480  0.00  0.00    -0.191 N 
ATOM     17  C   UNL     1      -2.915   0.440  24.845  0.00  0.00    +0.317 C 
ATOM     18  O   UNL     1      -3.692   0.573  25.088  0.00  0.00    -0.252 OA
ATOM     19  N   UNL     1      -2.565  -0.297  24.967  0.00  0.00    -0.259 N 
ENDROOT
BRANCH  16  27
ATOM     27  C   UNL     1      -2.837   1.781  24.358  0.00  0.00    +0.063 A 
ATOM     28  C   UNL     1      -2.799   2.358  24.946  0.00  0.00    +0.029 A 
ATOM     29  C   UNL     1      -3.150   3.096  24.824  0.00  0.00    +0.086 A 
ATOM     30 CL   UNL     1      -3.112   3.673  25.412  0.00  0.00    -0.080 Cl
ATOM     31  C   UNL     1      -3.538   3.255  24.114  0.00  0.00    +0.151 A 
ATOM     32  F   UNL     1      -3.888   3.992  23.992  0.00  0.00    -0.203 F 
ATOM     33  C   UNL     1      -3.576   2.678  23.526  0.00  0.00    +0.032 A 
ATOM     34  C   UNL     1      -3.226   1.941  23.648  0.00  0.00    +0.018 A 
ENDBRANCH  16  27
BRANCH   7   6
ATOM      6  C   UNL     1       0.724  -0.063  23.670  0.00  0.00    +0.228 C 
BRANCH   6   5
ATOM      5  O   UNL     1       1.235   0.244  23.100  0.00  0.00    -0.333 OA
BRANCH   5   4
ATOM      4  C   UNL     1       1.937  -0.150  22.919  0.00  0.00    +0.257 C 
BRANCH   4   2
ATOM      1  O   UNL     1       2.422  -0.005  21.583  0.00  0.00    -0.243 OA
ATOM      2  C   UNL     1       2.471   0.181  22.385  0.00  0.00    +0.394 C 
ATOM      3  O   UNL     1       3.054   0.700  22.653  0.00  0.00    -0.243 OA
ENDBRANCH   4   2
ENDBRANCH   5   4
ENDBRANCH   6   5
ENDBRANCH   7   6
BRANCH  19  20
ATOM     20  C   UNL     1      -2.992  -0.901  25.332  0.00  0.00    +0.122 C 
BRANCH  20  21
ATOM     21  C   UNL     1      -3.405  -1.449  24.874  0.00  0.00    -0.002 A 
ATOM     22  C   UNL     1      -3.231  -2.253  24.938  0.00  0.00    -0.003 A 
ATOM     23  C   UNL     1      -3.643  -2.802  24.480  0.00  0.00    -0.000 A 
ATOM     24  C   UNL     1      -4.229  -2.547  23.959  0.00  0.00    -0.000 A 
ATOM     25  C   UNL     1      -4.403  -1.743  23.896  0.00  0.00    -0.000 A 
ATOM     26  C   UNL     1      -3.991  -1.194  24.353  0.00  0.00    -0.003 A 
ENDBRANCH  20  21
ENDBRANCH  19  20
TORSDOF 7
ENDMDL
MODEL 2
REMARK VINA RESULT:     -12.0      1.883      3.495
REMARK  Name = 
REMARK  7 active torsions:
REMARK  status: ('A' for Active; 'I' for Inactive)
REMARK    1  A    between atoms: C_2  and  C_4
REMARK    2  A    between atoms: C_4  and  O_5
REMARK    3  A    between atoms: O_5  and  C_6
REMARK    4  A    between atoms: C_6  and  C_7
REMARK    5  A    between atoms: N_16  and  C_27
REMARK    6  A    between atoms: N_19  and  C_20
REMARK    7  A    between atoms: C_20  and  C_21
REMARK                            x       y       z     vdW  Elec       q    Type
REMARK                         _______ _______ _______ _____ _____    ______ ____
ROOT
ATOM      7  C   UNL     1      -0.175   0.489  23.744  0.00  0.00    +0.256 C 
ATOM      8  O   UNL     1      -0.213  -0.274  24.055  0.00  0.00    -0.272 OA
ATOM      9  N   UNL     1      -0.859   0.945  23.685  0.00  0.00    -0.270 N 
ATOM     10  C   UNL     1      -0.906   1.713  23.387  0.00  0.00    +0.096 C 
ATOM     11  C   UNL     1      -1.693   1.956  23.430  0.00  0.00    +0.044 C 
ATOM     12  C   UNL     1      -2.133   1.339  23.755  0.00  0.00    +0.106 C 
ATOM     13  C   UNL     1      -1.618   0.714  23.912  0.00  0.00    +0.171 C 
ATOM     14  C   UNL     1      -1.906   0.014  24.242  0.00  0.00    +0.256 C 
ATOM     15  O   UNL     1      -1.391  -0.611  24.399  0.00  0.00    -0.272 OA
ATOM     16  N   UNL     1      -2.709  -0.060  24.414  0.00  0.00    -0.191 N 
ATOM     17  C   UNL     1      -3.224   0.566  24.257  0.00  0.00    +0.317 C 
ATOM     18  O   UNL     1      -4.028   0.491  24.430  0.00  0.00    -0.252 OA
ATOM     19  N   UNL     1      -2.936   1.264  23.927  0.00  0.00    -0.259 N 
ENDROOT
BRANCH  16  27
ATOM     27  C   UNL     1      -2.998  -0.759  24.744  0.00  0.00    +0.063 A 
ATOM     28  C   UNL     1      -3.283  -1.358  24.254  0.00  0.00    +0.029 A 
ATOM     29  C   UNL     1      -3.572  -2.058  24.584  0.00  0.00    +0.086 A 
ATOM     30 CL   UNL     1      -3.857  -2.658  24.094  0.00  0.00    -0.080 Cl
ATOM     31  C   UNL     1      -3.574  -2.157  25.403  0.00  0.00    +0.151 A 
ATOM     32  F   UNL     1      -3.863  -2.857  25.732  0.00  0.00    -0.203 F 
ATOM     33  C   UNL     1      -3.289  -1.557  25.892  0.00  0.00    +0.032 A 
ATOM     34  C   UNL     1      -3.001  -0.859  25.563  0.00  0.00    +0.018 A 
ENDBRANCH  16  27
BRANCH   7   6
ATOM      6  C   UNL     1       0.549   0.795  23.493  0.00  0.00    +0.228 C 
BRANCH   6   5
ATOM      5  O   UNL     1       1.132   0.291  23.201  0.00  0.00    -0.333 OA
BRANCH   5   4
ATOM      4  C   UNL     1       1.872   0.591  22.993  0.00  0.00    +0.257 C 
BRANCH   4   2
ATOM      1  O   UNL     1       3.076  -0.179  22.949  0.00  0.00    -0.243 OA
ATOM      2  C   UNL     1       2.405   0.122  22.574  0.00  0.00    +0.394 C 
ATOM      3  O   UNL     1       2.267  -0.047  21.778  0.00  0.00    -0.243 OA
ENDBRANCH   4   2
ENDBRANCH   5   4
ENDBRANCH   6   5
ENDBRANCH   7   6
BRANCH  19  20
ATOM     20  C   UNL     1      -3.451   1.889  23.770  0.00  0.00    +0.122 C 
BRANCH  20  21
ATOM     21  C   UNL     1      -3.732   2.358  24.388  0.00  0.00    -0.002 A 
ATOM     22  C   UNL     1      -4.520   2.297  24.627  0.00  0.00    -0.003 A 
ATOM     23  C   UNL     1      -4.800   2.766  25.245  0.00  0.00    -0.000 A 
ATOM     24  C   UNL     1      -4.294   3.296  25.624  0.00  0.00    -0.000 A 
ATOM     25  C   UNL     1      -3.508   3.357  25.385  0.00  0.00    -0.000 A 
ATOM     26  C   UNL     1      -3.226   2.888  24.767  0.00  0.00    -0.003 A 
ENDBRANCH  20  21
ENDBRANCH  19  20
TORSDOF 7
ENDMDL
MODEL 3
REMARK VINA RESULT:     -11.0      1.776      3.566
REMARK  Name = 
REMARK  7 active torsions:
REMARK  status: ('A' for Active; 'I' for Inactive)
REMARK    1  A    between atoms: C_2  and  C_4
REMARK    2  A    between atoms: C_4  and  O_5
REMARK    3  A    between atoms: O_5  and  C_6
REMARK    4  A    between atoms: C_6  and  C_7
REMARK    5  A    between atoms: N_16  and  C_27
REMARK    6  A    between atoms: N_19  and  C_20
REMARK    7  A    between atoms: C_20  and  C_21
REMARK                            x       y       z     vdW  Elec       q    Type
REMARK                         _______ _______ _______ _____ _____    ______ ____
ROOT
ATOM      7  C   UNL     1       0.436   0.637  23.726  0.00  0.00    +0.256 C 
ATOM      8  O   UNL     1      -0.095   0.076  23.436  0.00  0.00    -0.272 OA
ATOM      9  N   UNL     1       0.179   1.210  24.259  0.00  0.00    -0.270 N 
ATOM     10  C   UNL     1       0.643   1.804  24.595  0.00  0.00    +0.096 C 
ATOM     11  C   UNL     1       0.163   2.252  25.094  0.00  0.00    +0.044 C 
ATOM     12  C   UNL     1      -0.598   1.936  25.067  0.00  0.00    +0.106 C 
ATOM     13  C   UNL     1      -0.589   1.292  24.551  0.00  0.00    +0.171 C 
ATOM     14  C   UNL     1      -1.280   0.864  24.414  0.00  0.00    +0.256 C 
ATOM     15  O   UNL     1      -1.271   0.220  23.898  0.00  0.00    -0.272 OA
ATOM     16  N   UNL     1      -1.981   1.079  24.792  0.00  0.00    -0.191 N 
ATOM     17  C   UNL     1      -1.990   1.723  25.308  0.00  0.00    +0.317 C 
ATOM     18  O   UNL     1      -2.691   1.938  25.687  0.00  0.00    -0.252 OA
ATOM     19  N   UNL     1      -1.299   2.151  25.446  0.00  0.00    -0.259 N 
ENDROOT
BRANCH  16  27
ATOM     27  C   UNL     1      -2.673   0.650  24.655  0.00  0.00    +0.063 A 
ATOM     28  C   UNL     1      -2.871   0.019  25.148  0.00  0.00    +0.029 A 
ATOM     29  C   UNL     1      -3.563  -0.410  25.011  0.00  0.00    +0.086 A 
ATOM     30 CL   UNL     1      -3.761  -1.041  25.504  0.00  0.00    -0.080 Cl
ATOM     31  C   UNL     1      -4.055  -0.207  24.381  0.00  0.00    +0.151 A 
ATOM     32  F   UNL     1      -4.747  -0.635  24.244  0.00  0.00    -0.203 F 
ATOM     33  C   UNL     1      -3.857   0.425  23.888  0.00  0.00    +0.032 A 
ATOM     34  C   UNL     1      -3.166   0.853  24.026  0.00  0.00    +0.018 A 
ENDBRANCH  16  27
BRANCH   7   6
ATOM      6  C   UNL     1       1.224   0.623  23.482  0.00  0.00    +0.228 C 
BRANCH   6   5
ATOM      5  O   UNL     1       1.441   0.196  22.811  0.00  0.00    -0.333 OA
BRANCH   5   4
ATOM      4  C   UNL     1       2.218  -0.069  22.723  0.00  0.00    +0.257 C 
BRANCH   4   2
ATOM      1  O   UNL     1       3.348   0.455  22.023  0.00  0.00    -0.243 OA
ATOM      2  C   UNL     1       2.622   0.064  22.016  0.00  0.00    +0.394 C 
ATOM      3  O   UNL     1       2.299  -0.194  21.302  0.00  0.00    -0.243 OA
ENDBRANCH   4   2
ENDBRANCH   5   4
ENDBRANCH   6   5
ENDBRANCH   7   6
BRANCH  19  20
ATOM     20  C   UNL     1      -1.308   2.795  25.961  0.00  0.00    +0.122 C 
BRANCH  20  21
ATOM     21  C   UNL     1      -1.566   3.532  25.697  0.00  0.00    -0.002 A 
ATOM     22  C   UNL     1      -2.339   3.779  25.851  0.00  0.00    -0.003 A 
ATOM     23  C   UNL     1      -2.597   4.516  25.587  0.00  0.00    -0.000 A 
ATOM     24  C   UNL     1      -2.083   5.007  25.168  0.00  0.00    -0.000 A 
ATOM     25  C   UNL     1      -1.312   4.761  25.013  0.00  0.00    -0.000 A 
ATOM     26  C   UNL     1      -1.053   4.023  25.278  0.00  0.00    -0.003 A 
ENDBRANCH  20  21
ENDBRANCH  19  20
TORSDOF 7
ENDMDL
MODEL 4
REMARK VINA RESULT:     -10.2      2.675      4.173
REMARK  Name = 
REMARK  7 active torsions:
REMARK  status: ('A' for Active; 'I' for Inactive)
REMARK    1  A    between atoms: C_2  and  C_4
REMARK    2  A    between atoms: C_4  and  O_5
REMARK    3  A    between atoms: O_5  and  C_6
REMARK    4  A    between atoms: C_6  and  C_7
REMARK    5  A    between atoms: N_16  and  C_27
REMARK    6  A    between atoms: N_19  and  C_20
REMARK    7  A    between atoms: C_20  and  C_21
REMARK                            x       y       z     vdW  Elec       q    Type
REMARK                         _______ _______ _______ _____ _____    ______ ____
ROOT
ATOM      7  C   UNL     1      -1.065   1.438  25.255  0.00  0.00    +0.256 C 
ATOM      8  O   UNL     1      -0.914   0.646  25.432  0.00  0.00    -0.272 OA
ATOM      9  N   UNL     1      -1.812   1.667  24.994  0.00  0.00    -0.270 N 
ATOM     10  C   UNL     1      -2.044   2.434  24.797  0.00  0.00    +0.096 C 
ATOM     11  C   UNL     1      -2.835   2.410  24.564  0.00  0.00    +0.044 C 
ATOM     12  C   UNL     1      -3.093   1.629  24.617  0.00  0.00    +0.106 C 
ATOM     13  C   UNL     1      -2.461   1.169  24.883  0.00  0.00    +0.171 C 
ATOM     14  C   UNL     1      -2.558   0.357  24.989  0.00  0.00    +0.256 C 
ATOM     15  O   UNL     1      -1.927  -0.103  25.254  0.00  0.00    -0.272 OA
ATOM     16  N   UNL     1      -3.287   0.003  24.830  0.00  0.00    -0.191 N 
ATOM     17  C   UNL     1      -3.919   0.464  24.565  0.00  0.00    +0.317 C 
ATOM     18  O   UNL     1      -4.647   0.111  24.406  0.00  0.00    -0.252 OA
ATOM     19  N   UNL     1      -3.821   1.276  24.459  0.00  0.00    -0.259 N 
ENDROOT
BRANCH  16  27
ATOM     27  C   UNL     1      -3.384  -0.808  24.937  0.00  0.00    +0.063 A 
ATOM     28  C   UNL     1      -3.407  -1.310  24.282  0.00  0.00    +0.029 A 
ATOM     29  C   UNL     1      -3.504  -2.123  24.388  0.00  0.00    +0.086 A 
ATOM     30 CL   UNL     1      -3.527  -2.624  23.734  0.00  0.00    -0.080 Cl
ATOM     31  C   UNL     1      -3.578  -2.433  25.149  0.00  0.00    +0.151 A 
ATOM     32  F   UNL     1      -3.676  -3.246  25.255  0.00  0.00    -0.203 F 
ATOM     33  C   UNL     1      -3.555  -1.931  25.803  0.00  0.00    +0.032 A 
ATOM     34  C   UNL     1      -3.458  -1.119  25.697  0.00  0.00    +0.018 A 
ENDBRANCH  16  27
BRANCH   7   6
ATOM      6  C   UNL     1      -0.467   2.000  25.340  0.00  0.00    +0.228 C 
BRANCH   6   5
ATOM      5  O   UNL     1       0.049   1.960  25.982  0.00  0.00    -0.333 OA
BRANCH   5   4
ATOM      4  C   UNL     1       0.295   2.653  26.358  0.00  0.00    +0.257 C 
BRANCH   4   2
ATOM      1  O   UNL     1       0.118   2.498  27.767  0.00  0.00    -0.243 OA
ATOM      2  C   UNL     1       0.612   2.620  27.118  0.00  0.00    +0.394 C 
ATOM      3  O   UNL     1       1.425   2.708  27.230  0.00  0.00    -0.243 OA
ENDBRANCH   4   2
ENDBRANCH   5   4
ENDBRANCH   6   5
ENDBRANCH   7   6
BRANCH  19  20
ATOM     20  C   UNL     1      -4.453   1.735  24.193  0.00  0.00    +0.122 C 
BRANCH  20  21
ATOM     21  C   UNL     1      -4.995   2.044  24.734  0.00  0.00    -0.002 A 
ATOM     22  C   UNL     1      -5.640   1.590  24.976  0.00  0.00    -0.003 A 
ATOM     23  C   UNL     1      -6.181   1.898  25.516  0.00  0.00    -0.000 A 
ATOM     24  C   UNL     1      -6.079   2.661  25.814  0.00  0.00    -0.000 A 
ATOM     25  C   UNL     1      -5.434   3.114  25.572  0.00  0.00    -0.000 A 
ATOM     26  C   UNL     1      -4.892   2.806  25.032  0.00  0.00    -0.003 A 
ENDBRANCH  20  21
ENDBRANCH  19  20
TORSDOF 7
ENDMDL
MODEL 5
REMARK VINA RESULT:     -10.1      2.388      4.177
REMARK  Name = 
REMARK  7 active torsions:
REMARK  status: ('A' for Active; 'I' for Inactive)
REMARK    1  A    between atoms: C_2  and  C_4
REMARK    2  A    between atoms: C_4  and  O_5
REMARK    3  A    between atoms: O_5  and  C_6
REMARK    4  A    between atoms: C_6  and  C_7
REMARK    5  A    between atoms: N_16  and  C_27
REMARK    6  A    between atoms: N_19  and  C_20
REMARK    7  A    between atoms: C_20  and  C_21
REMARK                            x       y       z     vdW  Elec       q    Type
REMARK                         _______ _______ _______ _____ _____    ______ ____
ROOT
ATOM      7  C   UNL     1      -1.783   0.216  24.575  0.00  0.00    +0.256 C 
ATOM      8  O   UNL     1      -2.564   0.052  24.367  0.00  0.00    -0.272 OA
ATOM      9  N   UNL     1      -1.591   0.942  24.915  0.00  0.00    -0.270 N 
ATOM     10  C   UNL     1      -0.838   1.185  25.150  0.00  0.00    +0.096 C 
ATOM     11  C   UNL     1      -0.900   1.947  25.460  0.00  0.00    +0.044 C 
ATOM     12  C   UNL     1      -1.691   2.176  25.417  0.00  0.00    +0.106 C 
ATOM     13  C   UNL     1      -2.118   1.556  25.080  0.00  0.00    +0.171 C 
ATOM     14  C   UNL     1      -2.932   1.629  24.966  0.00  0.00    +0.256 C 
ATOM     15  O   UNL     1      -3.359   1.009  24.630  0.00  0.00    -0.272 OA
ATOM     16  N   UNL     1      -3.319   2.322  25.190  0.00  0.00    -0.191 N 
ATOM     17  C   UNL     1      -2.891   2.943  25.527  0.00  0.00    +0.317 C 
ATOM     18  O   UNL     1      -3.279   3.636  25.751  0.00  0.00    -0.252 OA
ATOM     19  N   UNL     1      -2.078   2.869  25.640  0.00  0.00    -0.259 N 
ENDROOT
BRANCH  16  27
ATOM     27  C   UNL     1      -4.133   2.396  25.077  0.00  0.00    +0.063 A 
ATOM     28  C   UNL     1      -4.654   2.185  25.681  0.00  0.00    +0.029 A 
ATOM     29  C   UNL     1      -5.468   2.258  25.568  0.00  0.00    +0.086 A 
ATOM     30 CL   UNL     1      -5.989   2.047  26.171  0.00  0.00    -0.080 Cl
ATOM     31  C   UNL     1      -5.760   2.543  24.851  0.00  0.00    +0.151 A 
ATOM     32  F   UNL     1      -6.575   2.617  24.738  0.00  0.00    -0.203 F 
ATOM     33  C   UNL     1      -5.239   2.754  24.247  0.00  0.00    +0.032 A 
ATOM     34  C   UNL     1      -4.426   2.681  24.360  0.00  0.00    +0.018 A 
ENDBRANCH  16  27
BRANCH   7   6
ATOM      6  C   UNL     1      -1.194  -0.346  24.442  0.00  0.00    +0.228 C 
BRANCH   6   5
ATOM      5  O   UNL     1      -1.397  -1.136  24.319  0.00  0.00    -0.333 OA
BRANCH   5   4
ATOM      4  C   UNL     1      -0.840  -1.731  24.447  0.00  0.00    +0.257 C 
BRANCH   4   2
ATOM      1  O   UNL     1      -1.493  -2.910  23.972  0.00  0.00    -0.243 OA
ATOM      2  C   UNL     1      -1.087  -2.508  24.568  0.00  0.00    +0.394 C 
ATOM      3  O   UNL     1      -0.928  -2.885  25.284  0.00  0.00    -0.243 OA
ENDBRANCH   4   2
ENDBRANCH   5   4
ENDBRANCH   6   5
ENDBRANCH   7   6
BRANCH  19  20
ATOM     20  C   UNL     1      -1.651   3.489  25.977  0.00  0.00    +0.122 C 
BRANCH  20  21
ATOM     21  C   UNL     1      -1.432   4.138  25.517  0.00  0.00    -0.002 A 
ATOM     22  C   UNL     1      -1.879   4.831  25.542  0.00  0.00    -0.003 A 
ATOM     23  C   UNL     1      -1.659   5.479  25.081  0.00  0.00    -0.000 A 
ATOM     24  C   UNL     1      -0.993   5.435  24.596  0.00  0.00    -0.000 A 
ATOM     25  C   UNL     1      -0.547   4.742  24.572  0.00  0.00    -0.000 A 
ATOM     26  C   UNL     1      -0.766   4.093  25.032  0.00  0.00    -0.003 A 
ENDBRANCH  20  21
ENDBRANCH  19  20
TORSDOF 7
ENDMDL
MODEL 6
REMARK VINA RESULT:     -10.0      2.458      5.269
REMARK  Name = 
REMARK  7 active torsions:
REMARK  status: ('A' for Active; 'I' for Inactive)
REMARK    1  A    between atoms: C_2  and  C_4
REMARK    2  A    between atoms: C_4  and  O_5
REMARK    3  A    between atoms: O_5  and  C_6
REMARK    4  A    between atoms: C_6  and  C_7
REMARK    5  A    between atoms: N_16  and  C_27
REMARK    6  A    between atoms: N_19  and  C_20
REMARK    7  A    between atoms: C_20  and  C_21
REMARK                            x       y       z     vdW  Elec       q    Type
REMARK                         _______ _______ _______ _____ _____    ______ ____
ROOT
ATOM      7  C   UNL     1      -3.838   1.877  24.920  0.00  0.00    +0.256 C 
ATOM      8  O   UNL     1      -4.412   1.287  24.876  0.00  0.00    -0.272 OA
ATOM      9  N   UNL     1      -3.040   1.674  24.952  0.00  0.00    -0.270 N 
ATOM     10  C   UNL     1      -2.406   2.201  24.997  0.00  0.00    +0.096 C 
ATOM     11  C   UNL     1      -1.709   1.760  25.018  0.00  0.00    +0.044 C 
ATOM     12  C   UNL     1      -1.911   0.962  24.985  0.00  0.00    +0.106 C 
ATOM     13  C   UNL     1      -2.733   0.908  24.945  0.00  0.00    +0.171 C 
ATOM     14  C   UNL     1      -3.097   0.168  24.906  0.00  0.00    +0.256 C 
ATOM     15  O   UNL     1      -3.919   0.115  24.866  0.00  0.00    -0.272 OA
ATOM     16  N   UNL     1      -2.638  -0.518  24.908  0.00  0.00    -0.191 N 
ATOM     17  C   UNL     1      -1.816  -0.463  24.948  0.00  0.00    +0.317 C 
ATOM     18  O   UNL     1      -1.357  -1.150  24.950  0.00  0.00    -0.252 OA
ATOM     19  N   UNL     1      -1.452   0.276  24.987  0.00  0.00    -0.259 N 
ENDROOT
BRANCH  16  27
ATOM     27  C   UNL     1      -3.002  -1.257  24.869  0.00  0.00    +0.063 A 
ATOM     28  C   UNL     1      -3.325  -1.521  24.158  0.00  0.00    +0.029 A 
ATOM     29  C   UNL     1      -3.689  -2.261  24.119  0.00  0.00    +0.086 A 
ATOM     30 CL   UNL     1      -4.012  -2.524  23.407  0.00  0.00    -0.080 Cl
ATOM     31  C   UNL     1      -3.729  -2.736  24.792  0.00  0.00    +0.151 A 
ATOM     32  F   UNL     1      -4.092  -3.476  24.753  0.00  0.00    -0.203 F 
ATOM     33  C   UNL     1      -3.405  -2.472  25.504  0.00  0.00    +0.032 A 
ATOM     34  C   UNL     1      -3.042  -1.733  25.542  0.00  0.00    +0.018 A 
ENDBRANCH  16  27
BRANCH   7   6
ATOM      6  C   UNL     1      -4.063   2.671  24.933  0.00  0.00    +0.228 C 
BRANCH   6   5
ATOM      5  O   UNL     1      -4.816   2.883  25.192  0.00  0.00    -0.333 OA
BRANCH   5   4
ATOM      4  C   UNL     1      -5.006   3.677  25.308  0.00  0.00    +0.257 C 
BRANCH   4   2
ATOM      1  O   UNL     1      -5.993   4.661  25.626  0.00  0.00    -0.243 OA
ATOM      2  C   UNL     1      -5.717   3.884  25.670  0.00  0.00    +0.394 C 
ATOM      3  O   UNL     1      -6.154   3.314  26.076  0.00  0.00    -0.243 OA
ENDBRANCH   4   2
ENDBRANCH   5   4
ENDBRANCH   6   5
ENDBRANCH   7   6
BRANCH  19  20
ATOM     20  C   UNL     1      -0.630   0.329  25.027  0.00  0.00    +0.122 C 
BRANCH  20  21
ATOM     21  C   UNL     1      -0.178   0.271  24.340  0.00  0.00    -0.002 A 
ATOM     22  C   UNL     1       0.037   0.954  23.929  0.00  0.00    -0.003 A 
ATOM     23  C   UNL     1       0.489   0.896  23.241  0.00  0.00    -0.000 A 
ATOM     24  C   UNL     1       0.726   0.156  22.964  0.00  0.00    -0.000 A 
ATOM     25  C   UNL     1       0.510  -0.526  23.374  0.00  0.00    -0.000 A 
ATOM     26  C   UNL     1       0.058  -0.469  24.062  0.00  0.00    -0.003 A 
ENDBRANCH  20  21
ENDBRANCH  19  20
TORSDOF 7
ENDMDL
MODEL 7
REMARK VINA RESULT:     -10.0      2.186      4.474
REMARK  Name = 
REMARK  7 active torsions:
REMARK  status: ('A' for Active; 'I' for Inactive)
REMARK    1  A    between atoms: C_2  and  C_4
REMARK    2  A    between atoms: C_4  and  O_5
REMARK    3  A    between atoms: O_5  and  C_6
REMARK    4  A    between atoms: C_6  and  C_7
REMARK    5  A    between atoms: N_16  and  C_27
REMARK    6  A    between atoms: N_19  and  C_20
REMARK    7  A    between atoms: C_20  and  C_21
REMARK                            x       y       z     vdW  Elec       q    Type
REMARK                         _______ _______ _______ _____ _____    ______ ____
ROOT
ATOM      7  C   UNL     1      -4.126   1.775  24.615  0.00  0.00    +0.256 C 
ATOM      8  O   UNL     1      -3.541   2.297  24.357  0.00  0.00    -0.272 OA
ATOM      9  N   UNL     1      -3.920   1.022  24.879  0.00  0.00    -0.270 N 
ATOM     10  C   UNL     1      -4.441   0.443  25.152  0.00  0.00    +0.096 C 
ATOM     11  C   UNL     1      -3.999  -0.222  25.358  0.00  0.00    +0.044 C 
ATOM     12  C   UNL     1      -3.205  -0.055  25.213  0.00  0.00    +0.106 C 
ATOM     13  C   UNL     1      -3.156   0.713  24.916  0.00  0.00    +0.171 C 
ATOM     14  C   UNL     1      -2.421   1.033  24.719  0.00  0.00    +0.256 C 
ATOM     15  O   UNL     1      -2.372   1.802  24.423  0.00  0.00    -0.272 OA
ATOM     16  N   UNL     1      -1.735   0.585  24.818  0.00  0.00    -0.191 N 
ATOM     17  C   UNL     1      -1.785  -0.184  25.114  0.00  0.00    +0.317 C 
ATOM     18  O   UNL     1      -1.100  -0.632  25.213  0.00  0.00    -0.252 OA
ATOM     19  N   UNL     1      -2.519  -0.503  25.311  0.00  0.00    -0.259 N 
ENDROOT
BRANCH  16  27
ATOM     27  C   UNL     1      -1.001   0.904  24.620  0.00  0.00    +0.063 A 
ATOM     28  C   UNL     1      -0.610   1.398  25.153  0.00  0.00    +0.029 A 
ATOM     29  C   UNL     1       0.125   1.718  24.956  0.00  0.00    +0.086 A 
ATOM     30 CL   UNL     1       0.516   2.211  25.488  0.00  0.00    -0.080 Cl
ATOM     31  C   UNL     1       0.468   1.544  24.226  0.00  0.00    +0.151 A 
ATOM     32  F   UNL     1       1.202   1.863  24.029  0.00  0.00    -0.203 F 
ATOM     33  C   UNL     1       0.076   1.050  23.693  0.00  0.00    +0.032 A 
ATOM     34  C   UNL     1      -0.658   0.731  23.890  0.00  0.00    +0.018 A 
ENDBRANCH  16  27
BRANCH   7   6
ATOM      6  C   UNL     1      -4.918   2.009  24.609  0.00  0.00    +0.228 C 
BRANCH   6   5
ATOM      5  O   UNL     1      -5.127   2.768  24.854  0.00  0.00    -0.333 OA
BRANCH   5   4
ATOM      4  C   UNL     1      -5.880   2.911  25.159  0.00  0.00    +0.257 C 
BRANCH   4   2
ATOM      1  O   UNL     1      -5.996   4.259  25.618  0.00  0.00    -0.243 OA
ATOM      2  C   UNL     1      -5.980   3.449  25.775  0.00  0.00    +0.394 C 
ATOM      3  O   UNL     1      -6.066   3.178  26.549  0.00  0.00    -0.243 OA
ENDBRANCH   4   2
ENDBRANCH   5   4
ENDBRANCH   6   5
ENDBRANCH   7   6
BRANCH  19  20
ATOM     20  C   UNL     1      -2.568  -1.272  25.608  0.00  0.00    +0.122 C 
BRANCH  20  21
ATOM     21  C   UNL     1      -2.663  -1.908  25.091  0.00  0.00    -0.002 A 
ATOM     22  C   UNL     1      -2.010  -2.212  24.688  0.00  0.00    -0.003 A 
ATOM     23  C   UNL     1      -2.104  -2.848  24.171  0.00  0.00    -0.000 A 
ATOM     24  C   UNL     1      -2.851  -3.181  24.058  0.00  0.00    -0.000 A 
ATOM     25  C   UNL     1      -3.502  -2.877  24.462  0.00  0.00    -0.000 A 
ATOM     26  C   UNL     1      -3.409  -2.241  24.978  0.00  0.00    -0.003 A 
ENDBRANCH  20  21
ENDBRANCH  19  20
TORSDOF 7
ENDMDL
MODEL 8
REMARK VINA RESULT:      -9.9      2.277      3.489
REMARK  Name = 
REMARK  7 active torsions:
REMARK  status: ('A' for Active; 'I' for Inactive)
REMARK    1  A    between atoms: C_2  and  C_4
REMARK    2  A    between atoms: C_4  and  O_5
REMARK    3  A    between atoms: O_5  and  C_6
REMARK    4  A    between atoms: C_6  and  C_7
REMARK    5  A    between atoms: N_16  and  C_27
REMARK    6  A    between atoms: N_19  and  C_20
REMARK    7  A    between atoms: C_20  and  C_21
REMARK                            x       y       z     vdW  Elec       q    Type
REMARK                         _______ _______ _______ _____ _____    ______ ____
ROOT
ATOM      7  C   UNL     1      -1.634   0.344  24.506  0.00  0.00    +0.256 C 
ATOM      8  O   UNL     1      -0.989   0.820  24.700  0.00  0.00    -0.272 OA
ATOM      9  N   UNL     1      -2.374   0.686  24.378  0.00  0.00    -0.270 N 
ATOM     10  C   UNL     1      -3.067   0.283  24.182  0.00  0.00    +0.096 C 
ATOM     11  C   UNL     1      -3.672   0.839  24.105  0.00  0.00    +0.044 C 
ATOM     12  C   UNL     1      -3.353   1.584  24.254  0.00  0.00    +0.106 C 
ATOM     13  C   UNL     1      -2.551   1.490  24.422  0.00  0.00    +0.171 C 
ATOM     14  C   UNL     1      -2.085   2.149  24.594  0.00  0.00    +0.256 C 
ATOM     15  O   UNL     1      -1.283   2.055  24.763  0.00  0.00    -0.272 OA
ATOM     16  N   UNL     1      -2.421   2.903  24.598  0.00  0.00    -0.191 N 
ATOM     17  C   UNL     1      -3.224   2.997  24.430  0.00  0.00    +0.317 C 
ATOM     18  O   UNL     1      -3.560   3.750  24.433  0.00  0.00    -0.252 OA
ATOM     19  N   UNL     1      -3.689   2.338  24.258  0.00  0.00    -0.259 N 
ENDROOT
BRANCH  16  27
ATOM     27  C   UNL     1      -1.956   3.562  24.770  0.00  0.00    +0.063 A 
ATOM     28  C   UNL     1      -1.426   3.850  24.208  0.00  0.00    +0.029 A 
ATOM     29  C   UNL     1      -0.960   4.509  24.380  0.00  0.00    +0.086 A 
ATOM     30 CL   UNL     1      -0.430   4.798  23.818  0.00  0.00    -0.080 Cl
ATOM     31  C   UNL     1      -1.026   4.880  25.114  0.00  0.00    +0.151 A 
ATOM     32  F   UNL     1      -0.560   5.539  25.286  0.00  0.00    -0.203 F 
ATOM     33  C   UNL     1      -1.556   4.591  25.676  0.00  0.00    +0.032 A 
ATOM     34  C   UNL     1      -2.021   3.932  25.504  0.00  0.00    +0.018 A 
ENDBRANCH  16  27
BRANCH   7   6
ATOM      6  C   UNL     1      -1.540  -0.473  24.442  0.00  0.00    +0.228 C 
BRANCH   6   5
ATOM      5  O   UNL     1      -0.939  -0.853  24.859  0.00  0.00    -0.333 OA
BRANCH   5   4
ATOM      4  C   UNL     1      -0.663  -1.589  24.607  0.00  0.00    +0.257 C 
BRANCH   4   2
ATOM      1  O   UNL     1      -1.119  -2.796  25.222  0.00  0.00    -0.243 OA
ATOM      2  C   UNL     1      -0.554  -2.198  25.152  0.00  0.00    +0.394 C 
ATOM      3  O   UNL     1       0.119  -2.209  25.629  0.00  0.00    -0.243 OA
ENDBRANCH   4   2
ENDBRANCH   5   4
ENDBRANCH   6   5
ENDBRANCH   7   6
BRANCH  19  20
ATOM     20  C   UNL     1      -4.491   2.432  24.089  0.00  0.00    +0.122 C 
BRANCH  20  21
ATOM     21  C   UNL     1      -5.044   2.438  24.701  0.00  0.00    -0.002 A 
ATOM     22  C   UNL     1      -5.471   1.754  24.878  0.00  0.00    -0.003 A 
ATOM     23  C   UNL     1      -6.024   1.760  25.490  0.00  0.00    -0.000 A 
ATOM     24  C   UNL     1      -6.150   2.448  25.926  0.00  0.00    -0.000 A 
ATOM     25  C   UNL     1      -5.723   3.131  25.750  0.00  0.00    -0.000 A 
ATOM     26  C   UNL     1      -5.170   3.127  25.138  0.00  0.00    -0.003 A 
ENDBRANCH  20  21
ENDBRANCH  19  20
TORSDOF 7
ENDMDL
