MODEL 1
REMARK VINA RESULT:      -8.8      0.000      0.000
REMARK  Name = 
REMARK  8 active torsions:
REMARK  status: ('A' for Active; 'I' for Inactive)
REMARK    1  A    between atoms: C_2  and  C_4
REMARK    2  A    between atoms: C_7  and  N_8
REMARK    3  A    between atoms: C_9  and  O_11
REMARK    4  A    between atoms: O_11  and  C_12
REMARK    5  A    between atoms: C_16  and  N_20
REMARK    6  A    between atoms: N_20  and  S_21
REMARK    7  A    between atoms: S_21  and  C_24
REMARK    8  A    between atoms: C_24  and  C_25
REMARK                            x       y       z     vdW  Elec       q    Type
REMARK                         _______ _______ _______ _____ _____    ______ ____
ROOT
ATOM     12  C   UNL     1      -0.034   0.479  23.471  0.00  0.00    +0.229 C 
ATOM     13  C   UNL     1      -0.019   0.230  24.257  0.00  0.00    +0.188 C 
ATOM     14  O   UNL     1      -0.693   0.525  24.630  0.00  0.00    -0.348 OA
ATOM     15  C   UNL     1      -1.124   0.955  24.075  0.00  0.00    +0.166 C 
ATOM     16  C   UNL     1      -1.808   1.403  23.961  0.00  0.00    +0.156 C 
ATOM     17  C   UNL     1      -1.822   1.652  23.174  0.00  0.00    +0.164 C 
ATOM     18  O   UNL     1      -1.148   1.357  22.802  0.00  0.00    -0.348 OA
ATOM     19  C   UNL     1      -0.717   0.926  23.358  0.00  0.00    +0.186 C 
ENDROOT
BRANCH  12  11
ATOM     11  O   UNL     1       0.535   0.309  22.897  0.00  0.00    -0.432 OA
BRANCH  11   9
ATOM      8  N   UNL     1       1.902   0.048  22.571  0.00  0.00    -0.142 NA
ATOM      9  C   UNL     1       1.337   0.361  23.084  0.00  0.00    +0.425 C 
ATOM     10  O   UNL     1       1.574   0.728  23.784  0.00  0.00    -0.224 OA
BRANCH   8   7
ATOM      4  C   UNL     1       4.308   0.204  23.129  0.00  0.00    +0.035 A 
ATOM      5  C   UNL     1       3.886  -0.482  23.310  0.00  0.00    +0.004 A 
ATOM      6  C   UNL     1       3.084  -0.533  23.124  0.00  0.00    +0.017 A 
ATOM      7  C   UNL     1       2.704   0.100  22.757  0.00  0.00    +0.077 A 
ATOM     31  C   UNL     1       3.126   0.785  22.576  0.00  0.00    +0.017 A 
ATOM     32  C   UNL     1       3.928   0.837  22.762  0.00  0.00    +0.004 A 
BRANCH   4   2
ATOM      1  C   UNL     1       5.343   0.469  24.078  0.00  0.00    +0.077 C 
ATOM      2  C   UNL     1       5.110   0.255  23.316  0.00  0.00    +0.173 C 
ATOM      3  O   UNL     1       5.679   0.093  22.741  0.00  0.00    -0.291 OA
ENDBRANCH   4   2
ENDBRANCH   8   7
ENDBRANCH  11   9
ENDBRANCH  12  11
BRANCH  16  20
ATOM     20  N   UNL     1      -2.377   1.573  24.534  0.00  0.00    -0.078 NA
BRANCH  20  21
ATOM     21  S   UNL     1      -3.075   1.956  24.321  0.00  0.00    +0.062 S 
ATOM     22  O   UNL     1      -2.732   2.684  24.500  0.00  0.00    -0.156 OA
ATOM     23  O   UNL     1      -3.419   1.228  24.141  0.00  0.00    -0.156 OA
BRANCH  21  24
ATOM     24  C   UNL     1      -3.774   2.339  24.107  0.00  0.00    +0.197 C 
BRANCH  24  25
ATOM     25  C   UNL     1      -4.375   2.441  24.664  0.00  0.00    +0.003 A 
ATOM     26  C   UNL     1      -4.391   3.119  25.133  0.00  0.00    -0.003 A 
ATOM     27  C   UNL     1      -4.992   3.222  25.690  0.00  0.00    -0.000 A 
ATOM     28  C   UNL     1      -5.576   2.645  25.776  0.00  0.00    -0.000 A 
ATOM     29  C   UNL     1      -5.560   1.967  25.307  0.00  0.00    -0.000 A 
ATOM     30  C   UNL     1      -4.960   1.865  24.751  0.00  0.00    -0.003 A 
ENDBRANCH  24  25
ENDBRANCH  21  24
ENDBRANCH  20  21
ENDBRANCH  16  20
TORSDOF 8
ENDMDL
MODEL 2
REMARK VINA RESULT:      -8.2      1.481      7.268
REMARK  Name = 
REMARK  8 active torsions:
REMARK  status: ('A' for Active; 'I' for Inactive)
REMARK    1  A    between atoms: C_2  and  C_4
REMARK    2  A    between atoms: C_7  and  N_8
REMARK    3  A    between atoms: C_9  and  O_11
REMARK    4  A    between atoms: O_11  and  C_12
REMARK    5  A    between atoms: C_16  and  N_20
REMARK    6  A    between atoms: N_20  and  S_21
REMARK    7  A    between atoms: S_21  and  C_24
REMARK    8  A    between atoms: C_24  and  C_25
REMARK                            x       y       z     vdW  Elec       q    Type
REMARK                         _______ _______ _______ _____ _____    ______ ____
ROOT
ATOM     12  C   UNL     1      -0.655   0.660  23.856  0.00  0.00    +0.229 C 
ATOM     13  C   UNL     1      -0.424   1.224  24.412  0.00  0.00    +0.188 C 
ATOM     14  O   UNL     1       0.392   1.323  24.350  0.00  0.00    -0.348 OA
ATOM     15  C   UNL     1       0.666   0.821  23.757  0.00  0.00    +0.166 C 
ATOM     16  C   UNL     1       1.340   0.572  23.351  0.00  0.00    +0.156 C 
ATOM     17  C   UNL     1       1.110   0.008  22.795  0.00  0.00    +0.164 C 
ATOM     18  O   UNL     1       0.294  -0.091  22.856  0.00  0.00    -0.348 OA
ATOM     19  C   UNL     1       0.019   0.412  23.451  0.00  0.00    +0.186 C 
ENDROOT
BRANCH  12  11
ATOM     11  O   UNL     1      -1.425   0.392  23.727  0.00  0.00    -0.432 OA
BRANCH  11   9
ATOM      8  N   UNL     1      -2.765   0.884  23.688  0.00  0.00    -0.142 NA
ATOM      9  C   UNL     1      -2.060   0.767  24.097  0.00  0.00    +0.425 C 
ATOM     10  O   UNL     1      -1.987   1.024  24.879  0.00  0.00    -0.224 OA
BRANCH   8   7
ATOM      4  C   UNL     1      -4.670   2.009  24.799  0.00  0.00    +0.035 A 
ATOM      5  C   UNL     1      -4.181   2.434  24.288  0.00  0.00    +0.004 A 
ATOM      6  C   UNL     1      -3.546   2.059  23.918  0.00  0.00    +0.017 A 
ATOM      7  C   UNL     1      -3.400   1.259  24.059  0.00  0.00    +0.077 A 
ATOM     31  C   UNL     1      -3.890   0.834  24.569  0.00  0.00    +0.017 A 
ATOM     32  C   UNL     1      -4.525   1.209  24.939  0.00  0.00    +0.004 A 
BRANCH   4   2
ATOM      1  C   UNL     1      -5.170   3.032  25.662  0.00  0.00    +0.077 C 
ATOM      2  C   UNL     1      -5.305   2.384  25.169  0.00  0.00    +0.173 C 
ATOM      3  O   UNL     1      -6.074   2.112  25.047  0.00  0.00    -0.291 OA
ENDBRANCH   4   2
ENDBRANCH   8   7
ENDBRANCH  11   9
ENDBRANCH  12  11
BRANCH  16  20
ATOM     20  N   UNL     1       2.110   0.840  23.480  0.00  0.00    -0.078 NA
BRANCH  20  21
ATOM     21  S   UNL     1       2.742   0.486  23.085  0.00  0.00    +0.062 S 
ATOM     22  O   UNL     1       2.913   1.203  22.715  0.00  0.00    -0.156 OA
ATOM     23  O   UNL     1       2.571  -0.232  23.455  0.00  0.00    -0.156 OA
BRANCH  21  24
ATOM     24  C   UNL     1       3.373   0.131  22.690  0.00  0.00    +0.197 C 
BRANCH  24  25
ATOM     25  C   UNL     1       4.105   0.058  23.064  0.00  0.00    +0.003 A 
ATOM     26  C   UNL     1       4.621   0.701  23.092  0.00  0.00    -0.003 A 
ATOM     27  C   UNL     1       5.353   0.627  23.466  0.00  0.00    -0.000 A 
ATOM     28  C   UNL     1       5.568  -0.090  23.813  0.00  0.00    -0.000 A 
ATOM     29  C   UNL     1       5.052  -0.733  23.786  0.00  0.00    -0.000 A 
ATOM     30  C   UNL     1       4.321  -0.659  23.412  0.00  0.00    -0.003 A 
ENDBRANCH  24  25
ENDBRANCH  21  24
ENDBRANCH  20  21
ENDBRANCH  16  20
TORSDOF 8
ENDMDL
MODEL 3
REMARK VINA RESULT:      -7.7      3.192      5.103
REMARK  Name = 
REMARK  8 active torsions:
REMARK  status: ('A' for Active; 'I' for Inactive)
REMARK    1  A    between atoms: C_2  and  C_4
REMARK    2  A    between atoms: C_7  and  N_8
REMARK    3  A    between atoms: C_9  and  O_11
REMARK    4  A    between atoms: O_11  and  C_12
REMARK    5  A    between atoms: C_16  and  N_20
REMARK    6  A    between atoms: N_20  and  S_21
REMARK    7  A    between atoms: S_21  and  C_24
REMARK    8  A    between atoms: C_24  and  C_25
REMARK                            x       y       z     vdW  Elec       q    Type
REMARK                         _______ _______ _______ _____ _____    ______ ____
ROOT
ATOM     12  C   UNL     1       0.114   0.755  24.342  0.00  0.00    +0.229 C 
ATOM     13  C   UNL     1       0.108   0.508  23.555  0.00  0.00    +0.188 C 
ATOM     14  O   UNL     1      -0.292  -0.212  23.518  0.00  0.00    -0.348 OA
ATOM     15  C   UNL     1      -0.533  -0.410  24.280  0.00  0.00    +0.166 C 
ATOM     16  C   UNL     1      -0.930  -0.977  24.730  0.00  0.00    +0.156 C 
ATOM     17  C   UNL     1      -0.924  -0.730  25.517  0.00  0.00    +0.164 C 
ATOM     18  O   UNL     1      -0.524  -0.010  25.554  0.00  0.00    -0.348 OA
ATOM     19  C   UNL     1      -0.282   0.188  24.790  0.00  0.00    +0.186 C 
ENDROOT
BRANCH  12  11
ATOM     11  O   UNL     1       0.457   1.449  24.630  0.00  0.00    -0.432 OA
BRANCH  11   9
ATOM      8  N   UNL     1      -0.098   2.587  25.291  0.00  0.00    -0.142 NA
ATOM      9  C   UNL     1       0.039   2.159  24.600  0.00  0.00    +0.425 C 
ATOM     10  O   UNL     1      -0.243   2.441  23.877  0.00  0.00    -0.224 OA
BRANCH   8   7
ATOM      4  C   UNL     1      -1.354   4.718  25.202  0.00  0.00    +0.035 A 
ATOM      5  C   UNL     1      -1.683   4.061  25.578  0.00  0.00    +0.004 A 
ATOM      6  C   UNL     1      -1.264   3.351  25.607  0.00  0.00    +0.017 A 
ATOM      7  C   UNL     1      -0.517   3.298  25.261  0.00  0.00    +0.077 A 
ATOM     31  C   UNL     1      -0.189   3.954  24.886  0.00  0.00    +0.017 A 
ATOM     32  C   UNL     1      -0.607   4.665  24.856  0.00  0.00    +0.004 A 
BRANCH   4   2
ATOM      1  C   UNL     1      -2.575   5.442  25.369  0.00  0.00    +0.077 C 
ATOM      2  C   UNL     1      -1.773   5.428  25.173  0.00  0.00    +0.173 C 
ATOM      3  O   UNL     1      -1.391   6.124  24.947  0.00  0.00    -0.291 OA
ENDBRANCH   4   2
ENDBRANCH   8   7
ENDBRANCH  11   9
ENDBRANCH  12  11
BRANCH  16  20
ATOM     20  N   UNL     1      -1.272  -1.671  24.442  0.00  0.00    -0.078 NA
BRANCH  20  21
ATOM     21  S   UNL     1      -1.987  -1.939  24.756  0.00  0.00    +0.062 S 
ATOM     22  O   UNL     1      -2.359  -1.249  24.500  0.00  0.00    -0.156 OA
ATOM     23  O   UNL     1      -1.614  -2.629  25.012  0.00  0.00    -0.156 OA
BRANCH  21  24
ATOM     24  C   UNL     1      -2.701  -2.208  25.070  0.00  0.00    +0.197 C 
BRANCH  24  25
ATOM     25  C   UNL     1      -3.343  -2.350  24.571  0.00  0.00    +0.003 A 
ATOM     26  C   UNL     1      -3.868  -1.740  24.390  0.00  0.00    -0.003 A 
ATOM     27  C   UNL     1      -4.510  -1.883  23.891  0.00  0.00    -0.000 A 
ATOM     28  C   UNL     1      -4.626  -2.636  23.575  0.00  0.00    -0.000 A 
ATOM     29  C   UNL     1      -4.102  -3.246  23.756  0.00  0.00    -0.000 A 
ATOM     30  C   UNL     1      -3.460  -3.103  24.254  0.00  0.00    -0.003 A 
ENDBRANCH  24  25
ENDBRANCH  21  24
ENDBRANCH  20  21
ENDBRANCH  16  20
TORSDOF 8
ENDMDL
MODEL 4
REMARK VINA RESULT:      -6.0     17.151     17.759
REMARK  Name = 
REMARK  8 active torsions:
REMARK  status: ('A' for Active; 'I' for Inactive)
REMARK    1  A    between atoms: C_2  and  C_4
REMARK    2  A    between atoms: C_7  and  N_8
REMARK    3  A    between atoms: C_9  and  O_11
REMARK    4  A    between atoms: O_11  and  C_12
REMARK    5  A    between atoms: C_16  and  N_20
REMARK    6  A    between atoms: N_20  and  S_21
REMARK    7  A    between atoms: S_21  and  C_24
REMARK    8  A    between atoms: C_24  and  C_25
REMARK                            x       y       z     vdW  Elec       q    Type
REMARK                         _______ _______ _______ _____ _____    ______ ____
ROOT
ATOM     12  C   UNL     1      -5.635  -9.818  11.045  0.00  0.00    +0.229 C 
ATOM     13  C   UNL     1      -5.877  -9.338  11.671  0.00  0.00    +0.188 C 
ATOM     14  O   UNL     1      -6.542  -8.917  11.426  0.00  0.00    -0.348 OA
ATOM     15  C   UNL     1      -6.711  -9.134  10.650  0.00  0.00    +0.166 C 
ATOM     16  C   UNL     1      -7.226  -9.009  10.017  0.00  0.00    +0.156 C 
ATOM     17  C   UNL     1      -6.984  -9.488   9.391  0.00  0.00    +0.164 C 
ATOM     18  O   UNL     1      -6.319  -9.910   9.636  0.00  0.00    -0.348 OA
ATOM     19  C   UNL     1      -6.150  -9.692  10.414  0.00  0.00    +0.186 C 
ENDROOT
BRANCH  12  11
ATOM     11  O   UNL     1      -4.990 -10.333  11.050  0.00  0.00    -0.432 OA
BRANCH  11   9
ATOM      8  N   UNL     1      -3.627 -10.150  10.660  0.00  0.00    -0.142 NA
ATOM      9  C   UNL     1      -4.233 -10.045  11.209  0.00  0.00    +0.425 C 
ATOM     10  O   UNL     1      -4.083  -9.653  11.920  0.00  0.00    -0.224 OA
BRANCH   8   7
ATOM      4  C   UNL     1      -1.357  -9.289  11.140  0.00  0.00    +0.035 A 
ATOM      5  C   UNL     1      -1.612  -9.995  11.483  0.00  0.00    +0.004 A 
ATOM      6  C   UNL     1      -2.369 -10.281  11.323  0.00  0.00    +0.017 A 
ATOM      7  C   UNL     1      -2.870  -9.863  10.820  0.00  0.00    +0.077 A 
ATOM     31  C   UNL     1      -2.616  -9.158  10.476  0.00  0.00    +0.017 A 
ATOM     32  C   UNL     1      -1.859  -8.870  10.636  0.00  0.00    +0.004 A 
BRANCH   4   2
ATOM      1  C   UNL     1      -0.492  -8.424  11.879  0.00  0.00    +0.077 C 
ATOM      2  C   UNL     1      -0.600  -9.002  11.300  0.00  0.00    +0.173 C 
ATOM      3  O   UNL     1       0.049  -9.293  10.882  0.00  0.00    -0.291 OA
ENDBRANCH   4   2
ENDBRANCH   8   7
ENDBRANCH  11   9
ENDBRANCH  12  11
BRANCH  16  20
ATOM     20  N   UNL     1      -7.871  -8.494  10.013  0.00  0.00    -0.078 NA
BRANCH  20  21
ATOM     21  S   UNL     1      -8.183  -8.231   9.296  0.00  0.00    +0.062 S 
ATOM     22  O   UNL     1      -8.802  -8.772   9.367  0.00  0.00    -0.156 OA
ATOM     23  O   UNL     1      -7.564  -7.690   9.225  0.00  0.00    -0.156 OA
BRANCH  21  24
ATOM     24  C   UNL     1      -8.496  -7.967   8.580  0.00  0.00    +0.197 C 
BRANCH  24  25
ATOM     25  C   UNL     1      -8.927  -7.264   8.551  0.00  0.00    +0.003 A 
ATOM     26  C   UNL     1      -8.577  -6.577   8.259  0.00  0.00    -0.003 A 
ATOM     27  C   UNL     1      -9.009  -5.874   8.230  0.00  0.00    -0.000 A 
ATOM     28  C   UNL     1      -9.791  -5.860   8.494  0.00  0.00    -0.000 A 
ATOM     29  C   UNL     1     -10.141  -6.547   8.786  0.00  0.00    -0.000 A 
ATOM     30  C   UNL     1      -9.709  -7.249   8.815  0.00  0.00    -0.003 A 
ENDBRANCH  24  25
ENDBRANCH  21  24
ENDBRANCH  20  21
ENDBRANCH  16  20
TORSDOF 8
ENDMDL
MODEL 5
REMARK VINA RESULT:      -5.9     15.633     17.306
REMARK  Name = 
REMARK  8 active torsions:
REMARK  status: ('A' for Active; 'I' for Inactive)
REMARK    1  A    between atoms: C_2  and  C_4
REMARK    2  A    between atoms: C_7  and  N_8
REMARK    3  A    between atoms: C_9  and  O_11
REMARK    4  A    between atoms: O_11  and  C_12
REMARK    5  A    between atoms: C_16  and  N_20
REMARK    6  A    between atoms: N_20  and  S_21
REMARK    7  A    between atoms: S_21  and  C_24
REMARK    8  A    between atoms: C_24  and  C_25
REMARK                            x       y       z     vdW  Elec       q    Type
REMARK                         _______ _______ _______ _____ _____    ______ ____
ROOT
ATOM     12  C   UNL     1      -6.467 -10.065  14.683  0.00  0.00    +0.229 C 
ATOM     13  C   UNL     1      -7.142  -9.967  14.218  0.00  0.00    +0.188 C 
ATOM     14  O   UNL     1      -6.909  -9.976  13.427  0.00  0.00    -0.348 OA
ATOM     15  C   UNL     1      -6.092 -10.080  13.402  0.00  0.00    +0.166 C 
ATOM     16  C   UNL     1      -5.442 -10.150  12.899  0.00  0.00    +0.156 C 
ATOM     17  C   UNL     1      -4.767 -10.248  13.363  0.00  0.00    +0.164 C 
ATOM     18  O   UNL     1      -5.000 -10.238  14.154  0.00  0.00    -0.348 OA
ATOM     19  C   UNL     1      -5.818 -10.135  14.179  0.00  0.00    +0.186 C 
ENDROOT
BRANCH  12  11
ATOM     11  O   UNL     1      -6.446 -10.089  15.507  0.00  0.00    -0.432 OA
BRANCH  11   9
ATOM      8  N   UNL     1      -7.271  -9.562  16.548  0.00  0.00    -0.142 NA
ATOM      9  C   UNL     1      -7.149 -10.104  15.939  0.00  0.00    +0.425 C 
ATOM     10  O   UNL     1      -7.730 -10.663  15.759  0.00  0.00    -0.224 OA
BRANCH   8   7
ATOM      4  C   UNL     1      -9.382  -9.606  17.841  0.00  0.00    +0.035 A 
ATOM      5  C   UNL     1      -9.288  -9.068  17.221  0.00  0.00    +0.004 A 
ATOM      6  C   UNL     1      -8.584  -9.054  16.791  0.00  0.00    +0.017 A 
ATOM      7  C   UNL     1      -7.975  -9.577  16.979  0.00  0.00    +0.077 A 
ATOM     31  C   UNL     1      -8.069 -10.114  17.597  0.00  0.00    +0.017 A 
ATOM     32  C   UNL     1      -8.772 -10.129  18.028  0.00  0.00    +0.004 A 
BRANCH   4   2
ATOM      1  C   UNL     1     -10.307 -10.305  18.676  0.00  0.00    +0.077 C 
ATOM      2  C   UNL     1     -10.085  -9.620  18.271  0.00  0.00    +0.173 C 
ATOM      3  O   UNL     1     -10.567  -8.951  18.297  0.00  0.00    -0.291 OA
ENDBRANCH   4   2
ENDBRANCH   8   7
ENDBRANCH  11   9
ENDBRANCH  12  11
BRANCH  16  20
ATOM     20  N   UNL     1      -5.463 -10.125  12.074  0.00  0.00    -0.078 NA
BRANCH  20  21
ATOM     21  S   UNL     1      -4.774  -9.971  11.648  0.00  0.00    +0.062 S 
ATOM     22  O   UNL     1      -4.935  -9.162  11.680  0.00  0.00    -0.156 OA
ATOM     23  O   UNL     1      -4.613 -10.779  11.615  0.00  0.00    -0.156 OA
BRANCH  21  24
ATOM     24  C   UNL     1      -4.085  -9.816  11.221  0.00  0.00    +0.197 C 
BRANCH  24  25
ATOM     25  C   UNL     1      -4.124  -9.682  10.408  0.00  0.00    +0.003 A 
ATOM     26  C   UNL     1      -4.108  -8.911  10.116  0.00  0.00    -0.003 A 
ATOM     27  C   UNL     1      -4.147  -8.777   9.302  0.00  0.00    -0.000 A 
ATOM     28  C   UNL     1      -4.203  -9.415   8.782  0.00  0.00    -0.000 A 
ATOM     29  C   UNL     1      -4.219 -10.186   9.074  0.00  0.00    -0.000 A 
ATOM     30  C   UNL     1      -4.180 -10.320   9.887  0.00  0.00    -0.003 A 
ENDBRANCH  24  25
ENDBRANCH  21  24
ENDBRANCH  20  21
ENDBRANCH  16  20
TORSDOF 8
ENDMDL
MODEL 6
REMARK VINA RESULT:      -5.0     16.203     16.907
REMARK  Name = 
REMARK  8 active torsions:
REMARK  status: ('A' for Active; 'I' for Inactive)
REMARK    1  A    between atoms: C_2  and  C_4
REMARK    2  A    between atoms: C_7  and  N_8
REMARK    3  A    between atoms: C_9  and  O_11
REMARK    4  A    between atoms: O_11  and  C_12
REMARK    5  A    between atoms: C_16  and  N_20
REMARK    6  A    between atoms: N_20  and  S_21
REMARK    7  A    between atoms: S_21  and  C_24
REMARK    8  A    between atoms: C_24  and  C_25
REMARK                            x       y       z     vdW  Elec       q    Type
REMARK                         _______ _______ _______ _____ _____    ______ ____
ROOT
ATOM     12  C   UNL     1      -7.874  -9.665  12.848  0.00  0.00    +0.229 C 
ATOM     13  C   UNL     1      -7.235  -9.871  13.327  0.00  0.00    +0.188 C 
ATOM     14  O   UNL     1      -7.515  -9.971  14.096  0.00  0.00    -0.348 OA
ATOM     15  C   UNL     1      -8.326  -9.827  14.093  0.00  0.00    +0.166 C 
ATOM     16  C   UNL     1      -9.002  -9.800  14.566  0.00  0.00    +0.156 C 
ATOM     17  C   UNL     1      -9.641  -9.593  14.087  0.00  0.00    +0.164 C 
ATOM     18  O   UNL     1      -9.361  -9.493  13.318  0.00  0.00    -0.348 OA
ATOM     19  C   UNL     1      -8.548  -9.638  13.321  0.00  0.00    +0.186 C 
ENDROOT
BRANCH  12  11
ATOM     11  O   UNL     1      -7.843  -9.513  12.037  0.00  0.00    -0.432 OA
BRANCH  11   9
ATOM      8  N   UNL     1      -6.869  -8.900  11.190  0.00  0.00    -0.142 NA
ATOM      9  C   UNL     1      -7.122  -9.544  11.638  0.00  0.00    +0.425 C 
ATOM     10  O   UNL     1      -6.653 -10.222  11.687  0.00  0.00    -0.224 OA
BRANCH   8   7
ATOM      4  C   UNL     1      -4.705  -8.995   9.994  0.00  0.00    +0.035 A 
ATOM      5  C   UNL     1      -4.726  -8.784  10.791  0.00  0.00    +0.004 A 
ATOM      6  C   UNL     1      -5.448  -8.752  11.190  0.00  0.00    +0.017 A 
ATOM      7  C   UNL     1      -6.148  -8.932  10.791  0.00  0.00    +0.077 A 
ATOM     31  C   UNL     1      -6.126  -9.142   9.994  0.00  0.00    +0.017 A 
ATOM     32  C   UNL     1      -5.404  -9.174   9.595  0.00  0.00    +0.004 A 
BRANCH   4   2
ATOM      1  C   UNL     1      -3.281  -9.115  10.020  0.00  0.00    +0.077 C 
ATOM      2  C   UNL     1      -3.983  -9.026   9.595  0.00  0.00    +0.173 C 
ATOM      3  O   UNL     1      -3.963  -8.968   8.773  0.00  0.00    -0.291 OA
ENDBRANCH   4   2
ENDBRANCH   8   7
ENDBRANCH  11   9
ENDBRANCH  12  11
BRANCH  16  20
ATOM     20  N   UNL     1      -9.032  -9.952  15.376  0.00  0.00    -0.078 NA
BRANCH  20  21
ATOM     21  S   UNL     1      -9.749  -9.895  15.780  0.00  0.00    +0.062 S 
ATOM     22  O   UNL     1      -9.601  -9.098  15.931  0.00  0.00    -0.156 OA
ATOM     23  O   UNL     1      -9.898 -10.692  15.629  0.00  0.00    -0.156 OA
BRANCH  21  24
ATOM     24  C   UNL     1     -10.466  -9.838  16.184  0.00  0.00    +0.197 C 
BRANCH  24  25
ATOM     25  C   UNL     1     -10.487  -9.933  17.004  0.00  0.00    +0.003 A 
ATOM     26  C   UNL     1     -10.583  -9.276  17.493  0.00  0.00    -0.003 A 
ATOM     27  C   UNL     1     -10.603  -9.371  18.312  0.00  0.00    -0.000 A 
ATOM     28  C   UNL     1     -10.529 -10.124  18.642  0.00  0.00    -0.000 A 
ATOM     29  C   UNL     1     -10.434 -10.781  18.152  0.00  0.00    -0.000 A 
ATOM     30  C   UNL     1     -10.413 -10.685  17.334  0.00  0.00    -0.003 A 
ENDBRANCH  24  25
ENDBRANCH  21  24
ENDBRANCH  20  21
ENDBRANCH  16  20
TORSDOF 8
ENDMDL
