MODEL 1
REMARK VINA RESULT:     -11.1      0.000      0.000
REMARK  Name = 
REMARK  6 active torsions:
REMARK  status: ('A' for Active; 'I' for Inactive)
REMARK    1  A    between atoms: N_2  and  C_3
REMARK    2  A    between atoms: N_2  and  C_11
REMARK    3  A    between atoms: C_3  and  C_4
REMARK    4  A    between atoms: C_4  and  C_5
REMARK    5  A    between atoms: C_24  and  C_25
REMARK    6  A    between atoms: C_25  and  C_26
REMARK                            x       y       z     vdW  Elec       q    Type
REMARK                         _______ _______ _______ _____ _____    ______ ____
ROOT
ATOM     11  C   UNL     1       1.182   0.061  22.969  0.00  0.00    +0.048 A 
ATOM     12  C   UNL     1       0.843   0.810  23.026  0.00  0.00    +0.018 A 
ATOM     13  C   UNL     1       0.103   0.904  23.378  0.00  0.00    +0.038 A 
ATOM     14  C   UNL     1      -0.299   0.246  23.672  0.00  0.00    +0.136 A 
ATOM     15  O   UNL     1      -0.140   1.033  23.478  0.00  0.00    -0.471 OA
ATOM     16  C   UNL     1      -0.781   1.490  23.727  0.00  0.00    +0.231 C 
ATOM     17  C   UNL     1      -1.335   0.987  24.074  0.00  0.00    +0.016 C 
ATOM     18  C   UNL     1      -2.146   1.011  24.469  0.00  0.00    -0.026 C 
ATOM     19  C   UNL     1      -2.520   0.333  24.753  0.00  0.00    +0.042 C 
ATOM     20  C   UNL     1      -2.154  -0.402  24.681  0.00  0.00    +0.098 C 
ATOM     21  N   UNL     1      -2.528  -1.080  24.965  0.00  0.00    -0.278 N 
ATOM     22  C   UNL     1      -3.270  -1.023  25.322  0.00  0.00    +0.093 C 
ATOM     23  C   UNL     1      -3.637  -0.287  25.395  0.00  0.00    +0.022 C 
ATOM     24  C   UNL     1      -3.262   0.390  25.110  0.00  0.00    +0.016 C 
ATOM     34  C   UNL     1      -2.161  -1.816  24.892  0.00  0.00    +0.243 C 
ATOM     35  O   UNL     1      -2.536  -2.493  25.176  0.00  0.00    -0.273 OA
ATOM     36  C   UNL     1      -1.419  -1.873  24.535  0.00  0.00    +0.174 C 
ATOM     37  N   UNL     1      -1.045  -1.195  24.251  0.00  0.00    -0.204 NA
ATOM     38  C   UNL     1      -0.303  -1.253  23.894  0.00  0.00    +0.119 C 
ATOM     39  C   UNL     1       0.039  -0.504  23.615  0.00  0.00    +0.030 A 
ATOM     40  C   UNL     1       0.780  -0.596  23.264  0.00  0.00    +0.015 A 
ENDROOT
BRANCH  11   2
ATOM      1  C   UNL     1       1.978  -0.214  21.816  0.00  0.00    +0.112 C 
ATOM      2  N   UNL     1       1.923  -0.032  22.618  0.00  0.00    -0.305 N 
BRANCH   2   3
ATOM      3  C   UNL     1       2.608   0.056  23.070  0.00  0.00    +0.097 C 
BRANCH   3   4
ATOM      4  C   UNL     1       3.340   0.128  22.697  0.00  0.00    +0.067 C 
BRANCH   4   5
ATOM      5  C   UNL     1       4.035   0.034  23.133  0.00  0.00    +0.061 A 
ATOM      6  N   UNL     1       4.202  -0.688  23.494  0.00  0.00    -0.248 NA
ATOM      7  C   UNL     1       4.896  -0.781  23.929  0.00  0.00    +0.098 A 
ATOM      8  C   UNL     1       5.424  -0.151  24.004  0.00  0.00    +0.021 A 
ATOM      9  C   UNL     1       5.257   0.572  23.644  0.00  0.00    +0.003 A 
ATOM     10  C   UNL     1       4.562   0.665  23.208  0.00  0.00    +0.015 A 
ENDBRANCH   4   5
ENDBRANCH   3   4
ENDBRANCH   2   3
ENDBRANCH  11   2
BRANCH  24  25
ATOM     25  C   UNL     1      -3.629   1.125  25.183  0.00  0.00    +0.086 C 
BRANCH  25  26
ATOM     26  C   UNL     1      -4.449   1.186  25.112  0.00  0.00    +0.226 C 
ATOM     27  O   UNL     1      -4.891   0.533  24.871  0.00  0.00    -0.275 OA
ATOM     28  N   UNL     1      -4.827   1.899  25.282  0.00  0.00    -0.274 N 
ATOM     29  C   UNL     1      -5.646   1.960  25.210  0.00  0.00    +0.125 C 
ATOM     30  C   UNL     1      -6.024   2.673  25.380  0.00  0.00    +0.164 C 
ATOM     31  O   UNL     1      -5.582   3.326  25.621  0.00  0.00    -0.350 OA
ATOM     32  C   UNL     1      -4.762   3.267  25.693  0.00  0.00    +0.164 C 
ATOM     33  C   UNL     1      -4.385   2.553  25.523  0.00  0.00    +0.125 C 
ENDBRANCH  25  26
ENDBRANCH  24  25
TORSDOF 6
ENDMDL
MODEL 2
REMARK VINA RESULT:      -9.7      1.544      2.671
REMARK  Name = 
REMARK  6 active torsions:
REMARK  status: ('A' for Active; 'I' for Inactive)
REMARK    1  A    between atoms: N_2  and  C_3
REMARK    2  A    between atoms: N_2  and  C_11
REMARK    3  A    between atoms: C_3  and  C_4
REMARK    4  A    between atoms: C_4  and  C_5
REMARK    5  A    between atoms: C_24  and  C_25
REMARK    6  A    between atoms: C_25  and  C_26
REMARK                            x       y       z     vdW  Elec       q    Type
REMARK                         _______ _______ _______ _____ _____    ______ ____
ROOT
ATOM     11  C   UNL     1       1.024   0.431  23.179  0.00  0.00    +0.048 A 
ATOM     12  C   UNL     1       0.333   0.000  23.307  0.00  0.00    +0.018 A 
ATOM     13  C   UNL     1      -0.323   0.364  23.651  0.00  0.00    +0.038 A 
ATOM     14  C   UNL     1      -0.287   1.159  23.866  0.00  0.00    +0.136 A 
ATOM     15  O   UNL     1      -0.593   0.401  23.760  0.00  0.00    -0.471 OA
ATOM     16  C   UNL     1      -1.369   0.397  24.041  0.00  0.00    +0.231 C 
ATOM     17  C   UNL     1      -1.542   1.153  24.322  0.00  0.00    +0.016 C 
ATOM     18  C   UNL     1      -2.217   1.618  24.702  0.00  0.00    -0.026 C 
ATOM     19  C   UNL     1      -2.147   2.413  24.905  0.00  0.00    +0.042 C 
ATOM     20  C   UNL     1      -1.441   2.816  24.764  0.00  0.00    +0.098 C 
ATOM     21  N   UNL     1      -1.370   3.612  24.967  0.00  0.00    -0.278 N 
ATOM     22  C   UNL     1      -2.007   4.007  25.313  0.00  0.00    +0.093 C 
ATOM     23  C   UNL     1      -2.714   3.605  25.455  0.00  0.00    +0.022 C 
ATOM     24  C   UNL     1      -2.783   2.809  25.251  0.00  0.00    +0.016 C 
ATOM     34  C   UNL     1      -0.664   4.014  24.825  0.00  0.00    +0.243 C 
ATOM     35  O   UNL     1      -0.595   4.810  25.029  0.00  0.00    -0.273 OA
ATOM     36  C   UNL     1      -0.027   3.619  24.479  0.00  0.00    +0.174 C 
ATOM     37  N   UNL     1      -0.097   2.823  24.276  0.00  0.00    -0.204 NA
ATOM     38  C   UNL     1       0.540   2.428  23.930  0.00  0.00    +0.119 C 
ATOM     39  C   UNL     1       0.405   1.591  23.739  0.00  0.00    +0.030 A 
ATOM     40  C   UNL     1       1.060   1.226  23.395  0.00  0.00    +0.015 A 
ENDROOT
BRANCH  11   2
ATOM      1  C   UNL     1       1.583  -0.417  22.174  0.00  0.00    +0.112 C 
ATOM      2  N   UNL     1       1.680   0.067  22.835  0.00  0.00    -0.305 N 
BRANCH   2   3
ATOM      3  C   UNL     1       2.432   0.187  23.152  0.00  0.00    +0.097 C 
BRANCH   3   4
ATOM      4  C   UNL     1       3.101  -0.019  22.716  0.00  0.00    +0.067 C 
BRANCH   4   5
ATOM      5  C   UNL     1       3.845  -0.006  23.072  0.00  0.00    +0.061 A 
ATOM      6  N   UNL     1       4.121  -0.668  23.479  0.00  0.00    -0.248 NA
ATOM      7  C   UNL     1       4.865  -0.653  23.834  0.00  0.00    +0.098 A 
ATOM      8  C   UNL     1       5.334   0.023  23.783  0.00  0.00    +0.021 A 
ATOM      9  C   UNL     1       5.058   0.686  23.376  0.00  0.00    +0.003 A 
ATOM     10  C   UNL     1       4.314   0.672  23.020  0.00  0.00    +0.015 A 
ENDBRANCH   4   5
ENDBRANCH   3   4
ENDBRANCH   2   3
ENDBRANCH  11   2
BRANCH  24  25
ATOM     25  C   UNL     1      -3.490   2.407  25.393  0.00  0.00    +0.086 C 
BRANCH  25  26
ATOM     26  C   UNL     1      -4.164   2.826  25.621  0.00  0.00    +0.226 C 
ATOM     27  O   UNL     1      -4.088   3.564  25.980  0.00  0.00    -0.275 OA
ATOM     28  N   UNL     1      -4.913   2.506  25.489  0.00  0.00    -0.274 N 
ATOM     29  C   UNL     1      -5.585   2.925  25.717  0.00  0.00    +0.125 C 
ATOM     30  C   UNL     1      -6.334   2.605  25.586  0.00  0.00    +0.164 C 
ATOM     31  O   UNL     1      -6.410   1.866  25.226  0.00  0.00    -0.350 OA
ATOM     32  C   UNL     1      -5.737   1.447  24.998  0.00  0.00    +0.164 C 
ATOM     33  C   UNL     1      -4.988   1.767  25.130  0.00  0.00    +0.125 C 
ENDBRANCH  25  26
ENDBRANCH  24  25
TORSDOF 6
ENDMDL
MODEL 3
REMARK VINA RESULT:      -8.0      1.590      6.957
REMARK  Name = 
REMARK  6 active torsions:
REMARK  status: ('A' for Active; 'I' for Inactive)
REMARK    1  A    between atoms: N_2  and  C_3
REMARK    2  A    between atoms: N_2  and  C_11
REMARK    3  A    between atoms: C_3  and  C_4
REMARK    4  A    between atoms: C_4  and  C_5
REMARK    5  A    between atoms: C_24  and  C_25
REMARK    6  A    between atoms: C_25  and  C_26
REMARK                            x       y       z     vdW  Elec       q    Type
REMARK                         _______ _______ _______ _____ _____    ______ ____
ROOT
ATOM     11  C   UNL     1      -2.702   3.115  25.248  0.00  0.00    +0.048 A 
ATOM     12  C   UNL     1      -2.030   3.498  24.959  0.00  0.00    +0.018 A 
ATOM     13  C   UNL     1      -1.396   3.057  24.668  0.00  0.00    +0.038 A 
ATOM     14  C   UNL     1      -1.434   2.233  24.666  0.00  0.00    +0.136 A 
ATOM     15  O   UNL     1      -1.135   2.994  24.551  0.00  0.00    -0.471 OA
ATOM     16  C   UNL     1      -0.384   2.924  24.217  0.00  0.00    +0.231 C 
ATOM     17  C   UNL     1      -0.219   2.121  24.125  0.00  0.00    +0.016 C 
ATOM     18  C   UNL     1       0.433   1.574  23.824  0.00  0.00    -0.026 C 
ATOM     19  C   UNL     1       0.363   0.753  23.836  0.00  0.00    +0.042 C 
ATOM     20  C   UNL     1      -0.322   0.401  24.131  0.00  0.00    +0.098 C 
ATOM     21  N   UNL     1      -0.393  -0.421  24.144  0.00  0.00    -0.278 N 
ATOM     22  C   UNL     1       0.223  -0.891  23.861  0.00  0.00    +0.093 C 
ATOM     23  C   UNL     1       0.908  -0.541  23.565  0.00  0.00    +0.022 C 
ATOM     24  C   UNL     1       0.978   0.281  23.553  0.00  0.00    +0.016 C 
ATOM     34  C   UNL     1      -1.079  -0.772  24.440  0.00  0.00    +0.243 C 
ATOM     35  O   UNL     1      -1.148  -1.594  24.452  0.00  0.00    -0.273 OA
ATOM     36  C   UNL     1      -1.694  -0.301  24.723  0.00  0.00    +0.174 C 
ATOM     37  N   UNL     1      -1.623   0.521  24.711  0.00  0.00    -0.204 NA
ATOM     38  C   UNL     1      -2.239   0.992  24.994  0.00  0.00    +0.119 C 
ATOM     39  C   UNL     1      -2.106   1.850  24.955  0.00  0.00    +0.030 A 
ATOM     40  C   UNL     1      -2.739   2.291  25.245  0.00  0.00    +0.015 A 
ENDROOT
BRANCH  11   2
ATOM      1  C   UNL     1      -3.204   4.143  26.103  0.00  0.00    +0.112 C 
ATOM      2  N   UNL     1      -3.336   3.556  25.538  0.00  0.00    -0.305 N 
BRANCH   2   3
ATOM      3  C   UNL     1      -4.100   3.409  25.265  0.00  0.00    +0.097 C 
BRANCH   3   4
ATOM      4  C   UNL     1      -4.741   3.476  25.779  0.00  0.00    +0.067 C 
BRANCH   4   5
ATOM      5  C   UNL     1      -5.367   2.939  25.729  0.00  0.00    +0.061 A 
ATOM      6  N   UNL     1      -5.706   2.634  26.416  0.00  0.00    -0.248 NA
ATOM      7  C   UNL     1      -6.330   2.099  26.366  0.00  0.00    +0.098 A 
ATOM      8  C   UNL     1      -6.617   1.868  25.627  0.00  0.00    +0.021 A 
ATOM      9  C   UNL     1      -6.278   2.172  24.939  0.00  0.00    +0.003 A 
ATOM     10  C   UNL     1      -5.653   2.709  24.991  0.00  0.00    +0.015 A 
ENDBRANCH   4   5
ENDBRANCH   3   4
ENDBRANCH   2   3
ENDBRANCH  11   2
BRANCH  24  25
ATOM     25  C   UNL     1       1.664   0.632  23.257  0.00  0.00    +0.086 C 
BRANCH  25  26
ATOM     26  C   UNL     1       2.079   0.272  22.642  0.00  0.00    +0.226 C 
ATOM     27  O   UNL     1       1.685  -0.227  22.115  0.00  0.00    -0.275 OA
ATOM     28  N   UNL     1       2.887   0.410  22.552  0.00  0.00    -0.274 N 
ATOM     29  C   UNL     1       3.302   0.050  21.937  0.00  0.00    +0.125 C 
ATOM     30  C   UNL     1       4.110   0.188  21.848  0.00  0.00    +0.164 C 
ATOM     31  O   UNL     1       4.504   0.687  22.374  0.00  0.00    -0.350 OA
ATOM     32  C   UNL     1       4.090   1.048  22.990  0.00  0.00    +0.164 C 
ATOM     33  C   UNL     1       3.281   0.909  23.078  0.00  0.00    +0.125 C 
ENDBRANCH  25  26
ENDBRANCH  24  25
TORSDOF 6
ENDMDL
MODEL 4
REMARK VINA RESULT:      -7.2      1.599      2.823
REMARK  Name = 
REMARK  6 active torsions:
REMARK  status: ('A' for Active; 'I' for Inactive)
REMARK    1  A    between atoms: N_2  and  C_3
REMARK    2  A    between atoms: N_2  and  C_11
REMARK    3  A    between atoms: C_3  and  C_4
REMARK    4  A    between atoms: C_4  and  C_5
REMARK    5  A    between atoms: C_24  and  C_25
REMARK    6  A    between atoms: C_25  and  C_26
REMARK                            x       y       z     vdW  Elec       q    Type
REMARK                         _______ _______ _______ _____ _____    ______ ____
ROOT
ATOM     11  C   UNL     1       2.119   0.440  22.900  0.00  0.00    +0.048 A 
ATOM     12  C   UNL     1       1.738  -0.291  22.923  0.00  0.00    +0.018 A 
ATOM     13  C   UNL     1       0.989  -0.356  23.263  0.00  0.00    +0.038 A 
ATOM     14  C   UNL     1       0.621   0.310  23.580  0.00  0.00    +0.136 A 
ATOM     15  O   UNL     1       0.738  -0.475  23.357  0.00  0.00    -0.471 OA
ATOM     16  C   UNL     1       0.070  -0.906  23.580  0.00  0.00    +0.231 C 
ATOM     17  C   UNL     1      -0.459  -0.386  23.942  0.00  0.00    +0.016 C 
ATOM     18  C   UNL     1      -1.275  -0.380  24.329  0.00  0.00    -0.026 C 
ATOM     19  C   UNL     1      -1.614   0.305  24.636  0.00  0.00    +0.042 C 
ATOM     20  C   UNL     1      -1.207   1.021  24.597  0.00  0.00    +0.098 C 
ATOM     21  N   UNL     1      -1.546   1.708  24.904  0.00  0.00    -0.278 N 
ATOM     22  C   UNL     1      -2.294   1.677  25.251  0.00  0.00    +0.093 C 
ATOM     23  C   UNL     1      -2.702   0.962  25.291  0.00  0.00    +0.022 C 
ATOM     24  C   UNL     1      -2.362   0.276  24.983  0.00  0.00    +0.016 C 
ATOM     34  C   UNL     1      -1.138   2.423  24.865  0.00  0.00    +0.243 C 
ATOM     35  O   UNL     1      -1.478   3.109  25.172  0.00  0.00    -0.273 OA
ATOM     36  C   UNL     1      -0.390   2.454  24.517  0.00  0.00    +0.174 C 
ATOM     37  N   UNL     1      -0.051   1.767  24.210  0.00  0.00    -0.204 NA
ATOM     38  C   UNL     1       0.697   1.797  23.863  0.00  0.00    +0.119 C 
ATOM     39  C   UNL     1       1.001   1.043  23.557  0.00  0.00    +0.030 A 
ATOM     40  C   UNL     1       1.750   1.107  23.217  0.00  0.00    +0.015 A 
ENDROOT
BRANCH  11   2
ATOM      1  C   UNL     1       2.951   0.481  21.740  0.00  0.00    +0.112 C 
ATOM      2  N   UNL     1       2.867   0.506  22.560  0.00  0.00    -0.305 N 
BRANCH   2   3
ATOM      3  C   UNL     1       3.532   0.596  23.040  0.00  0.00    +0.097 C 
BRANCH   3   4
ATOM      4  C   UNL     1       4.266   0.318  22.785  0.00  0.00    +0.067 C 
BRANCH   4   5
ATOM      5  C   UNL     1       4.834   0.087  23.337  0.00  0.00    +0.061 A 
ATOM      6  N   UNL     1       4.893  -0.703  23.563  0.00  0.00    -0.248 NA
ATOM      7  C   UNL     1       5.460  -0.934  24.115  0.00  0.00    +0.098 A 
ATOM      8  C   UNL     1       5.970  -0.373  24.442  0.00  0.00    +0.021 A 
ATOM      9  C   UNL     1       5.911   0.419  24.216  0.00  0.00    +0.003 A 
ATOM     10  C   UNL     1       5.342   0.649  23.663  0.00  0.00    +0.015 A 
ENDBRANCH   4   5
ENDBRANCH   3   4
ENDBRANCH   2   3
ENDBRANCH  11   2
BRANCH  24  25
ATOM     25  C   UNL     1      -2.770  -0.440  25.023  0.00  0.00    +0.086 C 
BRANCH  25  26
ATOM     26  C   UNL     1      -3.450  -0.554  24.568  0.00  0.00    +0.226 C 
ATOM     27  O   UNL     1      -3.851   0.097  24.259  0.00  0.00    -0.275 OA
ATOM     28  N   UNL     1      -3.727  -1.316  24.423  0.00  0.00    -0.274 N 
ATOM     29  C   UNL     1      -4.406  -1.429  23.969  0.00  0.00    +0.125 C 
ATOM     30  C   UNL     1      -4.683  -2.192  23.824  0.00  0.00    +0.164 C 
ATOM     31  O   UNL     1      -4.282  -2.843  24.133  0.00  0.00    -0.350 OA
ATOM     32  C   UNL     1      -3.602  -2.731  24.588  0.00  0.00    +0.164 C 
ATOM     33  C   UNL     1      -3.325  -1.967  24.733  0.00  0.00    +0.125 C 
ENDBRANCH  25  26
ENDBRANCH  24  25
TORSDOF 6
ENDMDL
