MODEL 1
REMARK VINA RESULT:      -9.5      0.000      0.000
REMARK  Name = 
REMARK  8 active torsions:
REMARK  status: ('A' for Active; 'I' for Inactive)
REMARK    1  A    between atoms: O_2  and  C_3
REMARK    2  A    between atoms: C_4  and  C_9
REMARK    3  A    between atoms: C_13  and  C_15
REMARK    4  A    between atoms: C_22  and  C_23
REMARK    5  A    between atoms: C_23  and  O_24
REMARK    6  A    between atoms: O_24  and  C_25
REMARK    7  A    between atoms: N_27  and  C_28
REMARK    8  A    between atoms: C_31  and  C_34
REMARK                            x       y       z     vdW  Elec       q    Type
REMARK                         _______ _______ _______ _____ _____    ______ ____
ROOT
ATOM     15  C   UNL     1      -1.979   1.755  23.918  0.00  0.00    +0.056 C 
ATOM     16  C   UNL     1      -1.472   2.344  23.885  0.00  0.00    +0.078 C 
ATOM     17  N   UNL     1      -1.285   1.540  23.901  0.00  0.00    -0.270 NA
ATOM     18  C   UNL     1      -2.190   1.012  23.946  0.00  0.00    +0.072 C 
ATOM     19  C   UNL     1      -2.518   0.448  23.972  0.00  0.00    +0.018 C 
ATOM     20  C   UNL     1      -1.788   0.968  23.934  0.00  0.00    +0.010 C 
ATOM     21  C   UNL     1      -1.017   0.550  23.919  0.00  0.00    +0.020 C 
ATOM     22  C   UNL     1      -0.486   1.098  23.887  0.00  0.00    +0.102 C 
ENDROOT
BRANCH  15  13
ATOM      9  C   UNL     1      -4.034   2.126  24.366  0.00  0.00    +0.105 A 
ATOM     10  N   UNL     1      -3.997   2.365  23.577  0.00  0.00    -0.169 NA
ATOM     11  N   UNL     1      -3.223   2.255  23.314  0.00  0.00    -0.253 N 
ATOM     12  C   UNL     1      -2.939   2.423  22.557  0.00  0.00    +0.153 C 
ATOM     13  C   UNL     1      -2.782   1.948  23.939  0.00  0.00    +0.058 A 
ATOM     14  C   UNL     1      -3.283   1.868  24.590  0.00  0.00    +0.035 A 
BRANCH   9   4
ATOM      3  C   UNL     1      -4.837   2.781  25.350  0.00  0.00    +0.140 A 
ATOM      4  C   UNL     1      -4.704   2.142  24.846  0.00  0.00    +0.053 A 
ATOM      5  C   UNL     1      -5.243   1.517  24.822  0.00  0.00    +0.005 A 
ATOM      6  C   UNL     1      -5.914   1.533  25.303  0.00  0.00    +0.000 A 
ATOM      7  C   UNL     1      -6.046   2.172  25.807  0.00  0.00    +0.003 A 
ATOM      8  C   UNL     1      -5.507   2.797  25.830  0.00  0.00    +0.037 A 
BRANCH   3   2
ATOM      1  C   UNL     1      -4.411   4.028  25.901  0.00  0.00    +0.252 C 
ATOM      2  O   UNL     1      -4.298   3.405  25.374  0.00  0.00    -0.471 OA
ENDBRANCH   3   2
ENDBRANCH   9   4
ENDBRANCH  15  13
BRANCH  22  23
ATOM     23  C   UNL     1       0.328   1.219  23.856  0.00  0.00    +0.226 C 
BRANCH  23  24
ATOM     24  O   UNL     1       0.783   0.824  23.293  0.00  0.00    -0.432 OA
BRANCH  24  25
ATOM     25  C   UNL     1       1.603   0.791  23.373  0.00  0.00    +0.425 C 
ATOM     26  O   UNL     1       1.985   1.287  23.910  0.00  0.00    -0.224 OA
ATOM     27  N   UNL     1       2.042   0.263  22.916  0.00  0.00    -0.142 NA
BRANCH  27  28
ATOM     28  C   UNL     1       2.863   0.231  22.997  0.00  0.00    +0.077 A 
ATOM     29  C   UNL     1       3.217  -0.427  23.346  0.00  0.00    +0.016 A 
ATOM     30  C   UNL     1       4.038  -0.459  23.427  0.00  0.00    -0.003 A 
ATOM     31  C   UNL     1       4.504   0.166  23.158  0.00  0.00    -0.022 A 
ATOM     32  C   UNL     1       4.149   0.824  22.808  0.00  0.00    -0.003 A 
ATOM     33  C   UNL     1       3.329   0.856  22.728  0.00  0.00    +0.016 A 
BRANCH  31  34
ATOM     34  C   UNL     1       5.324   0.133  23.239  0.00  0.00    +0.022 C 
ATOM     35  C   UNL     1       5.688   0.467  23.899  0.00  0.00    +0.005 C 
ATOM     36  C   UNL     1       5.780  -0.235  22.658  0.00  0.00    +0.005 C 
ENDBRANCH  31  34
ENDBRANCH  27  28
ENDBRANCH  24  25
ENDBRANCH  23  24
ENDBRANCH  22  23
TORSDOF 8
ENDMDL
MODEL 2
REMARK VINA RESULT:      -7.6      1.242      7.723
REMARK  Name = 
REMARK  8 active torsions:
REMARK  status: ('A' for Active; 'I' for Inactive)
REMARK    1  A    between atoms: O_2  and  C_3
REMARK    2  A    between atoms: C_4  and  C_9
REMARK    3  A    between atoms: C_13  and  C_15
REMARK    4  A    between atoms: C_22  and  C_23
REMARK    5  A    between atoms: C_23  and  O_24
REMARK    6  A    between atoms: O_24  and  C_25
REMARK    7  A    between atoms: N_27  and  C_28
REMARK    8  A    between atoms: C_31  and  C_34
REMARK                            x       y       z     vdW  Elec       q    Type
REMARK                         _______ _______ _______ _____ _____    ______ ____
ROOT
ATOM     15  C   UNL     1       1.021   0.179  23.322  0.00  0.00    +0.056 C 
ATOM     16  C   UNL     1       0.568  -0.454  23.314  0.00  0.00    +0.078 C 
ATOM     17  N   UNL     1       0.360   0.291  23.601  0.00  0.00    -0.270 NA
ATOM     18  C   UNL     1       1.189   0.918  23.467  0.00  0.00    +0.072 C 
ATOM     19  C   UNL     1       1.474   1.503  23.525  0.00  0.00    +0.018 C 
ATOM     20  C   UNL     1       0.809   0.907  23.606  0.00  0.00    +0.010 C 
ATOM     21  C   UNL     1       0.067   1.204  23.967  0.00  0.00    +0.020 C 
ATOM     22  C   UNL     1      -0.410   0.607  23.977  0.00  0.00    +0.102 C 
ENDROOT
BRANCH  15  13
ATOM      9  C   UNL     1       3.114   0.090  22.908  0.00  0.00    +0.105 A 
ATOM     10  N   UNL     1       2.798  -0.127  22.178  0.00  0.00    -0.169 NA
ATOM     11  N   UNL     1       1.976  -0.120  22.244  0.00  0.00    -0.253 N 
ATOM     12  C   UNL     1       1.439  -0.302  21.644  0.00  0.00    +0.153 C 
ATOM     13  C   UNL     1       1.784   0.101  23.015  0.00  0.00    +0.058 A 
ATOM     14  C   UNL     1       2.488   0.231  23.426  0.00  0.00    +0.035 A 
BRANCH   9   4
ATOM      3  C   UNL     1       4.318  -0.484  23.423  0.00  0.00    +0.140 A 
ATOM      4  C   UNL     1       3.916   0.155  23.089  0.00  0.00    +0.053 A 
ATOM      5  C   UNL     1       4.318   0.859  22.936  0.00  0.00    +0.005 A 
ATOM      6  C   UNL     1       5.121   0.924  23.118  0.00  0.00    +0.000 A 
ATOM      7  C   UNL     1       5.521   0.285  23.451  0.00  0.00    +0.003 A 
ATOM      8  C   UNL     1       5.120  -0.419  23.604  0.00  0.00    +0.037 A 
BRANCH   3   2
ATOM      1  C   UNL     1       4.317  -1.828  23.906  0.00  0.00    +0.252 C 
ATOM      2  O   UNL     1       3.916  -1.188  23.575  0.00  0.00    -0.471 OA
ENDBRANCH   3   2
ENDBRANCH   9   4
ENDBRANCH  15  13
BRANCH  22  23
ATOM     23  C   UNL     1      -1.171   0.381  24.198  0.00  0.00    +0.226 C 
BRANCH  23  24
ATOM     24  O   UNL     1      -1.823   0.665  23.780  0.00  0.00    -0.432 OA
BRANCH  24  25
ATOM     25  C   UNL     1      -2.507   0.888  24.183  0.00  0.00    +0.425 C 
ATOM     26  O   UNL     1      -2.549   0.803  25.002  0.00  0.00    -0.224 OA
ATOM     27  N   UNL     1      -3.150   1.195  23.767  0.00  0.00    -0.142 NA
BRANCH  27  28
ATOM     28  C   UNL     1      -3.835   1.417  24.171  0.00  0.00    +0.077 A 
ATOM     29  C   UNL     1      -4.003   2.216  24.289  0.00  0.00    +0.016 A 
ATOM     30  C   UNL     1      -4.687   2.438  24.693  0.00  0.00    -0.003 A 
ATOM     31  C   UNL     1      -5.204   1.862  24.978  0.00  0.00    -0.022 A 
ATOM     32  C   UNL     1      -5.036   1.063  24.860  0.00  0.00    -0.003 A 
ATOM     33  C   UNL     1      -4.351   0.840  24.456  0.00  0.00    +0.016 A 
BRANCH  31  34
ATOM     34  C   UNL     1      -5.887   2.085  25.382  0.00  0.00    +0.022 C 
ATOM     35  C   UNL     1      -6.626   1.828  25.117  0.00  0.00    +0.005 C 
ATOM     36  C   UNL     1      -5.832   2.565  26.050  0.00  0.00    +0.005 C 
ENDBRANCH  31  34
ENDBRANCH  27  28
ENDBRANCH  24  25
ENDBRANCH  23  24
ENDBRANCH  22  23
TORSDOF 8
ENDMDL
