MODEL 1
REMARK VINA RESULT:     -12.7      0.000      0.000
REMARK  Name = 
REMARK  2 active torsions:
REMARK  status: ('A' for Active; 'I' for Inactive)
REMARK    1  A    between atoms: C_3  and  C_11
REMARK    2  A    between atoms: C_16  and  C_18
REMARK                            x       y       z     vdW  Elec       q    Type
REMARK                         _______ _______ _______ _____ _____    ______ ____
ROOT
ATOM     11  C   UNL     1      -4.568   1.270  25.017  0.00  0.00    +0.078 C 
ATOM     12  C   UNL     1      -5.368   1.454  24.938  0.00  0.00    +0.031 C 
ATOM     13  C   UNL     1      -5.448   2.274  24.996  0.00  0.00    +0.094 C 
ATOM     14  N   UNL     1      -4.697   2.595  25.111  0.00  0.00    -0.276 N 
ATOM     15  C   UNL     1      -4.153   1.975  25.124  0.00  0.00    +0.101 C 
ATOM     16  C   UNL     1      -4.521   3.396  25.198  0.00  0.00    +0.249 C 
ATOM     17  O   UNL     1      -5.126   3.957  25.172  0.00  0.00    -0.270 OA
ENDROOT
BRANCH  11   3
ATOM      1  C   UNL     1      -3.893   0.457  23.567  0.00  0.00    +0.132 C 
ATOM      2  N   UNL     1      -3.930   0.139  24.326  0.00  0.00    -0.313 N 
ATOM      3  C   UNL     1      -4.241   0.513  24.994  0.00  0.00    +0.122 A 
ATOM      4  N   UNL     1      -4.166  -0.003  25.633  0.00  0.00    -0.231 NA
ATOM      5  C   UNL     1      -3.809  -0.695  25.361  0.00  0.00    +0.098 A 
ATOM      6  C   UNL     1      -3.663  -0.607  24.554  0.00  0.00    +0.079 A 
ATOM      7  C   UNL     1      -3.306  -1.219  24.130  0.00  0.00    +0.019 A 
ATOM      8  C   UNL     1      -3.095  -1.918  24.513  0.00  0.00    +0.002 A 
ATOM      9  C   UNL     1      -3.241  -2.006  25.320  0.00  0.00    +0.002 A 
ATOM     10  C   UNL     1      -3.598  -1.395  25.745  0.00  0.00    +0.021 A 
ENDBRANCH  11   3
BRANCH  16  18
ATOM     18  C   UNL     1      -3.740   3.637  25.310  0.00  0.00    +0.054 A 
ATOM     19  C   UNL     1      -3.444   3.735  26.074  0.00  0.00    +0.007 A 
ATOM     20  C   UNL     1      -2.663   3.976  26.185  0.00  0.00    +0.030 A 
ATOM     21  C   UNL     1      -2.178   4.119  25.534  0.00  0.00    +0.140 A 
ATOM     22  F   UNL     1      -1.398   4.360  25.646  0.00  0.00    -0.204 F 
ATOM     23  C   UNL     1      -2.475   4.022  24.770  0.00  0.00    +0.030 A 
ATOM     24  C   UNL     1      -3.256   3.781  24.657  0.00  0.00    +0.007 A 
ENDBRANCH  16  18
TORSDOF 2
ENDMDL
MODEL 2
REMARK VINA RESULT:     -12.2      1.648      2.294
REMARK  Name = 
REMARK  2 active torsions:
REMARK  status: ('A' for Active; 'I' for Inactive)
REMARK    1  A    between atoms: C_3  and  C_11
REMARK    2  A    between atoms: C_16  and  C_18
REMARK                            x       y       z     vdW  Elec       q    Type
REMARK                         _______ _______ _______ _____ _____    ______ ____
ROOT
ATOM     11  C   UNL     1      -2.484   0.838  24.382  0.00  0.00    +0.078 C 
ATOM     12  C   UNL     1      -1.714   1.035  24.161  0.00  0.00    +0.031 C 
ATOM     13  C   UNL     1      -1.635   1.855  24.214  0.00  0.00    +0.094 C 
ATOM     14  N   UNL     1      -2.357   2.164  24.468  0.00  0.00    -0.276 N 
ATOM     15  C   UNL     1      -2.881   1.536  24.572  0.00  0.00    +0.101 C 
ATOM     16  C   UNL     1      -2.524   2.962  24.596  0.00  0.00    +0.249 C 
ATOM     17  O   UNL     1      -1.940   3.531  24.468  0.00  0.00    -0.270 OA
ENDROOT
BRANCH  11   3
ATOM      1  C   UNL     1      -1.980  -0.477  25.495  0.00  0.00    +0.132 C 
ATOM      2  N   UNL     1      -2.569  -0.528  24.920  0.00  0.00    -0.313 N 
ATOM      3  C   UNL     1      -2.801   0.077  24.408  0.00  0.00    +0.122 A 
ATOM      4  N   UNL     1      -3.406  -0.214  23.928  0.00  0.00    -0.231 NA
ATOM      5  C   UNL     1      -3.547  -0.997  24.143  0.00  0.00    +0.098 A 
ATOM      6  C   UNL     1      -3.030  -1.191  24.756  0.00  0.00    +0.079 A 
ATOM      7  C   UNL     1      -3.047  -1.948  25.085  0.00  0.00    +0.019 A 
ATOM      8  C   UNL     1      -3.580  -2.509  24.802  0.00  0.00    +0.002 A 
ATOM      9  C   UNL     1      -4.097  -2.315  24.189  0.00  0.00    +0.002 A 
ATOM     10  C   UNL     1      -4.081  -1.559  23.859  0.00  0.00    +0.021 A 
ENDBRANCH  11   3
BRANCH  16  18
ATOM     18  C   UNL     1      -3.274   3.190  24.851  0.00  0.00    +0.054 A 
ATOM     19  C   UNL     1      -3.879   3.309  24.301  0.00  0.00    +0.007 A 
ATOM     20  C   UNL     1      -4.628   3.537  24.557  0.00  0.00    +0.030 A 
ATOM     21  C   UNL     1      -4.775   3.647  25.361  0.00  0.00    +0.140 A 
ATOM     22  F   UNL     1      -5.525   3.875  25.616  0.00  0.00    -0.204 F 
ATOM     23  C   UNL     1      -4.171   3.528  25.910  0.00  0.00    +0.030 A 
ATOM     24  C   UNL     1      -3.420   3.299  25.655  0.00  0.00    +0.007 A 
ENDBRANCH  16  18
TORSDOF 2
ENDMDL
MODEL 3
REMARK VINA RESULT:     -11.9      1.860      4.376
REMARK  Name = 
REMARK  2 active torsions:
REMARK  status: ('A' for Active; 'I' for Inactive)
REMARK    1  A    between atoms: C_3  and  C_11
REMARK    2  A    between atoms: C_16  and  C_18
REMARK                            x       y       z     vdW  Elec       q    Type
REMARK                         _______ _______ _______ _____ _____    ______ ____
ROOT
ATOM     11  C   UNL     1      -3.653   2.296  24.748  0.00  0.00    +0.078 C 
ATOM     12  C   UNL     1      -4.428   2.557  24.646  0.00  0.00    +0.031 C 
ATOM     13  C   UNL     1      -4.921   1.895  24.633  0.00  0.00    +0.094 C 
ATOM     14  N   UNL     1      -4.449   1.224  24.727  0.00  0.00    -0.276 N 
ATOM     15  C   UNL     1      -3.665   1.472  24.798  0.00  0.00    +0.101 C 
ATOM     16  C   UNL     1      -4.715   0.444  24.746  0.00  0.00    +0.249 C 
ATOM     17  O   UNL     1      -5.520   0.280  24.667  0.00  0.00    -0.270 OA
ENDROOT
BRANCH  11   3
ATOM      1  C   UNL     1      -3.482   3.786  25.734  0.00  0.00    +0.132 C 
ATOM      2  N   UNL     1      -2.904   3.459  25.246  0.00  0.00    -0.313 N 
ATOM      3  C   UNL     1      -2.982   2.774  24.793  0.00  0.00    +0.122 A 
ATOM      4  N   UNL     1      -2.271   2.652  24.392  0.00  0.00    -0.231 NA
ATOM      5  C   UNL     1      -1.755   3.260  24.597  0.00  0.00    +0.098 A 
ATOM      6  C   UNL     1      -2.145   3.759  25.125  0.00  0.00    +0.079 A 
ATOM      7  C   UNL     1      -1.759   4.423  25.428  0.00  0.00    +0.019 A 
ATOM      8  C   UNL     1      -0.983   4.587  25.203  0.00  0.00    +0.002 A 
ATOM      9  C   UNL     1      -0.593   4.088  24.675  0.00  0.00    +0.002 A 
ATOM     10  C   UNL     1      -0.978   3.425  24.372  0.00  0.00    +0.021 A 
ENDBRANCH  11   3
BRANCH  16  18
ATOM     18  C   UNL     1      -4.176  -0.173  24.845  0.00  0.00    +0.054 A 
ATOM     19  C   UNL     1      -3.942  -0.399  25.603  0.00  0.00    +0.007 A 
ATOM     20  C   UNL     1      -3.404  -1.016  25.701  0.00  0.00    +0.030 A 
ATOM     21  C   UNL     1      -3.098  -1.406  25.042  0.00  0.00    +0.140 A 
ATOM     22  F   UNL     1      -2.560  -2.023  25.140  0.00  0.00    -0.204 F 
ATOM     23  C   UNL     1      -3.332  -1.180  24.283  0.00  0.00    +0.030 A 
ATOM     24  C   UNL     1      -3.871  -0.563  24.185  0.00  0.00    +0.007 A 
ENDBRANCH  16  18
TORSDOF 2
ENDMDL
MODEL 4
REMARK VINA RESULT:     -11.7      2.695      4.918
REMARK  Name = 
REMARK  2 active torsions:
REMARK  status: ('A' for Active; 'I' for Inactive)
REMARK    1  A    between atoms: C_3  and  C_11
REMARK    2  A    between atoms: C_16  and  C_18
REMARK                            x       y       z     vdW  Elec       q    Type
REMARK                         _______ _______ _______ _____ _____    ______ ____
ROOT
ATOM     11  C   UNL     1      -1.994   0.926  24.950  0.00  0.00    +0.078 C 
ATOM     12  C   UNL     1      -1.199   1.001  25.156  0.00  0.00    +0.031 C 
ATOM     13  C   UNL     1      -0.896   0.244  25.283  0.00  0.00    +0.094 C 
ATOM     14  N   UNL     1      -1.503  -0.299  25.155  0.00  0.00    -0.276 N 
ATOM     15  C   UNL     1      -2.182   0.123  24.948  0.00  0.00    +0.101 C 
ATOM     16  C   UNL     1      -1.443  -1.118  25.220  0.00  0.00    +0.249 C 
ATOM     17  O   UNL     1      -0.724  -1.463  25.432  0.00  0.00    -0.270 OA
ENDROOT
BRANCH  11   3
ATOM      1  C   UNL     1      -2.299   1.618  23.322  0.00  0.00    +0.132 C 
ATOM      2  N   UNL     1      -2.650   1.864  24.026  0.00  0.00    -0.313 N 
ATOM      3  C   UNL     1      -2.510   1.546  24.775  0.00  0.00    +0.122 A 
ATOM      4  N   UNL     1      -2.977   1.956  25.317  0.00  0.00    -0.231 NA
ATOM      5  C   UNL     1      -3.405   2.526  24.904  0.00  0.00    +0.098 A 
ATOM      6  C   UNL     1      -3.203   2.470  24.107  0.00  0.00    +0.079 A 
ATOM      7  C   UNL     1      -3.550   2.978  23.557  0.00  0.00    +0.019 A 
ATOM      8  C   UNL     1      -4.098   3.542  23.804  0.00  0.00    +0.002 A 
ATOM      9  C   UNL     1      -4.300   3.599  24.602  0.00  0.00    +0.002 A 
ATOM     10  C   UNL     1      -3.954   3.092  25.152  0.00  0.00    +0.021 A 
ENDBRANCH  11   3
BRANCH  16  18
ATOM     18  C   UNL     1      -2.101  -1.594  25.074  0.00  0.00    +0.054 A 
ATOM     19  C   UNL     1      -2.698  -1.657  25.641  0.00  0.00    +0.007 A 
ATOM     20  C   UNL     1      -3.355  -2.132  25.494  0.00  0.00    +0.030 A 
ATOM     21  C   UNL     1      -3.417  -2.545  24.782  0.00  0.00    +0.140 A 
ATOM     22  F   UNL     1      -4.075  -3.020  24.636  0.00  0.00    -0.204 F 
ATOM     23  C   UNL     1      -2.820  -2.481  24.216  0.00  0.00    +0.030 A 
ATOM     24  C   UNL     1      -2.161  -2.006  24.362  0.00  0.00    +0.007 A 
ENDBRANCH  16  18
TORSDOF 2
ENDMDL
MODEL 5
REMARK VINA RESULT:     -11.6      2.462      3.082
REMARK  Name = 
REMARK  2 active torsions:
REMARK  status: ('A' for Active; 'I' for Inactive)
REMARK    1  A    between atoms: C_3  and  C_11
REMARK    2  A    between atoms: C_16  and  C_18
REMARK                            x       y       z     vdW  Elec       q    Type
REMARK                         _______ _______ _______ _____ _____    ______ ____
ROOT
ATOM     11  C   UNL     1      -0.983   2.105  25.312  0.00  0.00    +0.078 C 
ATOM     12  C   UNL     1      -0.352   2.619  25.445  0.00  0.00    +0.031 C 
ATOM     13  C   UNL     1      -0.653   3.386  25.497  0.00  0.00    +0.094 C 
ATOM     14  N   UNL     1      -1.471   3.345  25.396  0.00  0.00    -0.276 N 
ATOM     15  C   UNL     1      -1.675   2.554  25.282  0.00  0.00    +0.101 C 
ATOM     16  C   UNL     1      -1.993   3.984  25.408  0.00  0.00    +0.249 C 
ATOM     17  O   UNL     1      -1.707   4.748  25.529  0.00  0.00    -0.270 OA
ENDROOT
BRANCH  11   3
ATOM      1  C   UNL     1      -0.283   1.237  23.906  0.00  0.00    +0.132 C 
ATOM      2  N   UNL     1      -0.610   0.887  24.577  0.00  0.00    -0.313 N 
ATOM      3  C   UNL     1      -0.932   1.287  25.224  0.00  0.00    +0.122 A 
ATOM      4  N   UNL     1      -1.193   0.723  25.767  0.00  0.00    -0.231 NA
ATOM      5  C   UNL     1      -1.033  -0.023  25.456  0.00  0.00    +0.098 A 
ATOM      6  C   UNL     1      -0.672   0.078  24.721  0.00  0.00    +0.079 A 
ATOM      7  C   UNL     1      -0.448  -0.581  24.278  0.00  0.00    +0.019 A 
ATOM      8  C   UNL     1      -0.583  -1.340  24.569  0.00  0.00    +0.002 A 
ATOM      9  C   UNL     1      -0.944  -1.441  25.304  0.00  0.00    +0.002 A 
ATOM     10  C   UNL     1      -1.169  -0.784  25.748  0.00  0.00    +0.021 A 
ENDBRANCH  11   3
BRANCH  16  18
ATOM     18  C   UNL     1      -2.801   3.858  25.299  0.00  0.00    +0.054 A 
ATOM     19  C   UNL     1      -3.112   3.815  24.535  0.00  0.00    +0.007 A 
ATOM     20  C   UNL     1      -3.920   3.689  24.427  0.00  0.00    +0.030 A 
ATOM     21  C   UNL     1      -4.417   3.607  25.080  0.00  0.00    +0.140 A 
ATOM     22  F   UNL     1      -5.224   3.481  24.970  0.00  0.00    -0.204 F 
ATOM     23  C   UNL     1      -4.106   3.650  25.843  0.00  0.00    +0.030 A 
ATOM     24  C   UNL     1      -3.297   3.776  25.953  0.00  0.00    +0.007 A 
ENDBRANCH  16  18
TORSDOF 2
ENDMDL
MODEL 6
REMARK VINA RESULT:     -11.6      2.493      3.273
REMARK  Name = 
REMARK  2 active torsions:
REMARK  status: ('A' for Active; 'I' for Inactive)
REMARK    1  A    between atoms: C_3  and  C_11
REMARK    2  A    between atoms: C_16  and  C_18
REMARK                            x       y       z     vdW  Elec       q    Type
REMARK                         _______ _______ _______ _____ _____    ______ ____
ROOT
ATOM     11  C   UNL     1      -1.024   0.121  24.327  0.00  0.00    +0.078 C 
ATOM     12  C   UNL     1      -0.304  -0.086  23.982  0.00  0.00    +0.031 C 
ATOM     13  C   UNL     1       0.195   0.571  24.019  0.00  0.00    +0.094 C 
ATOM     14  N   UNL     1      -0.217   1.184  24.387  0.00  0.00    -0.276 N 
ATOM     15  C   UNL     1      -0.970   0.906  24.578  0.00  0.00    +0.101 C 
ATOM     16  C   UNL     1       0.073   1.941  24.538  0.00  0.00    +0.249 C 
ATOM     17  O   UNL     1       0.842   2.140  24.314  0.00  0.00    -0.270 OA
ENDROOT
BRANCH  11   3
ATOM      1  C   UNL     1      -1.055  -1.473  25.151  0.00  0.00    +0.132 C 
ATOM      2  N   UNL     1      -1.696  -1.103  24.787  0.00  0.00    -0.313 N 
ATOM      3  C   UNL     1      -1.682  -0.370  24.408  0.00  0.00    +0.122 A 
ATOM      4  N   UNL     1      -2.440  -0.215  24.125  0.00  0.00    -0.231 NA
ATOM      5  C   UNL     1      -2.924  -0.851  24.329  0.00  0.00    +0.098 A 
ATOM      6  C   UNL     1      -2.463  -1.400  24.738  0.00  0.00    +0.079 A 
ATOM      7  C   UNL     1      -2.804  -2.100  25.013  0.00  0.00    +0.019 A 
ATOM      8  C   UNL     1      -3.603  -2.251  24.878  0.00  0.00    +0.002 A 
ATOM      9  C   UNL     1      -4.063  -1.702  24.469  0.00  0.00    +0.002 A 
ATOM     10  C   UNL     1      -3.724  -1.002  24.194  0.00  0.00    +0.021 A 
ENDBRANCH  11   3
BRANCH  16  18
ATOM     18  C   UNL     1      -0.405   2.499  24.912  0.00  0.00    +0.054 A 
ATOM     19  C   UNL     1      -0.446   2.521  25.736  0.00  0.00    +0.007 A 
ATOM     20  C   UNL     1      -0.925   3.079  26.110  0.00  0.00    +0.030 A 
ATOM     21  C   UNL     1      -1.362   3.615  25.661  0.00  0.00    +0.140 A 
ATOM     22  F   UNL     1      -1.840   4.173  26.036  0.00  0.00    -0.204 F 
ATOM     23  C   UNL     1      -1.321   3.593  24.837  0.00  0.00    +0.030 A 
ATOM     24  C   UNL     1      -0.842   3.035  24.462  0.00  0.00    +0.007 A 
ENDBRANCH  16  18
TORSDOF 2
ENDMDL
