MODEL 1
REMARK VINA RESULT:     -16.0      0.000      0.000
REMARK  Name = 
REMARK  6 active torsions:
REMARK  status: ('A' for Active; 'I' for Inactive)
REMARK    1  A    between atoms: O_2  and  C_3
REMARK    2  A    between atoms: C_6  and  C_9
REMARK    3  A    between atoms: C_20  and  N_21
REMARK    4  A    between atoms: N_21  and  S_22
REMARK    5  A    between atoms: S_22  and  C_25
REMARK    6  A    between atoms: C_27  and  C_31
REMARK                            x       y       z     vdW  Elec       q    Type
REMARK                         _______ _______ _______ _____ _____    ______ ____
ROOT
ATOM      9  C   UNL     1      -2.175  -0.491  25.559  0.00  0.00    +0.249 C 
ATOM     10  O   UNL     1      -1.718  -0.792  26.223  0.00  0.00    -0.270 OA
ATOM     11  N   UNL     1      -2.753  -1.084  25.299  0.00  0.00    -0.276 N 
ATOM     12  C   UNL     1      -3.117  -1.834  25.361  0.00  0.00    +0.096 C 
ATOM     13  C   UNL     1      -3.771  -1.762  24.624  0.00  0.00    +0.043 C 
ATOM     14  C   UNL     1      -4.354  -1.860  24.064  0.00  0.00    +0.011 C 
ATOM     15  C   UNL     1      -3.896  -1.364  24.254  0.00  0.00    +0.058 C 
ATOM     16  C   UNL     1      -3.269  -1.448  24.970  0.00  0.00    +0.099 C 
ATOM     17  C   UNL     1      -3.623  -0.513  24.037  0.00  0.00    +0.041 A 
ATOM     18  C   UNL     1      -3.784   0.095  23.504  0.00  0.00    +0.014 A 
ATOM     19  C   UNL     1      -3.355   0.798  23.539  0.00  0.00    +0.024 A 
ATOM     20  C   UNL     1      -2.765   0.894  24.108  0.00  0.00    +0.147 A 
ATOM     35  C   UNL     1      -2.604   0.286  24.641  0.00  0.00    +0.277 A 
ATOM     36  O   UNL     1      -2.067   0.945  24.817  0.00  0.00    -0.266 OA
ATOM     37  N   UNL     1      -3.033  -0.418  24.606  0.00  0.00    -0.298 N 
ATOM     38  C   UNL     1      -3.479  -0.874  24.405  0.00  0.00    +0.110 C 
ENDROOT
BRANCH   9   6
ATOM      3  C   UNL     1      -2.414   1.805  23.822  0.00  0.00    +0.139 A 
ATOM      4  C   UNL     1      -2.959   1.499  24.472  0.00  0.00    +0.037 A 
ATOM      5  C   UNL     1      -2.904   0.761  25.046  0.00  0.00    +0.008 A 
ATOM      6  C   UNL     1      -2.270   0.234  25.026  0.00  0.00    +0.054 A 
ATOM      7  C   UNL     1      -1.656   0.346  24.487  0.00  0.00    +0.008 A 
ATOM      8  C   UNL     1      -1.676   0.987  23.967  0.00  0.00    +0.037 A 
BRANCH   3   2
ATOM      1  C   UNL     1      -2.298   2.222  22.611  0.00  0.00    +0.252 C 
ATOM      2  O   UNL     1      -1.726   1.950  23.202  0.00  0.00    -0.471 OA
ENDBRANCH   3   2
ENDBRANCH   9   6
BRANCH  20  21
ATOM     21  N   UNL     1      -2.209   1.629  24.259  0.00  0.00    -0.092 NA
BRANCH  21  22
ATOM     22  S   UNL     1      -2.625   2.403  24.661  0.00  0.00    +0.093 S 
ATOM     23  O   UNL     1      -2.015   2.638  25.287  0.00  0.00    -0.148 OA
ATOM     24  O   UNL     1      -3.519   2.615  24.236  0.00  0.00    -0.148 OA
BRANCH  22  25
ATOM     25  C   UNL     1      -2.700   3.026  25.163  0.00  0.00    +0.127 A 
ATOM     26  C   UNL     1      -2.085   3.520  24.922  0.00  0.00    +0.024 A 
ATOM     27  C   UNL     1      -1.962   4.241  25.304  0.00  0.00    +0.073 A 
ATOM     28  C   UNL     1      -2.454   4.467  25.926  0.00  0.00    +0.004 A 
ATOM     29  C   UNL     1      -3.069   3.973  26.167  0.00  0.00    +0.001 A 
ATOM     30  C   UNL     1      -3.192   3.252  25.785  0.00  0.00    +0.020 A 
BRANCH  27  31
ATOM     31  C   UNL     1      -1.282   4.860  25.089  0.00  0.00    +0.419 C 
ATOM     32  F   UNL     1      -0.675   5.456  24.887  0.00  0.00    -0.166 F 
ATOM     33  F   UNL     1      -1.659   5.638  24.967  0.00  0.00    -0.166 F 
ATOM     34  F   UNL     1      -0.446   4.567  25.050  0.00  0.00    -0.166 F 
ENDBRANCH  27  31
ENDBRANCH  22  25
ENDBRANCH  21  22
ENDBRANCH  20  21
TORSDOF 6
ENDMDL
MODEL 2
REMARK VINA RESULT:     -16.0      2.522      4.687
REMARK  Name = 
REMARK  6 active torsions:
REMARK  status: ('A' for Active; 'I' for Inactive)
REMARK    1  A    between atoms: O_2  and  C_3
REMARK    2  A    between atoms: C_6  and  C_9
REMARK    3  A    between atoms: C_20  and  N_21
REMARK    4  A    between atoms: N_21  and  S_22
REMARK    5  A    between atoms: S_22  and  C_25
REMARK    6  A    between atoms: C_27  and  C_31
REMARK                            x       y       z     vdW  Elec       q    Type
REMARK                         _______ _______ _______ _____ _____    ______ ____
ROOT
ATOM      9  C   UNL     1      -3.549   3.403  25.565  0.00  0.00    +0.249 C 
ATOM     10  O   UNL     1      -4.186   3.678  26.073  0.00  0.00    -0.270 OA
ATOM     11  N   UNL     1      -2.884   3.962  25.587  0.00  0.00    -0.276 N 
ATOM     12  C   UNL     1      -2.522   4.664  25.859  0.00  0.00    +0.096 C 
ATOM     13  C   UNL     1      -1.662   4.604  25.376  0.00  0.00    +0.043 C 
ATOM     14  C   UNL     1      -0.919   4.702  25.057  0.00  0.00    +0.011 C 
ATOM     15  C   UNL     1      -1.442   4.235  25.021  0.00  0.00    +0.058 C 
ATOM     16  C   UNL     1      -2.268   4.307  25.495  0.00  0.00    +0.099 C 
ATOM     17  C   UNL     1      -1.673   3.441  24.621  0.00  0.00    +0.041 A 
ATOM     18  C   UNL     1      -1.375   2.877  24.098  0.00  0.00    +0.014 A 
ATOM     19  C   UNL     1      -1.829   2.217  23.900  0.00  0.00    +0.024 A 
ATOM     20  C   UNL     1      -2.581   2.121  24.226  0.00  0.00    +0.147 A 
ATOM     35  C   UNL     1      -2.879   2.685  24.749  0.00  0.00    +0.277 A 
ATOM     36  O   UNL     1      -3.479   2.066  24.654  0.00  0.00    -0.266 OA
ATOM     37  N   UNL     1      -2.425   3.345  24.946  0.00  0.00    -0.298 N 
ATOM     38  C   UNL     1      -1.912   3.775  24.963  0.00  0.00    +0.110 C 
ENDROOT
BRANCH   9   6
ATOM      3  C   UNL     1      -2.865   1.281  23.729  0.00  0.00    +0.139 A 
ATOM      4  C   UNL     1      -2.550   1.472  24.551  0.00  0.00    +0.037 A 
ATOM      5  C   UNL     1      -2.754   2.151  25.163  0.00  0.00    +0.008 A 
ATOM      6  C   UNL     1      -3.319   2.730  25.006  0.00  0.00    +0.054 A 
ATOM      7  C   UNL     1      -3.727   2.726  24.289  0.00  0.00    +0.008 A 
ATOM      8  C   UNL     1      -3.570   2.141  23.729  0.00  0.00    +0.037 A 
BRANCH   3   2
ATOM      1  C   UNL     1      -2.594   1.013  22.501  0.00  0.00    +0.252 C 
ATOM      2  O   UNL     1      -3.319   1.258  22.908  0.00  0.00    -0.471 OA
ENDBRANCH   3   2
ENDBRANCH   9   6
BRANCH  20  21
ATOM     21  N   UNL     1      -3.195   1.431  24.091  0.00  0.00    -0.092 NA
BRANCH  21  22
ATOM     22  S   UNL     1      -3.001   0.594  24.535  0.00  0.00    +0.093 S 
ATOM     23  O   UNL     1      -3.815   0.359  24.852  0.00  0.00    -0.148 OA
ATOM     24  O   UNL     1      -2.022   0.347  24.462  0.00  0.00    -0.148 OA
BRANCH  22  25
ATOM     25  C   UNL     1      -3.153  -0.072  24.956  0.00  0.00    +0.127 A 
ATOM     26  C   UNL     1      -3.476  -0.572  24.385  0.00  0.00    +0.024 A 
ATOM     27  C   UNL     1      -3.714  -1.334  24.590  0.00  0.00    +0.073 A 
ATOM     28  C   UNL     1      -3.630  -1.597  25.368  0.00  0.00    +0.004 A 
ATOM     29  C   UNL     1      -3.308  -1.097  25.940  0.00  0.00    +0.001 A 
ATOM     30  C   UNL     1      -3.069  -0.335  25.734  0.00  0.00    +0.020 A 
BRANCH  27  31
ATOM     31  C   UNL     1      -4.091  -1.964  23.996  0.00  0.00    +0.419 C 
ATOM     32  F   UNL     1      -4.415  -2.565  23.451  0.00  0.00    -0.166 F 
ATOM     33  F   UNL     1      -3.544  -2.641  23.942  0.00  0.00    -0.166 F 
ATOM     34  F   UNL     1      -4.874  -1.773  23.626  0.00  0.00    -0.166 F 
ENDBRANCH  27  31
ENDBRANCH  22  25
ENDBRANCH  21  22
ENDBRANCH  20  21
TORSDOF 6
ENDMDL
MODEL 3
REMARK VINA RESULT:     -15.6      0.775      1.298
REMARK  Name = 
REMARK  6 active torsions:
REMARK  status: ('A' for Active; 'I' for Inactive)
REMARK    1  A    between atoms: O_2  and  C_3
REMARK    2  A    between atoms: C_6  and  C_9
REMARK    3  A    between atoms: C_20  and  N_21
REMARK    4  A    between atoms: N_21  and  S_22
REMARK    5  A    between atoms: S_22  and  C_25
REMARK    6  A    between atoms: C_27  and  C_31
REMARK                            x       y       z     vdW  Elec       q    Type
REMARK                         _______ _______ _______ _____ _____    ______ ____
ROOT
ATOM      9  C   UNL     1      -4.199  -0.021  24.557  0.00  0.00    +0.249 C 
ATOM     10  O   UNL     1      -5.058  -0.053  24.598  0.00  0.00    -0.270 OA
ATOM     11  N   UNL     1      -3.860  -0.801  24.732  0.00  0.00    -0.276 N 
ATOM     12  C   UNL     1      -3.938  -1.609  24.930  0.00  0.00    +0.096 C 
ATOM     13  C   UNL     1      -2.984  -1.865  24.955  0.00  0.00    +0.043 C 
ATOM     14  C   UNL     1      -2.258  -2.231  25.015  0.00  0.00    +0.011 C 
ATOM     15  C   UNL     1      -2.506  -1.590  24.870  0.00  0.00    +0.058 C 
ATOM     16  C   UNL     1      -3.432  -1.358  24.850  0.00  0.00    +0.099 C 
ATOM     17  C   UNL     1      -2.228  -0.741  24.654  0.00  0.00    +0.041 A 
ATOM     18  C   UNL     1      -1.539  -0.307  24.523  0.00  0.00    +0.014 A 
ATOM     19  C   UNL     1      -1.587   0.494  24.331  0.00  0.00    +0.024 A 
ATOM     20  C   UNL     1      -2.324   0.861  24.271  0.00  0.00    +0.147 A 
ATOM     35  C   UNL     1      -3.013   0.426  24.403  0.00  0.00    +0.277 A 
ATOM     36  O   UNL     1      -3.243   1.242  24.215  0.00  0.00    -0.266 OA
ATOM     37  N   UNL     1      -2.965  -0.375  24.594  0.00  0.00    -0.298 N 
ATOM     38  C   UNL     1      -2.703  -0.976  24.729  0.00  0.00    +0.110 C 
ENDROOT
BRANCH   9   6
ATOM      3  C   UNL     1      -2.021   1.781  23.963  0.00  0.00    +0.139 A 
ATOM      4  C   UNL     1      -2.283   1.412  24.742  0.00  0.00    +0.037 A 
ATOM      5  C   UNL     1      -2.983   0.828  24.959  0.00  0.00    +0.008 A 
ATOM      6  C   UNL     1      -3.511   0.543  24.394  0.00  0.00    +0.054 A 
ATOM      7  C   UNL     1      -3.435   0.772  23.605  0.00  0.00    +0.008 A 
ATOM      8  C   UNL     1      -2.828   1.286  23.382  0.00  0.00    +0.037 A 
BRANCH   3   2
ATOM      1  C   UNL     1      -1.055   2.046  23.156  0.00  0.00    +0.252 C 
ATOM      2  O   UNL     1      -1.917   2.053  23.071  0.00  0.00    -0.471 OA
ENDBRANCH   3   2
ENDBRANCH   9   6
BRANCH  20  21
ATOM     21  N   UNL     1      -2.522   1.749  24.064  0.00  0.00    -0.092 NA
BRANCH  21  22
ATOM     22  S   UNL     1      -2.412   2.389  24.780  0.00  0.00    +0.093 S 
ATOM     23  O   UNL     1      -3.060   2.991  24.593  0.00  0.00    -0.148 OA
ATOM     24  O   UNL     1      -1.658   2.130  25.404  0.00  0.00    -0.148 OA
BRANCH  22  25
ATOM     25  C   UNL     1      -2.563   3.048  25.214  0.00  0.00    +0.127 A 
ATOM     26  C   UNL     1      -1.946   3.549  24.993  0.00  0.00    +0.024 A 
ATOM     27  C   UNL     1      -1.893   4.305  25.319  0.00  0.00    +0.073 A 
ATOM     28  C   UNL     1      -2.456   4.559  25.866  0.00  0.00    +0.004 A 
ATOM     29  C   UNL     1      -3.073   4.058  26.086  0.00  0.00    +0.001 A 
ATOM     30  C   UNL     1      -3.127   3.302  25.760  0.00  0.00    +0.020 A 
BRANCH  27  31
ATOM     31  C   UNL     1      -1.219   4.936  25.119  0.00  0.00    +0.419 C 
ATOM     32  F   UNL     1      -0.618   5.542  24.929  0.00  0.00    -0.166 F 
ATOM     33  F   UNL     1      -1.609   5.697  24.946  0.00  0.00    -0.166 F 
ATOM     34  F   UNL     1      -0.374   4.666  25.140  0.00  0.00    -0.166 F 
ENDBRANCH  27  31
ENDBRANCH  22  25
ENDBRANCH  21  22
ENDBRANCH  20  21
TORSDOF 6
ENDMDL
MODEL 4
REMARK VINA RESULT:     -15.3      1.275      1.825
REMARK  Name = 
REMARK  6 active torsions:
REMARK  status: ('A' for Active; 'I' for Inactive)
REMARK    1  A    between atoms: O_2  and  C_3
REMARK    2  A    between atoms: C_6  and  C_9
REMARK    3  A    between atoms: C_20  and  N_21
REMARK    4  A    between atoms: N_21  and  S_22
REMARK    5  A    between atoms: S_22  and  C_25
REMARK    6  A    between atoms: C_27  and  C_31
REMARK                            x       y       z     vdW  Elec       q    Type
REMARK                         _______ _______ _______ _____ _____    ______ ____
ROOT
ATOM      9  C   UNL     1      -4.138  -1.151  24.152  0.00  0.00    +0.249 C 
ATOM     10  O   UNL     1      -4.910  -1.516  24.049  0.00  0.00    -0.270 OA
ATOM     11  N   UNL     1      -3.557  -1.743  24.408  0.00  0.00    -0.276 N 
ATOM     12  C   UNL     1      -3.346  -2.524  24.618  0.00  0.00    +0.096 C 
ATOM     13  C   UNL     1      -2.386  -2.390  24.811  0.00  0.00    +0.043 C 
ATOM     14  C   UNL     1      -1.597  -2.446  25.005  0.00  0.00    +0.011 C 
ATOM     15  C   UNL     1      -2.046  -1.948  24.798  0.00  0.00    +0.058 C 
ATOM     16  C   UNL     1      -2.972  -2.094  24.615  0.00  0.00    +0.099 C 
ATOM     17  C   UNL     1      -2.089  -1.051  24.603  0.00  0.00    +0.041 A 
ATOM     18  C   UNL     1      -1.612  -0.378  24.575  0.00  0.00    +0.014 A 
ATOM     19  C   UNL     1      -1.935   0.347  24.351  0.00  0.00    +0.024 A 
ATOM     20  C   UNL     1      -2.735   0.400  24.155  0.00  0.00    +0.147 A 
ATOM     35  C   UNL     1      -3.212  -0.273  24.184  0.00  0.00    +0.277 A 
ATOM     36  O   UNL     1      -3.706   0.395  23.932  0.00  0.00    -0.266 OA
ATOM     37  N   UNL     1      -2.889  -0.998  24.408  0.00  0.00    -0.298 N 
ATOM     38  C   UNL     1      -2.440  -1.454  24.606  0.00  0.00    +0.110 C 
ENDROOT
BRANCH   9   6
ATOM      3  C   UNL     1      -2.766   1.376  23.871  0.00  0.00    +0.139 A 
ATOM      4  C   UNL     1      -2.991   0.907  24.607  0.00  0.00    +0.037 A 
ATOM      5  C   UNL     1      -3.434   0.089  24.724  0.00  0.00    +0.008 A 
ATOM      6  C   UNL     1      -3.707  -0.358  24.088  0.00  0.00    +0.054 A 
ATOM      7  C   UNL     1      -3.594  -0.091  23.316  0.00  0.00    +0.008 A 
ATOM      8  C   UNL     1      -3.208   0.626  23.180  0.00  0.00    +0.037 A 
BRANCH   3   2
ATOM      1  C   UNL     1      -1.870   2.043  23.235  0.00  0.00    +0.252 C 
ATOM      2  O   UNL     1      -2.629   1.697  23.000  0.00  0.00    -0.471 OA
ENDBRANCH   3   2
ENDBRANCH   9   6
BRANCH  20  21
ATOM     21  N   UNL     1      -3.225   1.148  23.888  0.00  0.00    -0.092 NA
BRANCH  21  22
ATOM     22  S   UNL     1      -3.494   1.756  24.590  0.00  0.00    +0.093 S 
ATOM     23  O   UNL     1      -4.231   2.139  24.232  0.00  0.00    -0.148 OA
ATOM     24  O   UNL     1      -2.872   1.710  25.387  0.00  0.00    -0.148 OA
BRANCH  22  25
ATOM     25  C   UNL     1      -3.942   2.314  24.953  0.00  0.00    +0.127 A 
ATOM     26  C   UNL     1      -3.376   2.869  25.185  0.00  0.00    +0.024 A 
ATOM     27  C   UNL     1      -3.608   3.550  25.588  0.00  0.00    +0.073 A 
ATOM     28  C   UNL     1      -4.405   3.677  25.759  0.00  0.00    +0.004 A 
ATOM     29  C   UNL     1      -4.970   3.123  25.527  0.00  0.00    +0.001 A 
ATOM     30  C   UNL     1      -4.739   2.442  25.124  0.00  0.00    +0.020 A 
BRANCH  27  31
ATOM     31  C   UNL     1      -3.024   4.229  25.886  0.00  0.00    +0.419 C 
ATOM     32  F   UNL     1      -2.492   4.852  26.192  0.00  0.00    -0.166 F 
ATOM     33  F   UNL     1      -3.096   4.281  26.755  0.00  0.00    -0.166 F 
ATOM     34  F   UNL     1      -2.542   4.662  25.280  0.00  0.00    -0.166 F 
ENDBRANCH  27  31
ENDBRANCH  22  25
ENDBRANCH  21  22
ENDBRANCH  20  21
TORSDOF 6
ENDMDL
MODEL 5
REMARK VINA RESULT:     -14.8      2.630      4.392
REMARK  Name = 
REMARK  6 active torsions:
REMARK  status: ('A' for Active; 'I' for Inactive)
REMARK    1  A    between atoms: O_2  and  C_3
REMARK    2  A    between atoms: C_6  and  C_9
REMARK    3  A    between atoms: C_20  and  N_21
REMARK    4  A    between atoms: N_21  and  S_22
REMARK    5  A    between atoms: S_22  and  C_25
REMARK    6  A    between atoms: C_27  and  C_31
REMARK                            x       y       z     vdW  Elec       q    Type
REMARK                         _______ _______ _______ _____ _____    ______ ____
ROOT
ATOM      9  C   UNL     1      -3.200   2.974  24.460  0.00  0.00    +0.249 C 
ATOM     10  O   UNL     1      -2.633   3.589  24.257  0.00  0.00    -0.270 OA
ATOM     11  N   UNL     1      -3.896   3.323  24.846  0.00  0.00    -0.276 N 
ATOM     12  C   UNL     1      -4.324   3.977  25.139  0.00  0.00    +0.096 C 
ATOM     13  C   UNL     1      -5.127   3.512  25.477  0.00  0.00    +0.043 C 
ATOM     14  C   UNL     1      -5.840   3.284  25.800  0.00  0.00    +0.011 C 
ATOM     15  C   UNL     1      -5.289   2.978  25.491  0.00  0.00    +0.058 C 
ATOM     16  C   UNL     1      -4.519   3.443  25.169  0.00  0.00    +0.099 C 
ATOM     17  C   UNL     1      -4.973   2.155  25.233  0.00  0.00    +0.041 A 
ATOM     18  C   UNL     1      -5.184   1.357  25.238  0.00  0.00    +0.014 A 
ATOM     19  C   UNL     1      -4.674   0.794  24.917  0.00  0.00    +0.024 A 
ATOM     20  C   UNL     1      -3.953   1.028  24.590  0.00  0.00    +0.147 A 
ATOM     35  C   UNL     1      -3.742   1.825  24.585  0.00  0.00    +0.277 A 
ATOM     36  O   UNL     1      -3.100   1.377  24.213  0.00  0.00    -0.266 OA
ATOM     37  N   UNL     1      -4.252   2.389  24.906  0.00  0.00    -0.298 N 
ATOM     38  C   UNL     1      -4.789   2.656  25.204  0.00  0.00    +0.110 C 
ENDROOT
BRANCH   9   6
ATOM      3  C   UNL     1      -3.636   0.127  24.241  0.00  0.00    +0.139 A 
ATOM      4  C   UNL     1      -3.457   0.642  24.959  0.00  0.00    +0.037 A 
ATOM      5  C   UNL     1      -3.312   1.562  25.056  0.00  0.00    +0.008 A 
ATOM      6  C   UNL     1      -3.333   2.081  24.415  0.00  0.00    +0.054 A 
ATOM      7  C   UNL     1      -3.486   1.795  23.657  0.00  0.00    +0.008 A 
ATOM      8  C   UNL     1      -3.618   0.989  23.539  0.00  0.00    +0.037 A 
BRANCH   3   2
ATOM      1  C   UNL     1      -4.311  -0.838  23.726  0.00  0.00    +0.252 C 
ATOM      2  O   UNL     1      -3.812  -0.217  23.386  0.00  0.00    -0.471 OA
ENDBRANCH   3   2
ENDBRANCH   9   6
BRANCH  20  21
ATOM     21  N   UNL     1      -3.289   0.503  24.198  0.00  0.00    -0.092 NA
BRANCH  21  22
ATOM     22  S   UNL     1      -2.714   0.018  24.804  0.00  0.00    +0.093 S 
ATOM     23  O   UNL     1      -1.911   0.083  24.392  0.00  0.00    -0.148 OA
ATOM     24  O   UNL     1      -3.223  -0.339  25.603  0.00  0.00    -0.148 OA
BRANCH  22  25
ATOM     25  C   UNL     1      -2.029  -0.298  25.082  0.00  0.00    +0.127 A 
ATOM     26  C   UNL     1      -2.052  -1.063  24.776  0.00  0.00    +0.024 A 
ATOM     27  C   UNL     1      -1.436  -1.589  24.933  0.00  0.00    +0.073 A 
ATOM     28  C   UNL     1      -0.797  -1.348  25.397  0.00  0.00    +0.004 A 
ATOM     29  C   UNL     1      -0.775  -0.582  25.703  0.00  0.00    +0.001 A 
ATOM     30  C   UNL     1      -1.391  -0.057  25.546  0.00  0.00    +0.020 A 
BRANCH  27  31
ATOM     31  C   UNL     1      -1.388  -2.478  24.621  0.00  0.00    +0.419 C 
ATOM     32  F   UNL     1      -1.335  -3.311  24.361  0.00  0.00    -0.166 F 
ATOM     33  F   UNL     1      -1.142  -2.983  25.289  0.00  0.00    -0.166 F 
ATOM     34  F   UNL     1      -1.586  -2.634  23.770  0.00  0.00    -0.166 F 
ENDBRANCH  27  31
ENDBRANCH  22  25
ENDBRANCH  21  22
ENDBRANCH  20  21
TORSDOF 6
ENDMDL
