MODEL 1
REMARK VINA RESULT:      -8.9      0.000      0.000
REMARK  Name = 
REMARK  7 active torsions:
REMARK  status: ('A' for Active; 'I' for Inactive)
REMARK    1  A    between atoms: C_6  and  C_7
REMARK    2  A    between atoms: C_7  and  N_8
REMARK    3  A    between atoms: N_8  and  C_9
REMARK    4  A    between atoms: C_12  and  C_13
REMARK    5  A    between atoms: C_13  and  N_14
REMARK    6  A    between atoms: C_15  and  C_17
REMARK    7  A    between atoms: C_17  and  C_18
REMARK                            x       y       z     vdW  Elec       q    Type
REMARK                         _______ _______ _______ _____ _____    ______ ____
ROOT
ATOM      9  C   UNL     1      -4.095   0.705  24.503  0.00  0.00    +0.136 C 
ATOM     10  C   UNL     1      -4.524   1.002  25.141  0.00  0.00    +0.162 C 
ATOM     11  O   UNL     1      -4.343   1.804  25.219  0.00  0.00    -0.350 OA
ATOM     12  C   UNL     1      -3.801   2.001  24.628  0.00  0.00    +0.169 C 
ATOM     22  C   UNL     1      -3.648   1.322  24.185  0.00  0.00    +0.199 C 
ATOM     23  O   UNL     1      -3.139   1.268  23.539  0.00  0.00    -0.219 OA
ENDROOT
BRANCH   9   8
ATOM      8  N   UNL     1      -4.110  -0.074  24.229  0.00  0.00    -0.206 NA
BRANCH   8   7
ATOM      7  C   UNL     1      -4.025  -0.699  24.761  0.00  0.00    +0.152 C 
BRANCH   7   6
ATOM      1  C   UNL     1      -3.234  -2.081  25.589  0.00  0.00    +0.132 C 
ATOM      2  N   UNL     1      -3.624  -2.110  24.863  0.00  0.00    -0.311 N 
ATOM      3  C   UNL     1      -3.720  -2.779  24.390  0.00  0.00    +0.098 A 
ATOM      4  C   UNL     1      -4.142  -2.558  23.718  0.00  0.00    +0.119 A 
ATOM      5  N   UNL     1      -4.308  -1.752  23.774  0.00  0.00    -0.228 NA
ATOM      6  C   UNL     1      -3.988  -1.475  24.482  0.00  0.00    +0.138 A 
ENDBRANCH   7   6
ENDBRANCH   8   7
ENDBRANCH   9   8
BRANCH  12  13
ATOM     13  C   UNL     1      -3.472   2.746  24.502  0.00  0.00    +0.147 C 
BRANCH  13  14
ATOM     14  N   UNL     1      -2.929   3.054  25.043  0.00  0.00    -0.203 NA
ATOM     15  C   UNL     1      -2.630   3.815  24.939  0.00  0.00    +0.241 C 
ATOM     16  O   UNL     1      -2.873   4.270  24.294  0.00  0.00    -0.273 OA
BRANCH  15  17
ATOM     17  C   UNL     1      -2.087   4.123  25.479  0.00  0.00    +0.087 C 
BRANCH  17  18
ATOM     18  C   UNL     1      -1.465   4.595  25.215  0.00  0.00    +0.009 C 
ATOM     19  C   UNL     1      -0.842   5.067  24.952  0.00  0.00    +0.000 C 
ATOM     20  C   UNL     1      -1.948   5.262  25.268  0.00  0.00    +0.000 C 
ATOM     21  C   UNL     1      -0.982   3.928  25.163  0.00  0.00    +0.000 C 
ENDBRANCH  17  18
ENDBRANCH  15  17
ENDBRANCH  13  14
ENDBRANCH  12  13
TORSDOF 7
ENDMDL
MODEL 2
REMARK VINA RESULT:      -8.7      1.795      5.784
REMARK  Name = 
REMARK  7 active torsions:
REMARK  status: ('A' for Active; 'I' for Inactive)
REMARK    1  A    between atoms: C_6  and  C_7
REMARK    2  A    between atoms: C_7  and  N_8
REMARK    3  A    between atoms: N_8  and  C_9
REMARK    4  A    between atoms: C_12  and  C_13
REMARK    5  A    between atoms: C_13  and  N_14
REMARK    6  A    between atoms: C_15  and  C_17
REMARK    7  A    between atoms: C_17  and  C_18
REMARK                            x       y       z     vdW  Elec       q    Type
REMARK                         _______ _______ _______ _____ _____    ______ ____
ROOT
ATOM      9  C   UNL     1      -1.150   1.698  25.073  0.00  0.00    +0.136 C 
ATOM     10  C   UNL     1      -0.964   1.319  25.781  0.00  0.00    +0.162 C 
ATOM     11  O   UNL     1      -1.148   0.519  25.698  0.00  0.00    -0.350 OA
ATOM     12  C   UNL     1      -1.448   0.403  24.938  0.00  0.00    +0.169 C 
ATOM     22  C   UNL     1      -1.449   1.132  24.551  0.00  0.00    +0.199 C 
ATOM     23  O   UNL     1      -1.704   1.271  23.779  0.00  0.00    -0.219 OA
ENDROOT
BRANCH   9   8
ATOM      8  N   UNL     1      -1.054   2.502  24.913  0.00  0.00    -0.206 NA
BRANCH   8   7
ATOM      7  C   UNL     1      -1.358   3.065  25.433  0.00  0.00    +0.152 C 
BRANCH   7   6
ATOM      1  C   UNL     1      -2.547   4.348  25.835  0.00  0.00    +0.132 C 
ATOM      2  N   UNL     1      -1.827   4.458  25.447  0.00  0.00    -0.311 N 
ATOM      3  C   UNL     1      -1.527   5.178  25.176  0.00  0.00    +0.098 A 
ATOM      4  C   UNL     1      -0.796   5.032  24.824  0.00  0.00    +0.119 A 
ATOM      5  N   UNL     1      -0.644   4.223  24.877  0.00  0.00    -0.228 NA
ATOM      6  C   UNL     1      -1.281   3.869  25.262  0.00  0.00    +0.138 A 
ENDBRANCH   7   6
ENDBRANCH   8   7
ENDBRANCH   9   8
BRANCH  12  13
ATOM     13  C   UNL     1      -1.702  -0.314  24.621  0.00  0.00    +0.147 C 
BRANCH  13  14
ATOM     14  N   UNL     1      -2.403  -0.658  24.888  0.00  0.00    -0.203 NA
ATOM     15  C   UNL     1      -2.615  -1.413  24.633  0.00  0.00    +0.241 C 
ATOM     16  O   UNL     1      -2.126  -1.825  24.110  0.00  0.00    -0.273 OA
BRANCH  15  17
ATOM     17  C   UNL     1      -3.316  -1.758  24.899  0.00  0.00    +0.087 C 
BRANCH  17  18
ATOM     18  C   UNL     1      -3.727  -2.283  24.416  0.00  0.00    +0.009 C 
ATOM     19  C   UNL     1      -4.139  -2.810  23.933  0.00  0.00    +0.000 C 
ATOM     20  C   UNL     1      -3.337  -2.917  24.772  0.00  0.00    +0.000 C 
ATOM     21  C   UNL     1      -4.118  -1.650  24.060  0.00  0.00    +0.000 C 
ENDBRANCH  17  18
ENDBRANCH  15  17
ENDBRANCH  13  14
ENDBRANCH  12  13
TORSDOF 7
ENDMDL
MODEL 3
REMARK VINA RESULT:      -8.0      1.702      2.029
REMARK  Name = 
REMARK  7 active torsions:
REMARK  status: ('A' for Active; 'I' for Inactive)
REMARK    1  A    between atoms: C_6  and  C_7
REMARK    2  A    between atoms: C_7  and  N_8
REMARK    3  A    between atoms: N_8  and  C_9
REMARK    4  A    between atoms: C_12  and  C_13
REMARK    5  A    between atoms: C_13  and  N_14
REMARK    6  A    between atoms: C_15  and  C_17
REMARK    7  A    between atoms: C_17  and  C_18
REMARK                            x       y       z     vdW  Elec       q    Type
REMARK                         _______ _______ _______ _____ _____    ______ ____
ROOT
ATOM      9  C   UNL     1      -1.536  -0.059  24.871  0.00  0.00    +0.136 C 
ATOM     10  C   UNL     1      -1.310   0.092  25.649  0.00  0.00    +0.162 C 
ATOM     11  O   UNL     1      -1.003   0.858  25.682  0.00  0.00    -0.350 OA
ATOM     12  C   UNL     1      -1.040   1.180  24.923  0.00  0.00    +0.169 C 
ATOM     22  C   UNL     1      -1.369   0.613  24.421  0.00  0.00    +0.199 C 
ATOM     23  O   UNL     1      -1.508   0.703  23.613  0.00  0.00    -0.219 OA
ENDROOT
BRANCH   9   8
ATOM      8  N   UNL     1      -1.871  -0.759  24.590  0.00  0.00    -0.206 NA
BRANCH   8   7
ATOM      7  C   UNL     1      -2.618  -0.992  24.851  0.00  0.00    +0.152 C 
BRANCH   7   6
ATOM      1  C   UNL     1      -4.287  -1.314  24.275  0.00  0.00    +0.132 C 
ATOM      2  N   UNL     1      -3.688  -1.875  24.365  0.00  0.00    -0.311 N 
ATOM      3  C   UNL     1      -3.752  -2.682  24.205  0.00  0.00    +0.098 A 
ATOM      4  C   UNL     1      -3.024  -3.032  24.371  0.00  0.00    +0.119 A 
ATOM      5  N   UNL     1      -2.511  -2.442  24.634  0.00  0.00    -0.228 NA
ATOM      6  C   UNL     1      -2.921  -1.727  24.629  0.00  0.00    +0.138 A 
ENDBRANCH   7   6
ENDBRANCH   8   7
ENDBRANCH   9   8
BRANCH  12  13
ATOM     13  C   UNL     1      -0.791   1.935  24.704  0.00  0.00    +0.147 C 
BRANCH  13  14
ATOM     14  N   UNL     1      -0.904   2.571  25.217  0.00  0.00    -0.203 NA
ATOM     15  C   UNL     1      -0.788   3.342  24.949  0.00  0.00    +0.241 C 
ATOM     16  O   UNL     1      -0.559   3.478  24.168  0.00  0.00    -0.273 OA
BRANCH  15  17
ATOM     17  C   UNL     1      -0.901   3.979  25.462  0.00  0.00    +0.087 C 
BRANCH  17  18
ATOM     18  C   UNL     1      -1.282   4.660  25.196  0.00  0.00    +0.009 C 
ATOM     19  C   UNL     1      -1.663   5.343  24.931  0.00  0.00    +0.000 C 
ATOM     20  C   UNL     1      -0.574   4.929  24.870  0.00  0.00    +0.000 C 
ATOM     21  C   UNL     1      -1.990   4.392  25.523  0.00  0.00    +0.000 C 
ENDBRANCH  17  18
ENDBRANCH  15  17
ENDBRANCH  13  14
ENDBRANCH  12  13
TORSDOF 7
ENDMDL
MODEL 4
REMARK VINA RESULT:      -6.5     17.885     19.939
REMARK  Name = 
REMARK  7 active torsions:
REMARK  status: ('A' for Active; 'I' for Inactive)
REMARK    1  A    between atoms: C_6  and  C_7
REMARK    2  A    between atoms: C_7  and  N_8
REMARK    3  A    between atoms: N_8  and  C_9
REMARK    4  A    between atoms: C_12  and  C_13
REMARK    5  A    between atoms: C_13  and  N_14
REMARK    6  A    between atoms: C_15  and  C_17
REMARK    7  A    between atoms: C_17  and  C_18
REMARK                            x       y       z     vdW  Elec       q    Type
REMARK                         _______ _______ _______ _____ _____    ______ ____
ROOT
ATOM      9  C   UNL     1      13.586   8.358  17.457  0.00  0.00    +0.136 C 
ATOM     10  C   UNL     1      13.913   8.986  17.880  0.00  0.00    +0.162 C 
ATOM     11  O   UNL     1      14.482   8.679  18.393  0.00  0.00    -0.350 OA
ATOM     12  C   UNL     1      14.506   7.861  18.286  0.00  0.00    +0.169 C 
ATOM     22  C   UNL     1      13.953   7.663  17.708  0.00  0.00    +0.199 C 
ATOM     23  O   UNL     1      13.793   6.903  17.429  0.00  0.00    -0.219 OA
ENDROOT
BRANCH   9   8
ATOM      8  N   UNL     1      12.996   8.416  16.883  0.00  0.00    -0.206 NA
BRANCH   8   7
ATOM      7  C   UNL     1      12.306   8.839  17.042  0.00  0.00    +0.152 C 
BRANCH   7   6
ATOM      1  C   UNL     1      10.539   8.649  17.297  0.00  0.00    +0.132 C 
ATOM      2  N   UNL     1      10.910   8.821  16.580  0.00  0.00    -0.311 N 
ATOM      3  C   UNL     1      10.534   8.935  15.854  0.00  0.00    +0.098 A 
ATOM      4  C   UNL     1      11.113   9.093  15.290  0.00  0.00    +0.119 A 
ATOM      5  N   UNL     1      11.847   9.077  15.665  0.00  0.00    -0.228 NA
ATOM      6  C   UNL     1      11.722   8.908  16.463  0.00  0.00    +0.138 A 
ENDBRANCH   7   6
ENDBRANCH   8   7
ENDBRANCH   9   8
BRANCH  12  13
ATOM     13  C   UNL     1      14.998   7.335  18.688  0.00  0.00    +0.147 C 
BRANCH  13  14
ATOM     14  N   UNL     1      15.412   7.586  19.356  0.00  0.00    -0.203 NA
ATOM     15  C   UNL     1      15.921   7.066  19.745  0.00  0.00    +0.241 C 
ATOM     16  O   UNL     1      16.015   6.295  19.466  0.00  0.00    -0.273 OA
BRANCH  15  17
ATOM     17  C   UNL     1      16.336   7.316  20.413  0.00  0.00    +0.087 C 
BRANCH  17  18
ATOM     18  C   UNL     1      16.757   6.771  20.866  0.00  0.00    +0.009 C 
ATOM     19  C   UNL     1      17.178   6.225  21.320  0.00  0.00    +0.000 C 
ATOM     20  C   UNL     1      17.405   6.852  20.362  0.00  0.00    +0.000 C 
ATOM     21  C   UNL     1      16.108   6.690  21.370  0.00  0.00    +0.000 C 
ENDBRANCH  17  18
ENDBRANCH  15  17
ENDBRANCH  13  14
ENDBRANCH  12  13
TORSDOF 7
ENDMDL
MODEL 5
REMARK VINA RESULT:      -6.4     17.848     19.817
REMARK  Name = 
REMARK  7 active torsions:
REMARK  status: ('A' for Active; 'I' for Inactive)
REMARK    1  A    between atoms: C_6  and  C_7
REMARK    2  A    between atoms: C_7  and  N_8
REMARK    3  A    between atoms: N_8  and  C_9
REMARK    4  A    between atoms: C_12  and  C_13
REMARK    5  A    between atoms: C_13  and  N_14
REMARK    6  A    between atoms: C_15  and  C_17
REMARK    7  A    between atoms: C_17  and  C_18
REMARK                            x       y       z     vdW  Elec       q    Type
REMARK                         _______ _______ _______ _____ _____    ______ ____
ROOT
ATOM      9  C   UNL     1      14.798   7.396  19.201  0.00  0.00    +0.136 C 
ATOM     10  C   UNL     1      15.035   7.861  18.562  0.00  0.00    +0.162 C 
ATOM     11  O   UNL     1      14.378   7.984  18.078  0.00  0.00    -0.350 OA
ATOM     12  C   UNL     1      13.735   7.594  18.417  0.00  0.00    +0.169 C 
ATOM     22  C   UNL     1      13.994   7.231  19.111  0.00  0.00    +0.199 C 
ATOM     23  O   UNL     1      13.532   6.781  19.625  0.00  0.00    -0.219 OA
ENDROOT
BRANCH   9   8
ATOM      8  N   UNL     1      15.279   7.140  19.820  0.00  0.00    -0.206 NA
BRANCH   8   7
ATOM      7  C   UNL     1      15.990   7.528  19.976  0.00  0.00    +0.152 C 
BRANCH   7   6
ATOM      1  C   UNL     1      16.879   8.450  21.234  0.00  0.00    +0.132 C 
ATOM      2  N   UNL     1      16.929   7.637  21.103  0.00  0.00    -0.311 N 
ATOM      3  C   UNL     1      17.396   7.104  21.527  0.00  0.00    +0.098 A 
ATOM      4  C   UNL     1      17.275   6.353  21.211  0.00  0.00    +0.119 A 
ATOM      5  N   UNL     1      16.734   6.420  20.592  0.00  0.00    -0.228 NA
ATOM      6  C   UNL     1      16.520   7.213  20.525  0.00  0.00    +0.138 A 
ENDBRANCH   7   6
ENDBRANCH   8   7
ENDBRANCH   9   8
BRANCH  12  13
ATOM     13  C   UNL     1      12.967   7.572  18.116  0.00  0.00    +0.147 C 
BRANCH  13  14
ATOM     14  N   UNL     1      12.617   8.262  17.828  0.00  0.00    -0.203 NA
ATOM     15  C   UNL     1      11.936   8.216  17.366  0.00  0.00    +0.241 C 
ATOM     16  O   UNL     1      11.603   7.481  17.192  0.00  0.00    -0.273 OA
BRANCH  15  17
ATOM     17  C   UNL     1      11.585   8.905  17.078  0.00  0.00    +0.087 C 
BRANCH  17  18
ATOM     18  C   UNL     1      11.077   8.870  16.430  0.00  0.00    +0.009 C 
ATOM     19  C   UNL     1      10.569   8.836  15.781  0.00  0.00    +0.000 C 
ATOM     20  C   UNL     1      11.696   9.094  15.933  0.00  0.00    +0.000 C 
ATOM     21  C   UNL     1      10.458   8.647  16.928  0.00  0.00    +0.000 C 
ENDBRANCH  17  18
ENDBRANCH  15  17
ENDBRANCH  13  14
ENDBRANCH  12  13
TORSDOF 7
ENDMDL
MODEL 6
REMARK VINA RESULT:      -5.4     16.424     18.953
REMARK  Name = 
REMARK  7 active torsions:
REMARK  status: ('A' for Active; 'I' for Inactive)
REMARK    1  A    between atoms: C_6  and  C_7
REMARK    2  A    between atoms: C_7  and  N_8
REMARK    3  A    between atoms: N_8  and  C_9
REMARK    4  A    between atoms: C_12  and  C_13
REMARK    5  A    between atoms: C_13  and  N_14
REMARK    6  A    between atoms: C_15  and  C_17
REMARK    7  A    between atoms: C_17  and  C_18
REMARK                            x       y       z     vdW  Elec       q    Type
REMARK                         _______ _______ _______ _____ _____    ______ ____
ROOT
ATOM      9  C   UNL     1      12.857   7.475  19.995  0.00  0.00    +0.136 C 
ATOM     10  C   UNL     1      13.057   8.073  19.463  0.00  0.00    +0.162 C 
ATOM     11  O   UNL     1      13.792   7.887  19.135  0.00  0.00    -0.350 OA
ATOM     12  C   UNL     1      14.045   7.174  19.464  0.00  0.00    +0.169 C 
ATOM     22  C   UNL     1      13.467   6.919  19.996  0.00  0.00    +0.199 C 
ATOM     23  O   UNL     1      13.495   6.230  20.448  0.00  0.00    -0.219 OA
ENDROOT
BRANCH   9   8
ATOM      8  N   UNL     1      12.167   7.439  20.446  0.00  0.00    -0.206 NA
BRANCH   8   7
ATOM      7  C   UNL     1      11.927   8.095  20.884  0.00  0.00    +0.152 C 
BRANCH   7   6
ATOM      1  C   UNL     1      11.699   9.092  22.359  0.00  0.00    +0.132 C 
ATOM      2  N   UNL     1      11.205   8.483  22.105  0.00  0.00    -0.311 N 
ATOM      3  C   UNL     1      10.518   8.225  22.484  0.00  0.00    +0.098 A 
ATOM      4  C   UNL     1      10.200   7.607  22.040  0.00  0.00    +0.119 A 
ATOM      5  N   UNL     1      10.688   7.484  21.387  0.00  0.00    -0.228 NA
ATOM      6  C   UNL     1      11.309   8.024  21.427  0.00  0.00    +0.138 A 
ENDBRANCH   7   6
ENDBRANCH   8   7
ENDBRANCH   9   8
BRANCH  12  13
ATOM     13  C   UNL     1      14.751   6.785  19.292  0.00  0.00    +0.147 C 
BRANCH  13  14
ATOM     14  N   UNL     1      15.464   7.070  19.596  0.00  0.00    -0.203 NA
ATOM     15  C   UNL     1      16.175   6.707  19.389  0.00  0.00    +0.241 C 
ATOM     16  O   UNL     1      16.174   6.058  18.879  0.00  0.00    -0.273 OA
BRANCH  15  17
ATOM     17  C   UNL     1      16.887   6.991  19.692  0.00  0.00    +0.087 C 
BRANCH  17  18
ATOM     18  C   UNL     1      17.145   6.750  20.437  0.00  0.00    +0.009 C 
ATOM     19  C   UNL     1      17.404   6.508  21.182  0.00  0.00    +0.000 C 
ATOM     20  C   UNL     1      17.019   7.511  20.728  0.00  0.00    +0.000 C 
ATOM     21  C   UNL     1      17.272   5.988  20.146  0.00  0.00    +0.000 C 
ENDBRANCH  17  18
ENDBRANCH  15  17
ENDBRANCH  13  14
ENDBRANCH  12  13
TORSDOF 7
ENDMDL
