MODEL 1
REMARK VINA RESULT:     -11.7      0.000      0.000
REMARK  Name = 
REMARK  5 active torsions:
REMARK  status: ('A' for Active; 'I' for Inactive)
REMARK    1  A    between atoms: C_5  and  C_8
REMARK    2  A    between atoms: C_11  and  C_13
REMARK    3  A    between atoms: N_16  and  C_17
REMARK    4  A    between atoms: C_17  and  C_18
REMARK    5  A    between atoms: C_21  and  S_24
REMARK                            x       y       z     vdW  Elec       q    Type
REMARK                         _______ _______ _______ _____ _____    ______ ____
ROOT
ATOM     13  C   UNL     1      -0.592   0.813  25.246  0.00  0.00    +0.096 C 
ATOM     14  C   UNL     1      -0.278   0.465  24.566  0.00  0.00    +0.028 C 
ATOM     15  C   UNL     1      -0.474  -0.337  24.576  0.00  0.00    +0.073 C 
ATOM     16  N   UNL     1      -0.909  -0.484  25.261  0.00  0.00    -0.268 NA
ATOM     28  C   UNL     1      -0.982   0.226  25.675  0.00  0.00    +0.082 C 
ENDROOT
BRANCH  13  11
ATOM      8  C   UNL     1      -0.734   2.924  25.524  0.00  0.00    +0.250 A 
ATOM      9  N   UNL     1      -0.122   2.736  26.043  0.00  0.00    -0.107 NA
ATOM     10  N   UNL     1       0.007   1.922  26.002  0.00  0.00    -0.111 NA
ATOM     11  C   UNL     1      -0.527   1.607  25.458  0.00  0.00    +0.227 A 
ATOM     12  O   UNL     1      -0.985   2.227  25.162  0.00  0.00    -0.419 OA
BRANCH   8   5
ATOM      1  C   UNL     1      -1.966   5.939  24.989  0.00  0.00    +0.031 C 
ATOM      2  C   UNL     1      -1.658   5.185  25.123  0.00  0.00    -0.022 A 
ATOM      3  C   UNL     1      -2.103   4.624  25.533  0.00  0.00    -0.004 A 
ATOM      4  C   UNL     1      -1.796   3.871  25.667  0.00  0.00    +0.004 A 
ATOM      5  C   UNL     1      -1.042   3.678  25.390  0.00  0.00    +0.055 A 
ATOM      6  C   UNL     1      -0.597   4.238  24.980  0.00  0.00    +0.004 A 
ATOM      7  C   UNL     1      -0.905   4.992  24.847  0.00  0.00    -0.004 A 
ENDBRANCH   8   5
ENDBRANCH  13  11
BRANCH  16  17
ATOM     17  C   UNL     1      -1.218  -1.214  25.492  0.00  0.00    +0.099 C 
BRANCH  17  18
ATOM     18  C   UNL     1      -1.905  -1.502  25.139  0.00  0.00    -0.006 A 
ATOM     19  C   UNL     1      -2.643  -1.231  25.391  0.00  0.00    -0.002 A 
ATOM     20  C   UNL     1      -3.331  -1.519  25.037  0.00  0.00    +0.018 A 
ATOM     21  C   UNL     1      -3.281  -2.077  24.432  0.00  0.00    +0.106 A 
ATOM     22  C   UNL     1      -2.544  -2.348  24.181  0.00  0.00    +0.018 A 
ATOM     23  C   UNL     1      -1.855  -2.060  24.534  0.00  0.00    -0.002 A 
BRANCH  21  24
ATOM     24  S   UNL     1      -3.968  -2.365  24.079  0.00  0.00    +0.010 S 
ATOM     25  C   UNL     1      -4.656  -2.654  23.725  0.00  0.00    +0.182 C 
ATOM     26  O   UNL     1      -3.829  -3.107  24.412  0.00  0.00    -0.169 OA
ATOM     27  O   UNL     1      -4.107  -1.624  23.745  0.00  0.00    -0.169 OA
ENDBRANCH  21  24
ENDBRANCH  17  18
ENDBRANCH  16  17
TORSDOF 5
ENDMDL
MODEL 2
REMARK VINA RESULT:     -11.6      2.162      2.831
REMARK  Name = 
REMARK  5 active torsions:
REMARK  status: ('A' for Active; 'I' for Inactive)
REMARK    1  A    between atoms: C_5  and  C_8
REMARK    2  A    between atoms: C_11  and  C_13
REMARK    3  A    between atoms: N_16  and  C_17
REMARK    4  A    between atoms: C_17  and  C_18
REMARK    5  A    between atoms: C_21  and  S_24
REMARK                            x       y       z     vdW  Elec       q    Type
REMARK                         _______ _______ _______ _____ _____    ______ ____
ROOT
ATOM     13  C   UNL     1      -4.398   2.143  25.108  0.00  0.00    +0.096 C 
ATOM     14  C   UNL     1      -5.038   2.118  24.588  0.00  0.00    +0.028 C 
ATOM     15  C   UNL     1      -5.313   1.340  24.558  0.00  0.00    +0.073 C 
ATOM     16  N   UNL     1      -4.842   0.885  25.059  0.00  0.00    -0.268 NA
ATOM     28  C   UNL     1      -4.277   1.381  25.400  0.00  0.00    +0.082 C 
ENDROOT
BRANCH  13  11
ATOM      8  C   UNL     1      -2.979   3.719  25.345  0.00  0.00    +0.250 A 
ATOM      9  N   UNL     1      -3.576   3.964  25.858  0.00  0.00    -0.107 NA
ATOM     10  N   UNL     1      -4.181   3.404  25.832  0.00  0.00    -0.111 NA
ATOM     11  C   UNL     1      -3.957   2.812  25.303  0.00  0.00    +0.227 A 
ATOM     12  O   UNL     1      -3.214   3.007  25.002  0.00  0.00    -0.419 OA
BRANCH   8   5
ATOM      1  C   UNL     1      -0.145   5.309  24.768  0.00  0.00    +0.031 C 
ATOM      2  C   UNL     1      -0.853   4.911  24.913  0.00  0.00    -0.022 A 
ATOM      3  C   UNL     1      -0.880   4.087  24.871  0.00  0.00    -0.004 A 
ATOM      4  C   UNL     1      -1.589   3.690  25.016  0.00  0.00    +0.004 A 
ATOM      5  C   UNL     1      -2.270   4.117  25.201  0.00  0.00    +0.055 A 
ATOM      6  C   UNL     1      -2.243   4.940  25.242  0.00  0.00    +0.004 A 
ATOM      7  C   UNL     1      -1.535   5.337  25.098  0.00  0.00    -0.004 A 
ENDBRANCH   8   5
ENDBRANCH  13  11
BRANCH  16  17
ATOM     17  C   UNL     1      -4.923   0.075  25.196  0.00  0.00    +0.099 C 
BRANCH  17  18
ATOM     18  C   UNL     1      -4.295  -0.435  25.035  0.00  0.00    -0.006 A 
ATOM     19  C   UNL     1      -4.185  -0.725  24.270  0.00  0.00    -0.002 A 
ATOM     20  C   UNL     1      -3.557  -1.235  24.109  0.00  0.00    +0.018 A 
ATOM     21  C   UNL     1      -3.039  -1.455  24.713  0.00  0.00    +0.106 A 
ATOM     22  C   UNL     1      -3.149  -1.166  25.477  0.00  0.00    +0.018 A 
ATOM     23  C   UNL     1      -3.777  -0.655  25.639  0.00  0.00    -0.002 A 
BRANCH  21  24
ATOM     24  S   UNL     1      -2.412  -1.966  24.551  0.00  0.00    +0.010 S 
ATOM     25  C   UNL     1      -1.784  -2.477  24.390  0.00  0.00    +0.182 C 
ATOM     26  O   UNL     1      -2.931  -2.607  24.558  0.00  0.00    -0.169 OA
ATOM     27  O   UNL     1      -1.892  -1.325  24.545  0.00  0.00    -0.169 OA
ENDBRANCH  21  24
ENDBRANCH  17  18
ENDBRANCH  16  17
TORSDOF 5
ENDMDL
MODEL 3
REMARK VINA RESULT:     -11.5      2.760      6.155
REMARK  Name = 
REMARK  5 active torsions:
REMARK  status: ('A' for Active; 'I' for Inactive)
REMARK    1  A    between atoms: C_5  and  C_8
REMARK    2  A    between atoms: C_11  and  C_13
REMARK    3  A    between atoms: N_16  and  C_17
REMARK    4  A    between atoms: C_17  and  C_18
REMARK    5  A    between atoms: C_21  and  S_24
REMARK                            x       y       z     vdW  Elec       q    Type
REMARK                         _______ _______ _______ _____ _____    ______ ____
ROOT
ATOM     13  C   UNL     1      -4.895   1.425  25.138  0.00  0.00    +0.096 C 
ATOM     14  C   UNL     1      -5.496   1.621  25.670  0.00  0.00    +0.028 C 
ATOM     15  C   UNL     1      -5.482   2.439  25.780  0.00  0.00    +0.073 C 
ATOM     16  N   UNL     1      -4.875   2.748  25.316  0.00  0.00    -0.268 NA
ATOM     28  C   UNL     1      -4.512   2.122  24.919  0.00  0.00    +0.082 C 
ENDROOT
BRANCH  13  11
ATOM      8  C   UNL     1      -4.061  -0.477  24.648  0.00  0.00    +0.250 A 
ATOM      9  N   UNL     1      -4.796  -0.525  24.278  0.00  0.00    -0.107 NA
ATOM     10  N   UNL     1      -5.199   0.182  24.416  0.00  0.00    -0.111 NA
ATOM     11  C   UNL     1      -4.712   0.667  24.872  0.00  0.00    +0.227 A 
ATOM     12  O   UNL     1      -4.008   0.260  25.015  0.00  0.00    -0.419 OA
BRANCH   8   5
ATOM      1  C   UNL     1      -1.736  -2.819  24.658  0.00  0.00    +0.031 C 
ATOM      2  C   UNL     1      -2.317  -2.234  24.656  0.00  0.00    -0.022 A 
ATOM      3  C   UNL     1      -2.101  -1.437  24.650  0.00  0.00    -0.004 A 
ATOM      4  C   UNL     1      -2.682  -0.851  24.647  0.00  0.00    +0.004 A 
ATOM      5  C   UNL     1      -3.479  -1.063  24.651  0.00  0.00    +0.055 A 
ATOM      6  C   UNL     1      -3.696  -1.858  24.656  0.00  0.00    +0.004 A 
ATOM      7  C   UNL     1      -3.115  -2.444  24.659  0.00  0.00    -0.004 A 
ENDBRANCH   8   5
ENDBRANCH  13  11
BRANCH  16  17
ATOM     17  C   UNL     1      -4.666   3.545  25.259  0.00  0.00    +0.099 C 
BRANCH  17  18
ATOM     18  C   UNL     1      -3.870   3.762  25.230  0.00  0.00    -0.006 A 
ATOM     19  C   UNL     1      -3.452   3.892  25.929  0.00  0.00    -0.002 A 
ATOM     20  C   UNL     1      -2.657   4.109  25.900  0.00  0.00    +0.018 A 
ATOM     21  C   UNL     1      -2.280   4.196  25.171  0.00  0.00    +0.106 A 
ATOM     22  C   UNL     1      -2.697   4.065  24.472  0.00  0.00    +0.018 A 
ATOM     23  C   UNL     1      -3.494   3.848  24.501  0.00  0.00    -0.002 A 
BRANCH  21  24
ATOM     24  S   UNL     1      -1.484   4.412  25.141  0.00  0.00    +0.010 S 
ATOM     25  C   UNL     1      -0.689   4.630  25.112  0.00  0.00    +0.182 C 
ATOM     26  O   UNL     1      -1.689   5.188  25.335  0.00  0.00    -0.169 OA
ATOM     27  O   UNL     1      -1.280   3.637  24.948  0.00  0.00    -0.169 OA
ENDBRANCH  21  24
ENDBRANCH  17  18
ENDBRANCH  16  17
TORSDOF 5
ENDMDL
MODEL 4
REMARK VINA RESULT:     -11.2      1.849      5.674
REMARK  Name = 
REMARK  5 active torsions:
REMARK  status: ('A' for Active; 'I' for Inactive)
REMARK    1  A    between atoms: C_5  and  C_8
REMARK    2  A    between atoms: C_11  and  C_13
REMARK    3  A    between atoms: N_16  and  C_17
REMARK    4  A    between atoms: C_17  and  C_18
REMARK    5  A    between atoms: C_21  and  S_24
REMARK                            x       y       z     vdW  Elec       q    Type
REMARK                         _______ _______ _______ _____ _____    ______ ____
ROOT
ATOM     13  C   UNL     1      -0.622   0.322  24.780  0.00  0.00    +0.096 C 
ATOM     14  C   UNL     1      -0.137   0.550  24.152  0.00  0.00    +0.028 C 
ATOM     15  C   UNL     1       0.191   1.285  24.336  0.00  0.00    +0.073 C 
ATOM     16  N   UNL     1      -0.091   1.511  25.078  0.00  0.00    -0.268 NA
ATOM     28  C   UNL     1      -0.593   0.916  25.352  0.00  0.00    +0.082 C 
ENDROOT
BRANCH  13  11
ATOM      8  C   UNL     1      -2.029  -1.279  24.675  0.00  0.00    +0.250 A 
ATOM      9  N   UNL     1      -1.429  -1.623  25.124  0.00  0.00    -0.107 NA
ATOM     10  N   UNL     1      -0.828  -1.066  25.219  0.00  0.00    -0.111 NA
ATOM     11  C   UNL     1      -1.057  -0.376  24.828  0.00  0.00    +0.227 A 
ATOM     12  O   UNL     1      -1.799  -0.509  24.491  0.00  0.00    -0.419 OA
BRANCH   8   5
ATOM      1  C   UNL     1      -4.851  -2.731  23.770  0.00  0.00    +0.031 C 
ATOM      2  C   UNL     1      -4.145  -2.368  23.996  0.00  0.00    -0.022 A 
ATOM      3  C   UNL     1      -4.078  -1.545  23.973  0.00  0.00    -0.004 A 
ATOM      4  C   UNL     1      -3.373  -1.183  24.199  0.00  0.00    +0.004 A 
ATOM      5  C   UNL     1      -2.734  -1.642  24.449  0.00  0.00    +0.055 A 
ATOM      6  C   UNL     1      -2.801  -2.464  24.472  0.00  0.00    +0.004 A 
ATOM      7  C   UNL     1      -3.507  -2.826  24.246  0.00  0.00    -0.004 A 
ENDBRANCH   8   5
ENDBRANCH  13  11
BRANCH  16  17
ATOM     17  C   UNL     1       0.096   2.209  25.476  0.00  0.00    +0.099 C 
BRANCH  17  18
ATOM     18  C   UNL     1      -0.405   2.862  25.420  0.00  0.00    -0.006 A 
ATOM     19  C   UNL     1      -1.000   2.975  25.981  0.00  0.00    -0.002 A 
ATOM     20  C   UNL     1      -1.501   3.628  25.926  0.00  0.00    +0.018 A 
ATOM     21  C   UNL     1      -1.406   4.169  25.309  0.00  0.00    +0.106 A 
ATOM     22  C   UNL     1      -0.812   4.057  24.749  0.00  0.00    +0.018 A 
ATOM     23  C   UNL     1      -0.310   3.403  24.804  0.00  0.00    -0.002 A 
BRANCH  21  24
ATOM     24  S   UNL     1      -1.907   4.822  25.254  0.00  0.00    +0.010 S 
ATOM     25  C   UNL     1      -2.409   5.475  25.199  0.00  0.00    +0.182 C 
ATOM     26  O   UNL     1      -2.563   4.324  25.307  0.00  0.00    -0.169 OA
ATOM     27  O   UNL     1      -1.252   5.320  25.201  0.00  0.00    -0.169 OA
ENDBRANCH  21  24
ENDBRANCH  17  18
ENDBRANCH  16  17
TORSDOF 5
ENDMDL
MODEL 5
REMARK VINA RESULT:     -11.1      2.076      5.301
REMARK  Name = 
REMARK  5 active torsions:
REMARK  status: ('A' for Active; 'I' for Inactive)
REMARK    1  A    between atoms: C_5  and  C_8
REMARK    2  A    between atoms: C_11  and  C_13
REMARK    3  A    between atoms: N_16  and  C_17
REMARK    4  A    between atoms: C_17  and  C_18
REMARK    5  A    between atoms: C_21  and  S_24
REMARK                            x       y       z     vdW  Elec       q    Type
REMARK                         _______ _______ _______ _____ _____    ______ ____
ROOT
ATOM     13  C   UNL     1      -0.969   1.413  25.299  0.00  0.00    +0.096 C 
ATOM     14  C   UNL     1      -0.396   1.791  25.756  0.00  0.00    +0.028 C 
ATOM     15  C   UNL     1      -0.571   2.597  25.771  0.00  0.00    +0.073 C 
ATOM     16  N   UNL     1      -1.253   2.717  25.322  0.00  0.00    -0.268 NA
ATOM     28  C   UNL     1      -1.499   1.986  25.030  0.00  0.00    +0.082 C 
ENDROOT
BRANCH  13  11
ATOM      8  C   UNL     1      -1.475  -0.628  24.933  0.00  0.00    +0.250 A 
ATOM      9  N   UNL     1      -0.655  -0.649  24.850  0.00  0.00    -0.107 NA
ATOM     10  N   UNL     1      -0.365   0.112  24.976  0.00  0.00    -0.111 NA
ATOM     11  C   UNL     1      -1.006   0.605  25.138  0.00  0.00    +0.227 A 
ATOM     12  O   UNL     1      -1.693   0.147  25.111  0.00  0.00    -0.419 OA
BRANCH   8   5
ATOM      1  C   UNL     1      -3.525  -3.194  24.608  0.00  0.00    +0.031 C 
ATOM      2  C   UNL     1      -3.013  -2.552  24.689  0.00  0.00    -0.022 A 
ATOM      3  C   UNL     1      -2.228  -2.616  24.439  0.00  0.00    -0.004 A 
ATOM      4  C   UNL     1      -1.716  -1.975  24.520  0.00  0.00    +0.004 A 
ATOM      5  C   UNL     1      -1.987  -1.270  24.851  0.00  0.00    +0.055 A 
ATOM      6  C   UNL     1      -2.770  -1.206  25.102  0.00  0.00    +0.004 A 
ATOM      7  C   UNL     1      -3.283  -1.847  25.021  0.00  0.00    -0.004 A 
ENDBRANCH   8   5
ENDBRANCH  13  11
BRANCH  16  17
ATOM     17  C   UNL     1      -1.623   3.443  25.188  0.00  0.00    +0.099 C 
BRANCH  17  18
ATOM     18  C   UNL     1      -2.442   3.509  25.269  0.00  0.00    -0.006 A 
ATOM     19  C   UNL     1      -2.933   3.360  24.623  0.00  0.00    -0.002 A 
ATOM     20  C   UNL     1      -3.752   3.426  24.704  0.00  0.00    +0.018 A 
ATOM     21  C   UNL     1      -4.078   3.641  25.430  0.00  0.00    +0.106 A 
ATOM     22  C   UNL     1      -3.588   3.789  26.076  0.00  0.00    +0.018 A 
ATOM     23  C   UNL     1      -2.768   3.723  25.996  0.00  0.00    -0.002 A 
BRANCH  21  24
ATOM     24  S   UNL     1      -4.897   3.707  25.511  0.00  0.00    +0.010 S 
ATOM     25  C   UNL     1      -5.716   3.772  25.592  0.00  0.00    +0.182 C 
ATOM     26  O   UNL     1      -4.935   2.921  25.760  0.00  0.00    -0.169 OA
ATOM     27  O   UNL     1      -4.858   4.492  25.262  0.00  0.00    -0.169 OA
ENDBRANCH  21  24
ENDBRANCH  17  18
ENDBRANCH  16  17
TORSDOF 5
ENDMDL
