MODEL 1
REMARK VINA RESULT:      -7.8      0.000      0.000
REMARK  Name = 
REMARK  5 active torsions:
REMARK  status: ('A' for Active; 'I' for Inactive)
REMARK    1  A    between atoms: C_2  and  N_4
REMARK    2  A    between atoms: N_4  and  C_5
REMARK    3  A    between atoms: C_8  and  C_9
REMARK    4  A    between atoms: C_9  and  N_10
REMARK    5  A    between atoms: C_11  and  C_13
REMARK                            x       y       z     vdW  Elec       q    Type
REMARK                         _______ _______ _______ _____ _____    ______ ____
ROOT
ATOM      5  C   UNL     1      -3.838   0.306  24.730  0.00  0.00    +0.135 C 
ATOM      6  C   UNL     1      -3.049   0.324  24.489  0.00  0.00    +0.162 C 
ATOM      7  O   UNL     1      -2.809   1.113  24.465  0.00  0.00    -0.350 OA
ATOM      8  C   UNL     1      -3.449   1.582  24.691  0.00  0.00    +0.169 C 
ATOM     16  C   UNL     1      -4.085   1.083  24.854  0.00  0.00    +0.199 C 
ATOM     17  O   UNL     1      -4.837   1.320  25.099  0.00  0.00    -0.219 OA
ENDROOT
BRANCH   5   4
ATOM      4  N   UNL     1      -4.299  -0.371  24.828  0.00  0.00    -0.216 NA
BRANCH   4   2
ATOM      1  C   UNL     1      -3.544  -1.490  25.296  0.00  0.00    +0.019 C 
ATOM      2  C   UNL     1      -3.971  -1.117  24.698  0.00  0.00    +0.073 C 
ATOM      3  C   UNL     1      -4.070  -1.489  23.967  0.00  0.00    +0.019 C 
ENDBRANCH   4   2
ENDBRANCH   5   4
BRANCH   8   9
ATOM      9  C   UNL     1      -3.452   2.406  24.744  0.00  0.00    +0.147 C 
BRANCH   9  10
ATOM     10  N   UNL     1      -2.758   2.810  24.928  0.00  0.00    -0.203 NA
ATOM     11  C   UNL     1      -2.747   3.635  24.921  0.00  0.00    +0.241 C 
ATOM     12  O   UNL     1      -3.430   4.055  24.730  0.00  0.00    -0.273 OA
BRANCH  11  13
ATOM     13  C   UNL     1      -2.052   4.039  25.106  0.00  0.00    +0.078 C 
ATOM     14  C   UNL     1      -1.659   4.746  25.276  0.00  0.00    +0.010 C 
ATOM     15  C   UNL     1      -1.241   4.035  25.256  0.00  0.00    +0.010 C 
ENDBRANCH  11  13
ENDBRANCH   9  10
ENDBRANCH   8   9
TORSDOF 5
ENDMDL
MODEL 2
REMARK VINA RESULT:      -7.6      0.922      4.298
REMARK  Name = 
REMARK  5 active torsions:
REMARK  status: ('A' for Active; 'I' for Inactive)
REMARK    1  A    between atoms: C_2  and  N_4
REMARK    2  A    between atoms: N_4  and  C_5
REMARK    3  A    between atoms: C_8  and  C_9
REMARK    4  A    between atoms: C_9  and  N_10
REMARK    5  A    between atoms: C_11  and  C_13
REMARK                            x       y       z     vdW  Elec       q    Type
REMARK                         _______ _______ _______ _____ _____    ______ ____
ROOT
ATOM      5  C   UNL     1      -3.071   2.610  24.818  0.00  0.00    +0.135 C 
ATOM      6  C   UNL     1      -2.438   2.147  25.074  0.00  0.00    +0.162 C 
ATOM      7  O   UNL     1      -2.641   1.355  24.962  0.00  0.00    -0.350 OA
ATOM      8  C   UNL     1      -3.398   1.329  24.638  0.00  0.00    +0.169 C 
ATOM     16  C   UNL     1      -3.665   2.104  24.549  0.00  0.00    +0.199 C 
ATOM     17  O   UNL     1      -4.396   2.334  24.244  0.00  0.00    -0.219 OA
ENDROOT
BRANCH   5   4
ATOM      4  N   UNL     1      -3.104   3.434  24.830  0.00  0.00    -0.216 NA
BRANCH   4   2
ATOM      1  C   UNL     1      -1.859   4.106  25.028  0.00  0.00    +0.019 C 
ATOM      2  C   UNL     1      -2.592   3.861  25.315  0.00  0.00    +0.073 C 
ATOM      3  C   UNL     1      -2.814   4.044  26.089  0.00  0.00    +0.019 C 
ENDBRANCH   4   2
ENDBRANCH   5   4
BRANCH   8   9
ATOM      9  C   UNL     1      -3.817   0.646  24.438  0.00  0.00    +0.147 C 
BRANCH   9  10
ATOM     10  N   UNL     1      -3.531  -0.094  24.662  0.00  0.00    -0.203 NA
ATOM     11  C   UNL     1      -3.953  -0.775  24.468  0.00  0.00    +0.241 C 
ATOM     12  O   UNL     1      -4.662  -0.717  24.050  0.00  0.00    -0.273 OA
BRANCH  11  13
ATOM     13  C   UNL     1      -3.666  -1.516  24.692  0.00  0.00    +0.078 C 
ATOM     14  C   UNL     1      -3.414  -2.276  24.490  0.00  0.00    +0.010 C 
ATOM     15  C   UNL     1      -3.423  -2.040  25.281  0.00  0.00    +0.010 C 
ENDBRANCH  11  13
ENDBRANCH   9  10
ENDBRANCH   8   9
TORSDOF 5
ENDMDL
MODEL 3
REMARK VINA RESULT:      -7.5      2.358      5.078
REMARK  Name = 
REMARK  5 active torsions:
REMARK  status: ('A' for Active; 'I' for Inactive)
REMARK    1  A    between atoms: C_2  and  N_4
REMARK    2  A    between atoms: N_4  and  C_5
REMARK    3  A    between atoms: C_8  and  C_9
REMARK    4  A    between atoms: C_9  and  N_10
REMARK    5  A    between atoms: C_11  and  C_13
REMARK                            x       y       z     vdW  Elec       q    Type
REMARK                         _______ _______ _______ _____ _____    ______ ____
ROOT
ATOM      5  C   UNL     1      -0.609   1.136  25.026  0.00  0.00    +0.135 C 
ATOM      6  C   UNL     1      -1.267   1.105  25.523  0.00  0.00    +0.162 C 
ATOM      7  O   UNL     1      -1.614   0.361  25.438  0.00  0.00    -0.350 OA
ATOM      8  C   UNL     1      -1.170  -0.066  24.890  0.00  0.00    +0.169 C 
ATOM     16  C   UNL     1      -0.549   0.413  24.635  0.00  0.00    +0.199 C 
ATOM     17  O   UNL     1       0.031   0.205  24.086  0.00  0.00    -0.219 OA
ENDROOT
BRANCH   5   4
ATOM      4  N   UNL     1      -0.100   1.780  24.937  0.00  0.00    -0.216 NA
BRANCH   4   2
ATOM      1  C   UNL     1      -0.655   3.092  25.047  0.00  0.00    +0.019 C 
ATOM      2  C   UNL     1      -0.224   2.469  25.374  0.00  0.00    +0.073 C 
ATOM      3  C   UNL     1       0.082   2.534  26.137  0.00  0.00    +0.019 C 
ENDBRANCH   4   2
ENDBRANCH   5   4
BRANCH   8   9
ATOM      9  C   UNL     1      -1.321  -0.838  24.640  0.00  0.00    +0.147 C 
BRANCH   9  10
ATOM     10  N   UNL     1      -2.080  -1.153  24.707  0.00  0.00    -0.203 NA
ATOM     11  C   UNL     1      -2.221  -1.938  24.497  0.00  0.00    +0.241 C 
ATOM     12  O   UNL     1      -1.603  -2.409  24.221  0.00  0.00    -0.273 OA
BRANCH  11  13
ATOM     13  C   UNL     1      -2.981  -2.252  24.564  0.00  0.00    +0.078 C 
ATOM     14  C   UNL     1      -3.741  -2.356  24.259  0.00  0.00    +0.010 C 
ATOM     15  C   UNL     1      -3.538  -2.693  24.984  0.00  0.00    +0.010 C 
ENDBRANCH  11  13
ENDBRANCH   9  10
ENDBRANCH   8   9
TORSDOF 5
ENDMDL
MODEL 4
REMARK VINA RESULT:      -7.3      1.634      2.100
REMARK  Name = 
REMARK  5 active torsions:
REMARK  status: ('A' for Active; 'I' for Inactive)
REMARK    1  A    between atoms: C_2  and  N_4
REMARK    2  A    between atoms: N_4  and  C_5
REMARK    3  A    between atoms: C_8  and  C_9
REMARK    4  A    between atoms: C_9  and  N_10
REMARK    5  A    between atoms: C_11  and  C_13
REMARK                            x       y       z     vdW  Elec       q    Type
REMARK                         _______ _______ _______ _____ _____    ______ ____
ROOT
ATOM      5  C   UNL     1      -3.500  -0.798  24.392  0.00  0.00    +0.135 C 
ATOM      6  C   UNL     1      -4.308  -0.711  24.538  0.00  0.00    +0.162 C 
ATOM      7  O   UNL     1      -4.466   0.095  24.617  0.00  0.00    -0.350 OA
ATOM      8  C   UNL     1      -3.757   0.505  24.521  0.00  0.00    +0.169 C 
ATOM     16  C   UNL     1      -3.160  -0.047  24.382  0.00  0.00    +0.199 C 
ATOM     17  O   UNL     1      -2.362   0.122  24.256  0.00  0.00    -0.219 OA
ENDROOT
BRANCH   5   4
ATOM      4  N   UNL     1      -3.103  -1.513  24.277  0.00  0.00    -0.216 NA
BRANCH   4   2
ATOM      1  C   UNL     1      -3.378  -2.583  25.182  0.00  0.00    +0.019 C 
ATOM      2  C   UNL     1      -3.480  -2.226  24.446  0.00  0.00    +0.073 C 
ATOM      3  C   UNL     1      -3.961  -2.583  23.878  0.00  0.00    +0.019 C 
ENDBRANCH   4   2
ENDBRANCH   5   4
BRANCH   8   9
ATOM      9  C   UNL     1      -3.661   1.324  24.558  0.00  0.00    +0.147 C 
BRANCH   9  10
ATOM     10  N   UNL     1      -4.253   1.795  24.887  0.00  0.00    -0.203 NA
ATOM     11  C   UNL     1      -4.153   2.611  24.933  0.00  0.00    +0.241 C 
ATOM     12  O   UNL     1      -3.460   2.959  24.651  0.00  0.00    -0.273 OA
BRANCH  11  13
ATOM     13  C   UNL     1      -4.745   3.082  25.262  0.00  0.00    +0.078 C 
ATOM     14  C   UNL     1      -5.082   3.826  25.384  0.00  0.00    +0.010 C 
ATOM     15  C   UNL     1      -5.435   3.155  25.709  0.00  0.00    +0.010 C 
ENDBRANCH  11  13
ENDBRANCH   9  10
ENDBRANCH   8   9
TORSDOF 5
ENDMDL
