MODEL 1
REMARK VINA RESULT:      -7.5      0.000      0.000
REMARK  Name = 
REMARK  7 active torsions:
REMARK  status: ('A' for Active; 'I' for Inactive)
REMARK    1  A    between atoms: C_2  and  C_4
REMARK    2  A    between atoms: C_6  and  C_7
REMARK    3  A    between atoms: C_7  and  C_8
REMARK    4  A    between atoms: C_11  and  C_13
REMARK    5  A    between atoms: C_16  and  N_19
REMARK    6  A    between atoms: C_25  and  C_26
REMARK    7  A    between atoms: C_26  and  N_27
REMARK                            x       y       z     vdW  Elec       q    Type
REMARK                         _______ _______ _______ _____ _____    ______ ____
ROOT
ATOM      4  C   UNL     1      -0.791   1.942  24.437  0.00  0.00    +0.006 C 
ATOM      5  C   UNL     1      -0.339   1.266  24.297  0.00  0.00    +0.005 C 
ATOM      6  C   UNL     1      -0.710   0.551  24.116  0.00  0.00    +0.027 C 
ATOM     22  C   UNL     1      -1.534   0.513  24.077  0.00  0.00    -0.048 C 
ATOM     23  C   UNL     1      -1.904  -0.201  23.897  0.00  0.00    +0.026 C 
ATOM     24  C   UNL     1      -1.985   1.189  24.217  0.00  0.00    -0.034 C 
ATOM     25  C   UNL     1      -1.614   1.903  24.397  0.00  0.00    +0.037 C 
ENDROOT
BRANCH   4   2
ATOM      1  C   UNL     1      -0.288   3.213  24.022  0.00  0.00    +0.000 C 
ATOM      2  C   UNL     1      -0.420   2.656  24.617  0.00  0.00    +0.000 C 
ATOM      3  C   UNL     1      -0.180   2.813  25.390  0.00  0.00    +0.000 C 
ENDBRANCH   4   2
BRANCH   6   7
ATOM      7  C   UNL     1      -0.258  -0.124  23.976  0.00  0.00    +0.091 C 
BRANCH   7   8
ATOM      8  C   UNL     1       0.408  -0.081  23.493  0.00  0.00    +0.227 A 
ATOM      9  N   UNL     1       0.410  -0.095  22.668  0.00  0.00    -0.111 NA
ATOM     10  N   UNL     1       1.194  -0.039  22.414  0.00  0.00    -0.107 NA
ATOM     11  C   UNL     1       1.675   0.009  23.082  0.00  0.00    +0.250 A 
ATOM     12  O   UNL     1       1.190  -0.017  23.749  0.00  0.00    -0.420 OA
BRANCH  11  13
ATOM     13  C   UNL     1       2.498   0.072  23.084  0.00  0.00    +0.055 A 
ATOM     14  C   UNL     1       2.960  -0.574  23.308  0.00  0.00    +0.006 A 
ATOM     15  C   UNL     1       3.783  -0.512  23.310  0.00  0.00    +0.015 A 
ATOM     16  C   UNL     1       4.143   0.197  23.087  0.00  0.00    +0.048 A 
ATOM     17  C   UNL     1       3.682   0.842  22.863  0.00  0.00    +0.015 A 
ATOM     18  C   UNL     1       2.858   0.779  22.862  0.00  0.00    +0.006 A 
BRANCH  16  19
ATOM     19  N   UNL     1       4.966   0.259  23.089  0.00  0.00    -0.304 N 
ATOM     20  C   UNL     1       5.360   0.496  23.773  0.00  0.00    +0.112 C 
ATOM     21  C   UNL     1       5.394   0.084  22.406  0.00  0.00    +0.112 C 
ENDBRANCH  16  19
ENDBRANCH  11  13
ENDBRANCH   7   8
ENDBRANCH   6   7
BRANCH  25  26
ATOM     26  C   UNL     1      -2.066   2.578  24.538  0.00  0.00    +0.076 C 
BRANCH  26  27
ATOM     27  N   UNL     1      -2.881   2.513  24.657  0.00  0.00    -0.269 NA
ATOM     28  C   UNL     1      -3.178   2.407  25.420  0.00  0.00    +0.094 C 
ATOM     29  C   UNL     1      -3.992   2.341  25.539  0.00  0.00    +0.111 C 
ATOM     30  N   UNL     1      -4.508   2.382  24.896  0.00  0.00    -0.277 N 
ATOM     31  C   UNL     1      -4.209   2.487  24.134  0.00  0.00    +0.111 C 
ATOM     32  C   UNL     1      -3.396   2.553  24.015  0.00  0.00    +0.094 C 
ATOM     33  C   UNL     1      -5.321   2.316  25.015  0.00  0.00    +0.226 C 
ATOM     34  C   UNL     1      -5.619   2.210  25.777  0.00  0.00    +0.095 C 
ATOM     35  O   UNL     1      -5.837   2.356  24.373  0.00  0.00    -0.275 OA
ENDBRANCH  26  27
ENDBRANCH  25  26
TORSDOF 7
ENDMDL
MODEL 2
REMARK VINA RESULT:      -7.4      1.294      6.853
REMARK  Name = 
REMARK  7 active torsions:
REMARK  status: ('A' for Active; 'I' for Inactive)
REMARK    1  A    between atoms: C_2  and  C_4
REMARK    2  A    between atoms: C_6  and  C_7
REMARK    3  A    between atoms: C_7  and  C_8
REMARK    4  A    between atoms: C_11  and  C_13
REMARK    5  A    between atoms: C_16  and  N_19
REMARK    6  A    between atoms: C_25  and  C_26
REMARK    7  A    between atoms: C_26  and  N_27
REMARK                            x       y       z     vdW  Elec       q    Type
REMARK                         _______ _______ _______ _____ _____    ______ ____
ROOT
ATOM      4  C   UNL     1      -0.713   0.525  24.680  0.00  0.00    +0.006 C 
ATOM      5  C   UNL     1      -1.035   1.197  25.033  0.00  0.00    +0.005 C 
ATOM      6  C   UNL     1      -0.711   1.940  24.876  0.00  0.00    +0.027 C 
ATOM     22  C   UNL     1      -0.067   2.010  24.365  0.00  0.00    -0.048 C 
ATOM     23  C   UNL     1       0.256   2.752  24.208  0.00  0.00    +0.026 C 
ATOM     24  C   UNL     1       0.254   1.336  24.012  0.00  0.00    -0.034 C 
ATOM     25  C   UNL     1      -0.069   0.594  24.169  0.00  0.00    +0.037 C 
ENDROOT
BRANCH   4   2
ATOM      1  C   UNL     1      -0.811  -0.630  25.516  0.00  0.00    +0.000 C 
ATOM      2  C   UNL     1      -1.037  -0.217  24.837  0.00  0.00    +0.000 C 
ATOM      3  C   UNL     1      -1.585  -0.547  24.318  0.00  0.00    +0.000 C 
ENDBRANCH   4   2
BRANCH   6   7
ATOM      7  C   UNL     1      -1.033   2.613  25.229  0.00  0.00    +0.091 C 
BRANCH   7   8
ATOM      8  C   UNL     1      -1.810   2.833  25.066  0.00  0.00    +0.227 A 
ATOM      9  N   UNL     1      -2.046   3.496  24.635  0.00  0.00    -0.111 NA
ATOM     10  N   UNL     1      -2.871   3.502  24.608  0.00  0.00    -0.107 NA
ATOM     11  C   UNL     1      -3.144   2.843  25.021  0.00  0.00    +0.250 A 
ATOM     12  O   UNL     1      -2.488   2.429  25.304  0.00  0.00    -0.420 OA
BRANCH  11  13
ATOM     13  C   UNL     1      -3.934   2.634  25.132  0.00  0.00    +0.055 A 
ATOM     14  C   UNL     1      -4.228   1.938  24.799  0.00  0.00    +0.006 A 
ATOM     15  C   UNL     1      -5.017   1.728  24.909  0.00  0.00    +0.015 A 
ATOM     16  C   UNL     1      -5.514   2.214  25.355  0.00  0.00    +0.048 A 
ATOM     17  C   UNL     1      -5.222   2.909  25.688  0.00  0.00    +0.015 A 
ATOM     18  C   UNL     1      -4.431   3.119  25.577  0.00  0.00    +0.006 A 
BRANCH  16  19
ATOM     19  N   UNL     1      -6.305   2.004  25.465  0.00  0.00    -0.304 N 
ATOM     20  C   UNL     1      -6.800   1.902  24.814  0.00  0.00    +0.112 C 
ATOM     21  C   UNL     1      -6.599   1.896  26.228  0.00  0.00    +0.112 C 
ENDBRANCH  16  19
ENDBRANCH  11  13
ENDBRANCH   7   8
ENDBRANCH   6   7
BRANCH  25  26
ATOM     26  C   UNL     1       0.252  -0.078  23.817  0.00  0.00    +0.076 C 
BRANCH  26  27
ATOM     27  N   UNL     1       0.942  -0.019  23.367  0.00  0.00    -0.269 NA
ATOM     28  C   UNL     1       1.665   0.125  23.738  0.00  0.00    +0.094 C 
ATOM     29  C   UNL     1       2.354   0.184  23.289  0.00  0.00    +0.111 C 
ATOM     30  N   UNL     1       2.321   0.099  22.468  0.00  0.00    -0.277 N 
ATOM     31  C   UNL     1       1.598  -0.045  22.098  0.00  0.00    +0.111 C 
ATOM     32  C   UNL     1       0.909  -0.104  22.548  0.00  0.00    +0.094 C 
ATOM     33  C   UNL     1       3.010   0.158  22.020  0.00  0.00    +0.226 C 
ATOM     34  C   UNL     1       3.733   0.302  22.391  0.00  0.00    +0.095 C 
ATOM     35  O   UNL     1       2.977   0.073  21.200  0.00  0.00    -0.275 OA
ENDBRANCH  26  27
ENDBRANCH  25  26
TORSDOF 7
ENDMDL
MODEL 3
REMARK VINA RESULT:      -7.4      2.515      5.978
REMARK  Name = 
REMARK  7 active torsions:
REMARK  status: ('A' for Active; 'I' for Inactive)
REMARK    1  A    between atoms: C_2  and  C_4
REMARK    2  A    between atoms: C_6  and  C_7
REMARK    3  A    between atoms: C_7  and  C_8
REMARK    4  A    between atoms: C_11  and  C_13
REMARK    5  A    between atoms: C_16  and  N_19
REMARK    6  A    between atoms: C_25  and  C_26
REMARK    7  A    between atoms: C_26  and  N_27
REMARK                            x       y       z     vdW  Elec       q    Type
REMARK                         _______ _______ _______ _____ _____    ______ ____
ROOT
ATOM      4  C   UNL     1      -0.231   0.654  24.182  0.00  0.00    +0.006 C 
ATOM      5  C   UNL     1      -0.172   1.388  24.554  0.00  0.00    +0.005 C 
ATOM      6  C   UNL     1      -0.392   1.468  25.346  0.00  0.00    +0.027 C 
ATOM     22  C   UNL     1      -0.670   0.814  25.765  0.00  0.00    -0.048 C 
ATOM     23  C   UNL     1      -0.889   0.894  26.555  0.00  0.00    +0.026 C 
ATOM     24  C   UNL     1      -0.728   0.080  25.392  0.00  0.00    -0.034 C 
ATOM     25  C   UNL     1      -0.509   0.000  24.601  0.00  0.00    +0.037 C 
ENDROOT
BRANCH   4   2
ATOM      1  C   UNL     1      -0.509   0.855  22.795  0.00  0.00    +0.000 C 
ATOM      2  C   UNL     1      -0.011   0.575  23.391  0.00  0.00    +0.000 C 
ATOM      3  C   UNL     1       0.705   0.217  23.195  0.00  0.00    +0.000 C 
ENDBRANCH   4   2
BRANCH   6   7
ATOM      7  C   UNL     1      -0.333   2.202  25.717  0.00  0.00    +0.091 C 
BRANCH   7   8
ATOM      8  C   UNL     1      -0.911   2.776  25.591  0.00  0.00    +0.227 A 
ATOM      9  N   UNL     1      -0.775   3.562  25.378  0.00  0.00    -0.111 NA
ATOM     10  N   UNL     1      -1.507   3.937  25.310  0.00  0.00    -0.107 NA
ATOM     11  C   UNL     1      -2.095   3.384  25.482  0.00  0.00    +0.250 A 
ATOM     12  O   UNL     1      -1.726   2.666  25.656  0.00  0.00    -0.420 OA
BRANCH  11  13
ATOM     13  C   UNL     1      -2.907   3.523  25.481  0.00  0.00    +0.055 A 
ATOM     14  C   UNL     1      -3.358   3.330  24.817  0.00  0.00    +0.006 A 
ATOM     15  C   UNL     1      -4.171   3.469  24.815  0.00  0.00    +0.015 A 
ATOM     16  C   UNL     1      -4.534   3.801  25.478  0.00  0.00    +0.048 A 
ATOM     17  C   UNL     1      -4.085   3.993  26.142  0.00  0.00    +0.015 A 
ATOM     18  C   UNL     1      -3.270   3.854  26.143  0.00  0.00    +0.006 A 
BRANCH  16  19
ATOM     19  N   UNL     1      -5.348   3.940  25.476  0.00  0.00    -0.304 N 
ATOM     20  C   UNL     1      -5.874   3.310  25.556  0.00  0.00    +0.112 C 
ATOM     21  C   UNL     1      -5.634   4.709  25.395  0.00  0.00    +0.112 C 
ENDBRANCH  16  19
ENDBRANCH  11  13
ENDBRANCH   7   8
ENDBRANCH   6   7
BRANCH  25  26
ATOM     26  C   UNL     1      -0.567  -0.733  24.229  0.00  0.00    +0.076 C 
BRANCH  26  27
ATOM     27  N   UNL     1      -1.229  -1.210  24.357  0.00  0.00    -0.269 NA
ATOM     28  C   UNL     1      -1.961  -0.990  24.046  0.00  0.00    +0.094 C 
ATOM     29  C   UNL     1      -2.623  -1.466  24.174  0.00  0.00    +0.111 C 
ATOM     30  N   UNL     1      -2.553  -2.161  24.613  0.00  0.00    -0.277 N 
ATOM     31  C   UNL     1      -1.821  -2.380  24.924  0.00  0.00    +0.111 C 
ATOM     32  C   UNL     1      -1.159  -1.904  24.796  0.00  0.00    +0.094 C 
ATOM     33  C   UNL     1      -3.214  -2.637  24.741  0.00  0.00    +0.226 C 
ATOM     34  C   UNL     1      -3.946  -2.418  24.430  0.00  0.00    +0.095 C 
ATOM     35  O   UNL     1      -3.144  -3.331  25.180  0.00  0.00    -0.275 OA
ENDBRANCH  26  27
ENDBRANCH  25  26
TORSDOF 7
ENDMDL
MODEL 4
REMARK VINA RESULT:      -7.4      1.610      2.618
REMARK  Name = 
REMARK  7 active torsions:
REMARK  status: ('A' for Active; 'I' for Inactive)
REMARK    1  A    between atoms: C_2  and  C_4
REMARK    2  A    between atoms: C_6  and  C_7
REMARK    3  A    between atoms: C_7  and  C_8
REMARK    4  A    between atoms: C_11  and  C_13
REMARK    5  A    between atoms: C_16  and  N_19
REMARK    6  A    between atoms: C_25  and  C_26
REMARK    7  A    between atoms: C_26  and  N_27
REMARK                            x       y       z     vdW  Elec       q    Type
REMARK                         _______ _______ _______ _____ _____    ______ ____
ROOT
ATOM      4  C   UNL     1      -3.353  -0.512  24.489  0.00  0.00    +0.006 C 
ATOM      5  C   UNL     1      -2.614  -0.788  24.729  0.00  0.00    +0.005 C 
ATOM      6  C   UNL     1      -2.100  -0.287  25.138  0.00  0.00    +0.027 C 
ATOM     22  C   UNL     1      -2.327   0.489  25.306  0.00  0.00    -0.048 C 
ATOM     23  C   UNL     1      -1.814   0.988  25.714  0.00  0.00    +0.026 C 
ATOM     24  C   UNL     1      -3.067   0.763  25.065  0.00  0.00    -0.034 C 
ATOM     25  C   UNL     1      -3.580   0.263  24.657  0.00  0.00    +0.037 C 
ENDROOT
BRANCH   4   2
ATOM      1  C   UNL     1      -3.920  -0.965  23.258  0.00  0.00    +0.000 C 
ATOM      2  C   UNL     1      -3.866  -1.013  24.080  0.00  0.00    +0.000 C 
ATOM      3  C   UNL     1      -4.324  -1.559  24.493  0.00  0.00    +0.000 C 
ENDBRANCH   4   2
BRANCH   6   7
ATOM      7  C   UNL     1      -1.361  -0.562  25.378  0.00  0.00    +0.091 C 
BRANCH   7   8
ATOM      8  C   UNL     1      -0.794  -0.765  24.816  0.00  0.00    +0.227 A 
ATOM      9  N   UNL     1      -0.734  -1.491  24.427  0.00  0.00    -0.111 NA
ATOM     10  N   UNL     1      -0.089  -1.452  23.914  0.00  0.00    -0.107 NA
ATOM     11  C   UNL     1       0.250  -0.703  23.985  0.00  0.00    +0.250 A 
ATOM     12  O   UNL     1      -0.186  -0.279  24.543  0.00  0.00    -0.420 OA
BRANCH  11  13
ATOM     13  C   UNL     1       0.908  -0.427  23.572  0.00  0.00    +0.055 A 
ATOM     14  C   UNL     1       1.623  -0.837  23.613  0.00  0.00    +0.006 A 
ATOM     15  C   UNL     1       2.282  -0.562  23.201  0.00  0.00    +0.015 A 
ATOM     16  C   UNL     1       2.226   0.125  22.746  0.00  0.00    +0.048 A 
ATOM     17  C   UNL     1       1.512   0.536  22.705  0.00  0.00    +0.015 A 
ATOM     18  C   UNL     1       0.852   0.259  23.118  0.00  0.00    +0.006 A 
BRANCH  16  19
ATOM     19  N   UNL     1       2.885   0.401  22.333  0.00  0.00    -0.304 N 
ATOM     20  C   UNL     1       3.055   0.105  21.583  0.00  0.00    +0.112 C 
ATOM     21  C   UNL     1       3.373   0.973  22.671  0.00  0.00    +0.112 C 
ENDBRANCH  16  19
ENDBRANCH  11  13
ENDBRANCH   7   8
ENDBRANCH   6   7
BRANCH  25  26
ATOM     26  C   UNL     1      -4.319   0.538  24.416  0.00  0.00    +0.076 C 
BRANCH  26  27
ATOM     27  N   UNL     1      -4.601   1.262  24.696  0.00  0.00    -0.269 NA
ATOM     28  C   UNL     1      -4.364   1.965  24.333  0.00  0.00    +0.094 C 
ATOM     29  C   UNL     1      -4.646   2.688  24.612  0.00  0.00    +0.111 C 
ATOM     30  N   UNL     1      -5.165   2.709  25.254  0.00  0.00    -0.277 N 
ATOM     31  C   UNL     1      -5.401   2.006  25.616  0.00  0.00    +0.111 C 
ATOM     32  C   UNL     1      -5.119   1.283  25.337  0.00  0.00    +0.094 C 
ATOM     33  C   UNL     1      -5.446   3.432  25.533  0.00  0.00    +0.226 C 
ATOM     34  C   UNL     1      -5.210   4.135  25.171  0.00  0.00    +0.095 C 
ATOM     35  O   UNL     1      -5.965   3.453  26.174  0.00  0.00    -0.275 OA
ENDBRANCH  26  27
ENDBRANCH  25  26
TORSDOF 7
ENDMDL
MODEL 5
REMARK VINA RESULT:      -7.3      2.506      4.075
REMARK  Name = 
REMARK  7 active torsions:
REMARK  status: ('A' for Active; 'I' for Inactive)
REMARK    1  A    between atoms: C_2  and  C_4
REMARK    2  A    between atoms: C_6  and  C_7
REMARK    3  A    between atoms: C_7  and  C_8
REMARK    4  A    between atoms: C_11  and  C_13
REMARK    5  A    between atoms: C_16  and  N_19
REMARK    6  A    between atoms: C_25  and  C_26
REMARK    7  A    between atoms: C_26  and  N_27
REMARK                            x       y       z     vdW  Elec       q    Type
REMARK                         _______ _______ _______ _____ _____    ______ ____
ROOT
ATOM      4  C   UNL     1      -0.619   2.584  25.226  0.00  0.00    +0.006 C 
ATOM      5  C   UNL     1      -0.262   1.967  24.810  0.00  0.00    +0.005 C 
ATOM      6  C   UNL     1      -0.557   1.743  24.072  0.00  0.00    +0.027 C 
ATOM     22  C   UNL     1      -1.208   2.135  23.752  0.00  0.00    -0.048 C 
ATOM     23  C   UNL     1      -1.503   1.911  23.015  0.00  0.00    +0.026 C 
ATOM     24  C   UNL     1      -1.564   2.752  24.168  0.00  0.00    -0.034 C 
ATOM     25  C   UNL     1      -1.270   2.976  24.905  0.00  0.00    +0.037 C 
ENDROOT
BRANCH   4   2
ATOM      1  C   UNL     1       0.129   3.495  26.034  0.00  0.00    +0.000 C 
ATOM      2  C   UNL     1      -0.323   2.808  25.963  0.00  0.00    +0.000 C 
ATOM      3  C   UNL     1      -0.480   2.347  26.627  0.00  0.00    +0.000 C 
ENDBRANCH   4   2
BRANCH   6   7
ATOM      7  C   UNL     1      -0.201   1.126  23.657  0.00  0.00    +0.091 C 
BRANCH   7   8
ATOM      8  C   UNL     1      -0.341   0.344  23.877  0.00  0.00    +0.227 A 
ATOM      9  N   UNL     1       0.234  -0.230  24.022  0.00  0.00    -0.111 NA
ATOM     10  N   UNL     1      -0.151  -0.931  24.226  0.00  0.00    -0.107 NA
ATOM     11  C   UNL     1      -0.964  -0.790  24.207  0.00  0.00    +0.250 A 
ATOM     12  O   UNL     1      -1.081  -0.001  23.992  0.00  0.00    -0.420 OA
BRANCH  11  13
ATOM     13  C   UNL     1      -1.556  -1.339  24.375  0.00  0.00    +0.055 A 
ATOM     14  C   UNL     1      -2.247  -1.098  24.755  0.00  0.00    +0.006 A 
ATOM     15  C   UNL     1      -2.840  -1.647  24.923  0.00  0.00    +0.015 A 
ATOM     16  C   UNL     1      -2.740  -2.439  24.710  0.00  0.00    +0.048 A 
ATOM     17  C   UNL     1      -2.049  -2.680  24.330  0.00  0.00    +0.015 A 
ATOM     18  C   UNL     1      -1.457  -2.130  24.162  0.00  0.00    +0.006 A 
BRANCH  16  19
ATOM     19  N   UNL     1      -3.332  -2.988  24.878  0.00  0.00    -0.304 N 
ATOM     20  C   UNL     1      -3.346  -3.369  25.609  0.00  0.00    +0.112 C 
ATOM     21  C   UNL     1      -3.910  -3.157  24.314  0.00  0.00    +0.112 C 
ENDBRANCH  16  19
ENDBRANCH  11  13
ENDBRANCH   7   8
ENDBRANCH   6   7
BRANCH  25  26
ATOM     26  C   UNL     1      -1.625   3.593  25.321  0.00  0.00    +0.076 C 
BRANCH  26  27
ATOM     27  N   UNL     1      -2.449   3.659  25.337  0.00  0.00    -0.269 NA
ATOM     28  C   UNL     1      -2.898   3.109  25.757  0.00  0.00    +0.094 C 
ATOM     29  C   UNL     1      -3.720   3.175  25.773  0.00  0.00    +0.111 C 
ATOM     30  N   UNL     1      -4.093   3.791  25.370  0.00  0.00    -0.277 N 
ATOM     31  C   UNL     1      -3.643   4.340  24.950  0.00  0.00    +0.111 C 
ATOM     32  C   UNL     1      -2.821   4.274  24.934  0.00  0.00    +0.094 C 
ATOM     33  C   UNL     1      -4.914   3.857  25.386  0.00  0.00    +0.226 C 
ATOM     34  C   UNL     1      -5.364   3.307  25.806  0.00  0.00    +0.095 C 
ATOM     35  O   UNL     1      -5.287   4.472  24.983  0.00  0.00    -0.275 OA
ENDBRANCH  26  27
ENDBRANCH  25  26
TORSDOF 7
ENDMDL
MODEL 6
REMARK VINA RESULT:      -7.3      2.567      3.630
REMARK  Name = 
REMARK  7 active torsions:
REMARK  status: ('A' for Active; 'I' for Inactive)
REMARK    1  A    between atoms: C_2  and  C_4
REMARK    2  A    between atoms: C_6  and  C_7
REMARK    3  A    between atoms: C_7  and  C_8
REMARK    4  A    between atoms: C_11  and  C_13
REMARK    5  A    between atoms: C_16  and  N_19
REMARK    6  A    between atoms: C_25  and  C_26
REMARK    7  A    between atoms: C_26  and  N_27
REMARK                            x       y       z     vdW  Elec       q    Type
REMARK                         _______ _______ _______ _____ _____    ______ ____
ROOT
ATOM      4  C   UNL     1      -2.906   3.015  23.700  0.00  0.00    +0.006 C 
ATOM      5  C   UNL     1      -2.091   2.971  23.823  0.00  0.00    +0.005 C 
ATOM      6  C   UNL     1      -1.774   3.175  24.557  0.00  0.00    +0.027 C 
ATOM     22  C   UNL     1      -2.271   3.423  25.168  0.00  0.00    -0.048 C 
ATOM     23  C   UNL     1      -1.953   3.626  25.901  0.00  0.00    +0.026 C 
ATOM     24  C   UNL     1      -3.085   3.466  25.044  0.00  0.00    -0.034 C 
ATOM     25  C   UNL     1      -3.403   3.263  24.311  0.00  0.00    +0.037 C 
ENDROOT
BRANCH   4   2
ATOM      1  C   UNL     1      -3.208   2.025  22.716  0.00  0.00    +0.000 C 
ATOM      2  C   UNL     1      -3.223   2.811  22.967  0.00  0.00    +0.000 C 
ATOM      3  C   UNL     1      -3.553   3.392  22.484  0.00  0.00    +0.000 C 
ENDBRANCH   4   2
BRANCH   6   7
ATOM      7  C   UNL     1      -0.959   3.131  24.680  0.00  0.00    +0.091 C 
BRANCH   7   8
ATOM      8  C   UNL     1      -0.574   2.404  24.636  0.00  0.00    +0.227 A 
ATOM      9  N   UNL     1       0.221   2.287  24.448  0.00  0.00    -0.111 NA
ATOM     10  N   UNL     1       0.371   1.476  24.468  0.00  0.00    -0.107 NA
ATOM     11  C   UNL     1      -0.331   1.092  24.669  0.00  0.00    +0.250 A 
ATOM     12  O   UNL     1      -0.915   1.666  24.772  0.00  0.00    -0.420 OA
BRANCH  11  13
ATOM     13  C   UNL     1      -0.432   0.277  24.751  0.00  0.00    +0.055 A 
ATOM     14  C   UNL     1      -0.179  -0.232  24.153  0.00  0.00    +0.006 A 
ATOM     15  C   UNL     1      -0.279  -1.047  24.234  0.00  0.00    +0.015 A 
ATOM     16  C   UNL     1      -0.633  -1.352  24.914  0.00  0.00    +0.048 A 
ATOM     17  C   UNL     1      -0.887  -0.844  25.512  0.00  0.00    +0.015 A 
ATOM     18  C   UNL     1      -0.786  -0.028  25.430  0.00  0.00    +0.006 A 
BRANCH  16  19
ATOM     19  N   UNL     1      -0.734  -2.167  24.996  0.00  0.00    -0.304 N 
ATOM     20  C   UNL     1      -1.418  -2.529  24.709  0.00  0.00    +0.112 C 
ATOM     21  C   UNL     1      -0.151  -2.620  25.364  0.00  0.00    +0.112 C 
ENDBRANCH  16  19
ENDBRANCH  11  13
ENDBRANCH   7   8
ENDBRANCH   6   7
BRANCH  25  26
ATOM     26  C   UNL     1      -4.217   3.306  24.187  0.00  0.00    +0.076 C 
BRANCH  26  27
ATOM     27  N   UNL     1      -4.737   2.996  24.749  0.00  0.00    -0.269 NA
ATOM     28  C   UNL     1      -4.897   2.187  24.760  0.00  0.00    +0.094 C 
ATOM     29  C   UNL     1      -5.416   1.877  25.321  0.00  0.00    +0.111 C 
ATOM     30  N   UNL     1      -5.775   2.377  25.871  0.00  0.00    -0.277 N 
ATOM     31  C   UNL     1      -5.615   3.186  25.859  0.00  0.00    +0.111 C 
ATOM     32  C   UNL     1      -5.095   3.496  25.298  0.00  0.00    +0.094 C 
ATOM     33  C   UNL     1      -6.294   2.068  26.432  0.00  0.00    +0.226 C 
ATOM     34  C   UNL     1      -6.455   1.258  26.443  0.00  0.00    +0.095 C 
ATOM     35  O   UNL     1      -6.653   2.566  26.982  0.00  0.00    -0.275 OA
ENDBRANCH  26  27
ENDBRANCH  25  26
TORSDOF 7
ENDMDL
MODEL 7
REMARK VINA RESULT:      -6.8      1.433      2.650
REMARK  Name = 
REMARK  7 active torsions:
REMARK  status: ('A' for Active; 'I' for Inactive)
REMARK    1  A    between atoms: C_2  and  C_4
REMARK    2  A    between atoms: C_6  and  C_7
REMARK    3  A    between atoms: C_7  and  C_8
REMARK    4  A    between atoms: C_11  and  C_13
REMARK    5  A    between atoms: C_16  and  N_19
REMARK    6  A    between atoms: C_25  and  C_26
REMARK    7  A    between atoms: C_26  and  N_27
REMARK                            x       y       z     vdW  Elec       q    Type
REMARK                         _______ _______ _______ _____ _____    ______ ____
ROOT
ATOM      4  C   UNL     1      -2.711   2.617  23.723  0.00  0.00    +0.006 C 
ATOM      5  C   UNL     1      -1.922   2.761  23.914  0.00  0.00    +0.005 C 
ATOM      6  C   UNL     1      -1.731   3.129  24.628  0.00  0.00    +0.027 C 
ATOM     22  C   UNL     1      -2.330   3.353  25.150  0.00  0.00    -0.048 C 
ATOM     23  C   UNL     1      -2.139   3.720  25.862  0.00  0.00    +0.026 C 
ATOM     24  C   UNL     1      -3.119   3.208  24.957  0.00  0.00    -0.034 C 
ATOM     25  C   UNL     1      -3.310   2.840  24.245  0.00  0.00    +0.037 C 
ENDROOT
BRANCH   4   2
ATOM      1  C   UNL     1      -2.901   1.425  22.958  0.00  0.00    +0.000 C 
ATOM      2  C   UNL     1      -2.901   2.249  23.009  0.00  0.00    +0.000 C 
ATOM      3  C   UNL     1      -3.090   2.703  22.348  0.00  0.00    +0.000 C 
ENDBRANCH   4   2
BRANCH   6   7
ATOM      7  C   UNL     1      -0.942   3.274  24.818  0.00  0.00    +0.091 C 
BRANCH   7   8
ATOM      8  C   UNL     1      -0.395   2.657  24.806  0.00  0.00    +0.227 A 
ATOM      9  N   UNL     1      -0.114   2.245  25.464  0.00  0.00    -0.111 NA
ATOM     10  N   UNL     1       0.422   1.677  25.199  0.00  0.00    -0.107 NA
ATOM     11  C   UNL     1       0.473   1.738  24.378  0.00  0.00    +0.250 A 
ATOM     12  O   UNL     1      -0.032   2.344  24.135  0.00  0.00    -0.420 OA
BRANCH  11  13
ATOM     13  C   UNL     1       0.945   1.274  23.885  0.00  0.00    +0.055 A 
ATOM     14  C   UNL     1       0.674   0.540  23.624  0.00  0.00    +0.006 A 
ATOM     15  C   UNL     1       1.145   0.076  23.132  0.00  0.00    +0.015 A 
ATOM     16  C   UNL     1       1.889   0.347  22.900  0.00  0.00    +0.048 A 
ATOM     17  C   UNL     1       2.162   1.081  23.160  0.00  0.00    +0.015 A 
ATOM     18  C   UNL     1       1.689   1.544  23.653  0.00  0.00    +0.006 A 
BRANCH  16  19
ATOM     19  N   UNL     1       2.362  -0.117  22.407  0.00  0.00    -0.304 N 
ATOM     20  C   UNL     1       3.101  -0.374  22.666  0.00  0.00    +0.112 C 
ATOM     21  C   UNL     1       2.094  -0.323  21.655  0.00  0.00    +0.112 C 
ENDBRANCH  16  19
ENDBRANCH  11  13
ENDBRANCH   7   8
ENDBRANCH   6   7
BRANCH  25  26
ATOM     26  C   UNL     1      -4.098   2.696  24.053  0.00  0.00    +0.076 C 
BRANCH  26  27
ATOM     27  N   UNL     1      -4.646   2.538  24.651  0.00  0.00    -0.269 NA
ATOM     28  C   UNL     1      -4.802   1.758  24.871  0.00  0.00    +0.094 C 
ATOM     29  C   UNL     1      -5.349   1.600  25.468  0.00  0.00    +0.111 C 
ATOM     30  N   UNL     1      -5.740   2.222  25.845  0.00  0.00    -0.277 N 
ATOM     31  C   UNL     1      -5.584   3.001  25.623  0.00  0.00    +0.111 C 
ATOM     32  C   UNL     1      -5.037   3.159  25.026  0.00  0.00    +0.094 C 
ATOM     33  C   UNL     1      -6.286   2.064  26.441  0.00  0.00    +0.226 C 
ATOM     34  C   UNL     1      -6.443   1.284  26.663  0.00  0.00    +0.095 C 
ATOM     35  O   UNL     1      -6.678   2.685  26.818  0.00  0.00    -0.275 OA
ENDBRANCH  26  27
ENDBRANCH  25  26
TORSDOF 7
ENDMDL
MODEL 8
REMARK VINA RESULT:      -5.4     16.647     18.616
REMARK  Name = 
REMARK  7 active torsions:
REMARK  status: ('A' for Active; 'I' for Inactive)
REMARK    1  A    between atoms: C_2  and  C_4
REMARK    2  A    between atoms: C_6  and  C_7
REMARK    3  A    between atoms: C_7  and  C_8
REMARK    4  A    between atoms: C_11  and  C_13
REMARK    5  A    between atoms: C_16  and  N_19
REMARK    6  A    between atoms: C_25  and  C_26
REMARK    7  A    between atoms: C_26  and  N_27
REMARK                            x       y       z     vdW  Elec       q    Type
REMARK                         _______ _______ _______ _____ _____    ______ ____
ROOT
ATOM      4  C   UNL     1      -5.641  -9.757  11.482  0.00  0.00    +0.006 C 
ATOM      5  C   UNL     1      -5.727  -9.224  10.858  0.00  0.00    +0.005 C 
ATOM      6  C   UNL     1      -5.061  -8.955  10.452  0.00  0.00    +0.027 C 
ATOM     22  C   UNL     1      -4.310  -9.218  10.669  0.00  0.00    -0.048 C 
ATOM     23  C   UNL     1      -3.645  -8.949  10.263  0.00  0.00    +0.026 C 
ATOM     24  C   UNL     1      -4.225  -9.751  11.293  0.00  0.00    -0.034 C 
ATOM     25  C   UNL     1      -4.890 -10.021  11.700  0.00  0.00    +0.037 C 
ENDROOT
BRANCH   4   2
ATOM      1  C   UNL     1      -6.649  -9.557  12.475  0.00  0.00    +0.000 C 
ATOM      2  C   UNL     1      -6.307 -10.026  11.888  0.00  0.00    +0.000 C 
ATOM      3  C   UNL     1      -6.630 -10.762  11.709  0.00  0.00    +0.000 C 
ENDBRANCH   4   2
BRANCH   6   7
ATOM      7  C   UNL     1      -5.147  -8.422   9.828  0.00  0.00    +0.091 C 
BRANCH   7   8
ATOM      8  C   UNL     1      -5.822  -8.444   9.356  0.00  0.00    +0.227 A 
ATOM      9  N   UNL     1      -5.982  -8.997   8.764  0.00  0.00    -0.111 NA
ATOM     10  N   UNL     1      -6.716  -8.812   8.435  0.00  0.00    -0.107 NA
ATOM     11  C   UNL     1      -7.010  -8.146   8.824  0.00  0.00    +0.250 A 
ATOM     12  O   UNL     1      -6.457  -7.919   9.393  0.00  0.00    -0.420 OA
BRANCH  11  13
ATOM     13  C   UNL     1      -7.729  -7.773   8.670  0.00  0.00    +0.055 A 
ATOM     14  C   UNL     1      -7.739  -7.011   8.355  0.00  0.00    +0.006 A 
ATOM     15  C   UNL     1      -8.458  -6.636   8.201  0.00  0.00    +0.015 A 
ATOM     16  C   UNL     1      -9.168  -7.025   8.364  0.00  0.00    +0.048 A 
ATOM     17  C   UNL     1      -9.159  -7.787   8.679  0.00  0.00    +0.015 A 
ATOM     18  C   UNL     1      -8.438  -8.161   8.832  0.00  0.00    +0.006 A 
BRANCH  16  19
ATOM     19  N   UNL     1      -9.887  -6.651   8.210  0.00  0.00    -0.304 N 
ATOM     20  C   UNL     1      -9.918  -5.831   8.137  0.00  0.00    +0.112 C 
ATOM     21  C   UNL     1     -10.575  -7.099   8.130  0.00  0.00    +0.112 C 
ENDBRANCH  16  19
ENDBRANCH  11  13
ENDBRANCH   7   8
ENDBRANCH   6   7
BRANCH  25  26
ATOM     26  C   UNL     1      -4.805 -10.553  12.323  0.00  0.00    +0.076 C 
BRANCH  26  27
ATOM     27  N   UNL     1      -4.126 -10.534  12.793  0.00  0.00    -0.269 NA
ATOM     28  C   UNL     1      -3.397 -10.752  12.473  0.00  0.00    +0.094 C 
ATOM     29  C   UNL     1      -2.719 -10.732  12.942  0.00  0.00    +0.111 C 
ATOM     30  N   UNL     1      -2.769 -10.495  13.731  0.00  0.00    -0.277 N 
ATOM     31  C   UNL     1      -3.498 -10.277  14.050  0.00  0.00    +0.111 C 
ATOM     32  C   UNL     1      -4.176 -10.297  13.581  0.00  0.00    +0.094 C 
ATOM     33  C   UNL     1      -2.092 -10.475  14.200  0.00  0.00    +0.226 C 
ATOM     34  C   UNL     1      -1.362 -10.693  13.880  0.00  0.00    +0.095 C 
ATOM     35  O   UNL     1      -2.141 -10.238  14.988  0.00  0.00    -0.275 OA
ENDBRANCH  26  27
ENDBRANCH  25  26
TORSDOF 7
ENDMDL
MODEL 9
REMARK VINA RESULT:      -4.4     14.650     16.850
REMARK  Name = 
REMARK  7 active torsions:
REMARK  status: ('A' for Active; 'I' for Inactive)
REMARK    1  A    between atoms: C_2  and  C_4
REMARK    2  A    between atoms: C_6  and  C_7
REMARK    3  A    between atoms: C_7  and  C_8
REMARK    4  A    between atoms: C_11  and  C_13
REMARK    5  A    between atoms: C_16  and  N_19
REMARK    6  A    between atoms: C_25  and  C_26
REMARK    7  A    between atoms: C_26  and  N_27
REMARK                            x       y       z     vdW  Elec       q    Type
REMARK                         _______ _______ _______ _____ _____    ______ ____
ROOT
ATOM      4  C   UNL     1      -5.769 -10.237  13.819  0.00  0.00    +0.006 C 
ATOM      5  C   UNL     1      -5.900 -10.117  14.624  0.00  0.00    +0.005 C 
ATOM      6  C   UNL     1      -5.278 -10.200  15.161  0.00  0.00    +0.027 C 
ATOM     22  C   UNL     1      -4.525 -10.402  14.891  0.00  0.00    -0.048 C 
ATOM     23  C   UNL     1      -3.904 -10.485  15.427  0.00  0.00    +0.026 C 
ATOM     24  C   UNL     1      -4.394 -10.522  14.085  0.00  0.00    -0.034 C 
ATOM     25  C   UNL     1      -5.016 -10.439  13.549  0.00  0.00    +0.037 C 
ENDROOT
BRANCH   4   2
ATOM      1  C   UNL     1      -6.492  -9.443  12.877  0.00  0.00    +0.000 C 
ATOM      2  C   UNL     1      -6.391 -10.154  13.283  0.00  0.00    +0.000 C 
ATOM      3  C   UNL     1      -6.910 -10.781  13.154  0.00  0.00    +0.000 C 
ENDBRANCH   4   2
BRANCH   6   7
ATOM      7  C   UNL     1      -5.410 -10.080  15.966  0.00  0.00    +0.091 C 
BRANCH   7   8
ATOM      8  C   UNL     1      -6.174 -10.131  16.271  0.00  0.00    +0.227 A 
ATOM      9  N   UNL     1      -6.496 -10.781  16.666  0.00  0.00    -0.111 NA
ATOM     10  N   UNL     1      -7.272 -10.593  16.874  0.00  0.00    -0.107 NA
ATOM     11  C   UNL     1      -7.429  -9.828  16.608  0.00  0.00    +0.250 A 
ATOM     12  O   UNL     1      -6.751  -9.543  16.235  0.00  0.00    -0.420 OA
BRANCH  11  13
ATOM     13  C   UNL     1      -8.140  -9.420  16.699  0.00  0.00    +0.055 A 
ATOM     14  C   UNL     1      -8.141  -8.659  17.017  0.00  0.00    +0.006 A 
ATOM     15  C   UNL     1      -8.852  -8.249  17.108  0.00  0.00    +0.015 A 
ATOM     16  C   UNL     1      -9.562  -8.603  16.880  0.00  0.00    +0.048 A 
ATOM     17  C   UNL     1      -9.562  -9.364  16.563  0.00  0.00    +0.015 A 
ATOM     18  C   UNL     1      -8.850  -9.772  16.472  0.00  0.00    +0.006 A 
BRANCH  16  19
ATOM     19  N   UNL     1     -10.274  -8.194  16.971  0.00  0.00    -0.304 N 
ATOM     20  C   UNL     1     -10.651  -8.180  17.704  0.00  0.00    +0.112 C 
ATOM     21  C   UNL     1     -10.607  -7.799  16.329  0.00  0.00    +0.112 C 
ENDBRANCH  16  19
ENDBRANCH  11  13
ENDBRANCH   7   8
ENDBRANCH   6   7
BRANCH  25  26
ATOM     26  C   UNL     1      -4.885 -10.559  12.744  0.00  0.00    +0.076 C 
BRANCH  26  27
ATOM     27  N   UNL     1      -4.158 -10.353  12.409  0.00  0.00    -0.269 NA
ATOM     28  C   UNL     1      -3.480 -10.781  12.601  0.00  0.00    +0.094 C 
ATOM     29  C   UNL     1      -2.754 -10.575  12.266  0.00  0.00    +0.111 C 
ATOM     30  N   UNL     1      -2.708  -9.941  11.739  0.00  0.00    -0.277 N 
ATOM     31  C   UNL     1      -3.387  -9.514  11.548  0.00  0.00    +0.111 C 
ATOM     32  C   UNL     1      -4.112  -9.720  11.883  0.00  0.00    +0.094 C 
ATOM     33  C   UNL     1      -1.983  -9.735  11.405  0.00  0.00    +0.226 C 
ATOM     34  C   UNL     1      -1.304 -10.163  11.597  0.00  0.00    +0.095 C 
ATOM     35  O   UNL     1      -1.936  -9.102  10.879  0.00  0.00    -0.275 OA
ENDBRANCH  26  27
ENDBRANCH  25  26
TORSDOF 7
ENDMDL
MODEL 10
REMARK VINA RESULT:      -4.3     15.595     17.747
REMARK  Name = 
REMARK  7 active torsions:
REMARK  status: ('A' for Active; 'I' for Inactive)
REMARK    1  A    between atoms: C_2  and  C_4
REMARK    2  A    between atoms: C_6  and  C_7
REMARK    3  A    between atoms: C_7  and  C_8
REMARK    4  A    between atoms: C_11  and  C_13
REMARK    5  A    between atoms: C_16  and  N_19
REMARK    6  A    between atoms: C_25  and  C_26
REMARK    7  A    between atoms: C_26  and  N_27
REMARK                            x       y       z     vdW  Elec       q    Type
REMARK                         _______ _______ _______ _____ _____    ______ ____
ROOT
ATOM      4  C   UNL     1      -6.552 -10.047  13.604  0.00  0.00    +0.006 C 
ATOM      5  C   UNL     1      -7.328 -10.183  13.851  0.00  0.00    +0.005 C 
ATOM      6  C   UNL     1      -7.947 -10.144  13.306  0.00  0.00    +0.027 C 
ATOM     22  C   UNL     1      -7.790  -9.970  12.515  0.00  0.00    -0.048 C 
ATOM     23  C   UNL     1      -8.408  -9.931  11.971  0.00  0.00    +0.026 C 
ATOM     24  C   UNL     1      -7.014  -9.835  12.269  0.00  0.00    -0.034 C 
ATOM     25  C   UNL     1      -6.396  -9.873  12.813  0.00  0.00    +0.037 C 
ENDROOT
BRANCH   4   2
ATOM      1  C   UNL     1      -5.494 -10.781  14.224  0.00  0.00    +0.000 C 
ATOM      2  C   UNL     1      -5.934 -10.086  14.148  0.00  0.00    +0.000 C 
ATOM      3  C   UNL     1      -5.756  -9.433  14.617  0.00  0.00    +0.000 C 
ENDBRANCH   4   2
BRANCH   6   7
ATOM      7  C   UNL     1      -8.722 -10.279  13.553  0.00  0.00    +0.091 C 
BRANCH   7   8
ATOM      8  C   UNL     1      -9.002  -9.929  14.245  0.00  0.00    +0.227 A 
ATOM      9  N   UNL     1      -9.261  -9.149  14.323  0.00  0.00    -0.111 NA
ATOM     10  N   UNL     1      -9.491  -9.035  15.107  0.00  0.00    -0.107 NA
ATOM     11  C   UNL     1      -9.374  -9.744  15.513  0.00  0.00    +0.250 A 
ATOM     12  O   UNL     1      -9.072 -10.296  14.980  0.00  0.00    -0.420 OA
BRANCH  11  13
ATOM     13  C   UNL     1      -9.532  -9.877  16.312  0.00  0.00    +0.055 A 
ATOM     14  C   UNL     1      -9.644  -9.238  16.822  0.00  0.00    +0.006 A 
ATOM     15  C   UNL     1      -9.802  -9.370  17.621  0.00  0.00    +0.015 A 
ATOM     16  C   UNL     1      -9.847 -10.142  17.909  0.00  0.00    +0.048 A 
ATOM     17  C   UNL     1      -9.735 -10.781  17.400  0.00  0.00    +0.015 A 
ATOM     18  C   UNL     1      -9.577 -10.648  16.600  0.00  0.00    +0.006 A 
BRANCH  16  19
ATOM     19  N   UNL     1     -10.005 -10.275  18.709  0.00  0.00    -0.304 N 
ATOM     20  C   UNL     1      -9.453 -10.669  19.178  0.00  0.00    +0.112 C 
ATOM     21  C   UNL     1     -10.714 -10.014  19.037  0.00  0.00    +0.112 C 
ENDBRANCH  16  19
ENDBRANCH  11  13
ENDBRANCH   7   8
ENDBRANCH   6   7
BRANCH  25  26
ATOM     26  C   UNL     1      -5.621  -9.738  12.566  0.00  0.00    +0.076 C 
BRANCH  26  27
ATOM     27  N   UNL     1      -5.450  -9.666  11.761  0.00  0.00    -0.269 NA
ATOM     28  C   UNL     1      -5.330 -10.341  11.303  0.00  0.00    +0.094 C 
ATOM     29  C   UNL     1      -5.159 -10.269  10.499  0.00  0.00    +0.111 C 
ATOM     30  N   UNL     1      -5.109  -9.521  10.154  0.00  0.00    -0.277 N 
ATOM     31  C   UNL     1      -5.229  -8.846  10.613  0.00  0.00    +0.111 C 
ATOM     32  C   UNL     1      -5.400  -8.919  11.416  0.00  0.00    +0.094 C 
ATOM     33  C   UNL     1      -4.939  -9.449   9.351  0.00  0.00    +0.226 C 
ATOM     34  C   UNL     1      -4.818 -10.124   8.891  0.00  0.00    +0.095 C 
ATOM     35  O   UNL     1      -4.888  -8.701   9.005  0.00  0.00    -0.275 OA
ENDBRANCH  26  27
ENDBRANCH  25  26
TORSDOF 7
ENDMDL
