MODEL 1
REMARK VINA RESULT:     -10.9      0.000      0.000
REMARK  Name = 
REMARK  7 active torsions:
REMARK  status: ('A' for Active; 'I' for Inactive)
REMARK    1  A    between atoms: C_2  and  N_4
REMARK    2  A    between atoms: N_4  and  C_5
REMARK    3  A    between atoms: C_7  and  C_8
REMARK    4  A    between atoms: C_8  and  C_9
REMARK    5  A    between atoms: C_12  and  C_13
REMARK    6  A    between atoms: C_13  and  O_14
REMARK    7  A    between atoms: O_14  and  C_15
REMARK                            x       y       z     vdW  Elec       q    Type
REMARK                         _______ _______ _______ _____ _____    ______ ____
ROOT
ATOM      9  C   UNL     1      -3.912   2.143  24.406  0.00  0.00    +0.100 A 
ATOM     10  N   UNL     1      -3.600   2.015  23.653  0.00  0.00    -0.082 NA
ATOM     11  O   UNL     1      -3.614   1.203  23.506  0.00  0.00    -0.354 OA
ATOM     12  C   UNL     1      -3.935   0.830  24.168  0.00  0.00    +0.198 A 
ATOM     21  C   UNL     1      -4.119   1.411  24.724  0.00  0.00    +0.057 A 
ENDROOT
BRANCH   9   8
ATOM      8  C   UNL     1      -4.002   2.875  24.775  0.00  0.00    +0.049 C 
BRANCH   8   7
ATOM      5  C   UNL     1      -2.398   3.877  25.402  0.00  0.00    +0.073 C 
ATOM      6  C   UNL     1      -2.547   3.330  24.803  0.00  0.00    +0.018 C 
ATOM      7  C   UNL     1      -3.338   3.290  25.035  0.00  0.00    +0.009 C 
ATOM     22  C   UNL     1      -3.189   3.838  25.635  0.00  0.00    +0.015 C 
ATOM     23  C   UNL     1      -3.923   3.927  26.000  0.00  0.00    +0.001 C 
ATOM     24  C   UNL     1      -3.229   4.360  26.271  0.00  0.00    +0.001 C 
BRANCH   5   4
ATOM      4  N   UNL     1      -1.734   4.292  25.662  0.00  0.00    -0.221 NA
BRANCH   4   2
ATOM      1  C   UNL     1      -0.538   3.596  25.308  0.00  0.00    +0.019 C 
ATOM      2  C   UNL     1      -1.031   4.253  25.232  0.00  0.00    +0.073 C 
ATOM      3  C   UNL     1      -0.820   4.871  24.729  0.00  0.00    +0.019 C 
ENDBRANCH   4   2
ENDBRANCH   5   4
ENDBRANCH   8   7
ENDBRANCH   9   8
BRANCH  12  13
ATOM     13  C   UNL     1      -4.051   0.018  24.258  0.00  0.00    +0.272 C 
BRANCH  13  14
ATOM     14  O   UNL     1      -3.413  -0.500  24.191  0.00  0.00    -0.467 OA
BRANCH  14  15
ATOM     15  C   UNL     1      -3.526  -1.311  24.296  0.00  0.00    +0.139 A 
ATOM     16  C   UNL     1      -4.055  -1.719  23.814  0.00  0.00    +0.037 A 
ATOM     17  C   UNL     1      -4.168  -2.530  23.919  0.00  0.00    +0.003 A 
ATOM     18  C   UNL     1      -3.752  -2.931  24.507  0.00  0.00    +0.000 A 
ATOM     19  C   UNL     1      -3.222  -2.522  24.990  0.00  0.00    +0.003 A 
ATOM     20  C   UNL     1      -3.109  -1.711  24.884  0.00  0.00    +0.037 A 
ENDBRANCH  14  15
ENDBRANCH  13  14
ENDBRANCH  12  13
TORSDOF 7
ENDMDL
MODEL 2
REMARK VINA RESULT:     -10.6      1.472      5.141
REMARK  Name = 
REMARK  7 active torsions:
REMARK  status: ('A' for Active; 'I' for Inactive)
REMARK    1  A    between atoms: C_2  and  N_4
REMARK    2  A    between atoms: N_4  and  C_5
REMARK    3  A    between atoms: C_7  and  C_8
REMARK    4  A    between atoms: C_8  and  C_9
REMARK    5  A    between atoms: C_12  and  C_13
REMARK    6  A    between atoms: C_13  and  O_14
REMARK    7  A    between atoms: O_14  and  C_15
REMARK                            x       y       z     vdW  Elec       q    Type
REMARK                         _______ _______ _______ _____ _____    ______ ____
ROOT
ATOM      9  C   UNL     1      -4.082   0.968  24.571  0.00  0.00    +0.100 A 
ATOM     10  N   UNL     1      -4.518   1.281  25.198  0.00  0.00    -0.082 NA
ATOM     11  O   UNL     1      -4.238   2.042  25.350  0.00  0.00    -0.354 OA
ATOM     12  C   UNL     1      -3.629   2.200  24.816  0.00  0.00    +0.198 A 
ATOM     21  C   UNL     1      -3.532   1.537  24.335  0.00  0.00    +0.057 A 
ENDROOT
BRANCH   9   8
ATOM      8  C   UNL     1      -4.178   0.220  24.239  0.00  0.00    +0.049 C 
BRANCH   8   7
ATOM      5  C   UNL     1      -2.857  -1.219  24.628  0.00  0.00    +0.073 C 
ATOM      6  C   UNL     1      -2.863  -0.398  24.700  0.00  0.00    +0.018 C 
ATOM      7  C   UNL     1      -3.631  -0.376  24.400  0.00  0.00    +0.009 C 
ATOM     22  C   UNL     1      -3.626  -1.199  24.328  0.00  0.00    +0.015 C 
ATOM     23  C   UNL     1      -4.371  -1.370  24.020  0.00  0.00    +0.001 C 
ATOM     24  C   UNL     1      -3.800  -1.992  24.188  0.00  0.00    +0.001 C 
BRANCH   5   4
ATOM      4  N   UNL     1      -2.310  -1.816  24.789  0.00  0.00    -0.221 NA
BRANCH   4   2
ATOM      1  C   UNL     1      -0.949  -1.646  24.389  0.00  0.00    +0.019 C 
ATOM      2  C   UNL     1      -1.530  -1.620  24.974  0.00  0.00    +0.073 C 
ATOM      3  C   UNL     1      -1.331  -1.399  25.743  0.00  0.00    +0.019 C 
ENDBRANCH   4   2
ENDBRANCH   5   4
ENDBRANCH   8   7
ENDBRANCH   9   8
BRANCH  12  13
ATOM     13  C   UNL     1      -3.193   2.899  24.772  0.00  0.00    +0.272 C 
BRANCH  13  14
ATOM     14  O   UNL     1      -2.644   3.081  25.360  0.00  0.00    -0.467 OA
BRANCH  14  15
ATOM     15  C   UNL     1      -2.116   3.706  25.252  0.00  0.00    +0.139 A 
ATOM     16  C   UNL     1      -2.364   4.482  25.379  0.00  0.00    +0.037 A 
ATOM     17  C   UNL     1      -1.836   5.108  25.272  0.00  0.00    +0.003 A 
ATOM     18  C   UNL     1      -1.060   4.956  25.038  0.00  0.00    +0.000 A 
ATOM     19  C   UNL     1      -0.812   4.180  24.911  0.00  0.00    +0.003 A 
ATOM     20  C   UNL     1      -1.340   3.555  25.018  0.00  0.00    +0.037 A 
ENDBRANCH  14  15
ENDBRANCH  13  14
ENDBRANCH  12  13
TORSDOF 7
ENDMDL
MODEL 3
REMARK VINA RESULT:     -10.5      1.467      2.375
REMARK  Name = 
REMARK  7 active torsions:
REMARK  status: ('A' for Active; 'I' for Inactive)
REMARK    1  A    between atoms: C_2  and  N_4
REMARK    2  A    between atoms: N_4  and  C_5
REMARK    3  A    between atoms: C_7  and  C_8
REMARK    4  A    between atoms: C_8  and  C_9
REMARK    5  A    between atoms: C_12  and  C_13
REMARK    6  A    between atoms: C_13  and  O_14
REMARK    7  A    between atoms: O_14  and  C_15
REMARK                            x       y       z     vdW  Elec       q    Type
REMARK                         _______ _______ _______ _____ _____    ______ ____
ROOT
ATOM      9  C   UNL     1      -1.064   1.242  25.210  0.00  0.00    +0.100 A 
ATOM     10  N   UNL     1      -0.880   0.825  25.898  0.00  0.00    -0.082 NA
ATOM     11  O   UNL     1      -1.198   0.067  25.830  0.00  0.00    -0.354 OA
ATOM     12  C   UNL     1      -1.578   0.015  25.100  0.00  0.00    +0.198 A 
ATOM     21  C   UNL     1      -1.496   0.741  24.716  0.00  0.00    +0.057 A 
ENDROOT
BRANCH   9   8
ATOM      8  C   UNL     1      -0.853   2.021  25.044  0.00  0.00    +0.049 C 
BRANCH   8   7
ATOM      5  C   UNL     1      -2.220   3.466  25.151  0.00  0.00    +0.073 C 
ATOM      6  C   UNL     1      -2.243   2.643  25.114  0.00  0.00    +0.018 C 
ATOM      7  C   UNL     1      -1.419   2.620  25.088  0.00  0.00    +0.009 C 
ATOM     22  C   UNL     1      -1.395   3.444  25.126  0.00  0.00    +0.015 C 
ATOM     23  C   UNL     1      -0.589   3.615  25.110  0.00  0.00    +0.001 C 
ATOM     24  C   UNL     1      -1.180   4.240  25.156  0.00  0.00    +0.001 C 
BRANCH   5   4
ATOM      4  N   UNL     1      -2.786   4.065  25.196  0.00  0.00    -0.221 NA
BRANCH   4   2
ATOM      1  C   UNL     1      -3.963   3.822  24.424  0.00  0.00    +0.019 C 
ATOM      2  C   UNL     1      -3.588   3.877  25.156  0.00  0.00    +0.073 C 
ATOM      3  C   UNL     1      -4.015   3.743  25.849  0.00  0.00    +0.019 C 
ENDBRANCH   4   2
ENDBRANCH   5   4
ENDBRANCH   8   7
ENDBRANCH   9   8
BRANCH  12  13
ATOM     13  C   UNL     1      -1.973  -0.647  24.805  0.00  0.00    +0.272 C 
BRANCH  13  14
ATOM     14  O   UNL     1      -2.685  -0.888  25.145  0.00  0.00    -0.467 OA
BRANCH  14  15
ATOM     15  C   UNL     1      -3.155  -1.450  24.763  0.00  0.00    +0.139 A 
ATOM     16  C   UNL     1      -3.010  -2.253  24.875  0.00  0.00    +0.037 A 
ATOM     17  C   UNL     1      -3.480  -2.815  24.494  0.00  0.00    +0.003 A 
ATOM     18  C   UNL     1      -4.094  -2.571  24.001  0.00  0.00    +0.000 A 
ATOM     19  C   UNL     1      -4.239  -1.767  23.889  0.00  0.00    +0.003 A 
ATOM     20  C   UNL     1      -3.769  -1.206  24.270  0.00  0.00    +0.037 A 
ENDBRANCH  14  15
ENDBRANCH  13  14
ENDBRANCH  12  13
TORSDOF 7
ENDMDL
