MODEL 1
REMARK VINA RESULT:     -12.8      0.000      0.000
REMARK  Name = 
REMARK  7 active torsions:
REMARK  status: ('A' for Active; 'I' for Inactive)
REMARK    1  A    between atoms: O_2  and  C_3
REMARK    2  A    between atoms: C_3  and  C_4
REMARK    3  A    between atoms: C_4  and  N_5
REMARK    4  A    between atoms: C_6  and  C_8
REMARK    5  A    between atoms: C_8  and  C_9
REMARK    6  A    between atoms: C_14  and  C_16
REMARK    7  A    between atoms: C_27  and  C_29
REMARK                            x       y       z     vdW  Elec       q    Type
REMARK                         _______ _______ _______ _____ _____    ______ ____
ROOT
ATOM      9  C   UNL     1      -3.189   1.866  24.209  0.00  0.00    +0.050 C 
ATOM     10  C   UNL     1      -3.401   1.073  24.304  0.00  0.00    +0.063 A 
ATOM     11  C   UNL     1      -4.093   0.878  24.709  0.00  0.00    +0.023 A 
ATOM     12  C   UNL     1      -4.572   1.473  25.018  0.00  0.00    +0.034 C 
ATOM     13  C   UNL     1      -4.361   2.264  24.923  0.00  0.00    +0.010 C 
ATOM     14  C   UNL     1      -4.841   2.860  25.232  0.00  0.00    +0.059 C 
ATOM     15  C   UNL     1      -5.271   2.195  25.463  0.00  0.00    +0.005 C 
ATOM     18  C   UNL     1      -4.629   3.651  25.136  0.00  0.00    +0.154 C 
ATOM     19  O   UNL     1      -5.110   4.248  25.445  0.00  0.00    -0.223 OA
ATOM     20  C   UNL     1      -3.938   3.848  24.732  0.00  0.00    +0.033 C 
ATOM     21  C   UNL     1      -3.458   3.252  24.422  0.00  0.00    +0.003 C 
ATOM     22  C   UNL     1      -3.669   2.461  24.518  0.00  0.00    +0.006 C 
ATOM     23  C   UNL     1      -2.978   2.657  24.113  0.00  0.00    +0.000 C 
ATOM     24  S   UNL     1      -4.158   0.055  24.717  0.00  0.00    -0.054 S 
ATOM     25  C   UNL     1      -3.508  -0.257  24.317  0.00  0.00    +0.185 A 
ATOM     26  N   UNL     1      -3.353  -1.058  24.193  0.00  0.00    -0.154 NA
ATOM     27  C   UNL     1      -3.874  -1.628  24.482  0.00  0.00    +0.246 C 
ATOM     28  O   UNL     1      -4.551  -1.398  24.895  0.00  0.00    -0.273 OA
ATOM     33  N   UNL     1      -3.040   0.373  24.062  0.00  0.00    -0.227 NA
ENDROOT
BRANCH  27  29
ATOM     29  C   UNL     1      -3.720  -2.429  24.359  0.00  0.00    +0.071 C 
ATOM     30  C   UNL     1      -3.566  -3.230  24.235  0.00  0.00    +0.009 C 
ATOM     31  C   UNL     1      -3.211  -2.432  25.008  0.00  0.00    +0.009 C 
ATOM     32  C   UNL     1      -4.229  -2.427  23.709  0.00  0.00    +0.009 C 
ENDBRANCH  27  29
BRANCH  14  16
ATOM     16  C   UNL     1      -5.470   3.224  25.621  0.00  0.00    +0.184 C 
ATOM     17  O   UNL     1      -5.888   2.814  26.203  0.00  0.00    -0.220 OA
ENDBRANCH  14  16
BRANCH   9   8
ATOM      8  C   UNL     1      -2.498   2.061  23.804  0.00  0.00    +0.093 C 
BRANCH   8   6
ATOM      5  N   UNL     1      -1.186   1.522  23.632  0.00  0.00    -0.203 NA
ATOM      6  C   UNL     1      -1.763   1.853  24.119  0.00  0.00    +0.242 C 
ATOM      7  O   UNL     1      -1.608   1.976  24.918  0.00  0.00    -0.273 OA
BRANCH   5   4
ATOM      4  C   UNL     1      -0.451   1.313  23.946  0.00  0.00    +0.147 C 
BRANCH   4   3
ATOM      3  C   UNL     1       0.142   1.027  23.450  0.00  0.00    +0.166 C 
BRANCH   3   2
ATOM      1  C   UNL     1       1.064  -0.008  23.100  0.00  0.00    +0.174 C 
ATOM      2  O   UNL     1       0.420   0.255  23.543  0.00  0.00    -0.349 OA
ENDBRANCH   3   2
ENDBRANCH   4   3
ENDBRANCH   5   4
ENDBRANCH   8   6
ENDBRANCH   9   8
TORSDOF 7
ENDMDL
MODEL 2
REMARK VINA RESULT:     -12.7      1.551      5.070
REMARK  Name = 
REMARK  7 active torsions:
REMARK  status: ('A' for Active; 'I' for Inactive)
REMARK    1  A    between atoms: O_2  and  C_3
REMARK    2  A    between atoms: C_3  and  C_4
REMARK    3  A    between atoms: C_4  and  N_5
REMARK    4  A    between atoms: C_6  and  C_8
REMARK    5  A    between atoms: C_8  and  C_9
REMARK    6  A    between atoms: C_14  and  C_16
REMARK    7  A    between atoms: C_27  and  C_29
REMARK                            x       y       z     vdW  Elec       q    Type
REMARK                         _______ _______ _______ _____ _____    ______ ____
ROOT
ATOM      9  C   UNL     1      -3.577  -0.008  24.437  0.00  0.00    +0.050 C 
ATOM     10  C   UNL     1      -2.880   0.378  24.653  0.00  0.00    +0.063 A 
ATOM     11  C   UNL     1      -2.198  -0.060  24.808  0.00  0.00    +0.023 A 
ATOM     12  C   UNL     1      -2.212  -0.881  24.747  0.00  0.00    +0.034 C 
ATOM     13  C   UNL     1      -2.909  -1.268  24.532  0.00  0.00    +0.010 C 
ATOM     14  C   UNL     1      -2.923  -2.090  24.471  0.00  0.00    +0.059 C 
ATOM     15  C   UNL     1      -2.137  -1.977  24.692  0.00  0.00    +0.005 C 
ATOM     18  C   UNL     1      -3.620  -2.475  24.256  0.00  0.00    +0.154 C 
ATOM     19  O   UNL     1      -3.634  -3.299  24.195  0.00  0.00    -0.223 OA
ATOM     20  C   UNL     1      -4.302  -2.039  24.101  0.00  0.00    +0.033 C 
ATOM     21  C   UNL     1      -4.288  -1.216  24.161  0.00  0.00    +0.003 C 
ATOM     22  C   UNL     1      -3.592  -0.830  24.377  0.00  0.00    +0.006 C 
ATOM     23  C   UNL     1      -4.274  -0.394  24.222  0.00  0.00    +0.000 C 
ATOM     24  S   UNL     1      -1.597   0.470  25.007  0.00  0.00    -0.054 S 
ATOM     25  C   UNL     1      -1.907   1.233  24.975  0.00  0.00    +0.185 A 
ATOM     26  N   UNL     1      -1.497   1.931  25.135  0.00  0.00    -0.154 NA
ATOM     27  C   UNL     1      -0.701   1.901  25.349  0.00  0.00    +0.246 C 
ATOM     28  O   UNL     1      -0.315   1.174  25.403  0.00  0.00    -0.273 OA
ATOM     33  N   UNL     1      -2.701   1.176  24.756  0.00  0.00    -0.227 NA
ENDROOT
BRANCH  27  29
ATOM     29  C   UNL     1      -0.290   2.599  25.508  0.00  0.00    +0.071 C 
ATOM     30  C   UNL     1       0.121   3.296  25.666  0.00  0.00    +0.009 C 
ATOM     31  C   UNL     1      -0.394   2.476  26.317  0.00  0.00    +0.009 C 
ATOM     32  C   UNL     1      -0.186   2.722  24.698  0.00  0.00    +0.009 C 
ENDBRANCH  27  29
BRANCH  14  16
ATOM     16  C   UNL     1      -2.664  -2.873  24.487  0.00  0.00    +0.184 C 
ATOM     17  O   UNL     1      -1.859  -3.040  24.558  0.00  0.00    -0.220 OA
ENDBRANCH  14  16
BRANCH   9   8
ATOM      8  C   UNL     1      -4.259   0.429  24.282  0.00  0.00    +0.093 C 
BRANCH   8   6
ATOM      5  N   UNL     1      -4.987   1.555  24.776  0.00  0.00    -0.203 NA
ATOM      6  C   UNL     1      -4.653   0.811  24.900  0.00  0.00    +0.242 C 
ATOM      7  O   UNL     1      -4.711   0.450  25.638  0.00  0.00    -0.273 OA
BRANCH   5   4
ATOM      4  C   UNL     1      -5.381   1.937  25.394  0.00  0.00    +0.147 C 
BRANCH   4   3
ATOM      3  C   UNL     1      -5.719   2.679  25.270  0.00  0.00    +0.166 C 
BRANCH   3   2
ATOM      1  C   UNL     1      -5.597   4.048  25.662  0.00  0.00    +0.174 C 
ATOM      2  O   UNL     1      -5.683   3.253  25.863  0.00  0.00    -0.349 OA
ENDBRANCH   3   2
ENDBRANCH   4   3
ENDBRANCH   5   4
ENDBRANCH   8   6
ENDBRANCH   9   8
TORSDOF 7
ENDMDL
MODEL 3
REMARK VINA RESULT:     -12.2      1.417      4.309
REMARK  Name = 
REMARK  7 active torsions:
REMARK  status: ('A' for Active; 'I' for Inactive)
REMARK    1  A    between atoms: O_2  and  C_3
REMARK    2  A    between atoms: C_3  and  C_4
REMARK    3  A    between atoms: C_4  and  N_5
REMARK    4  A    between atoms: C_6  and  C_8
REMARK    5  A    between atoms: C_8  and  C_9
REMARK    6  A    between atoms: C_14  and  C_16
REMARK    7  A    between atoms: C_27  and  C_29
REMARK                            x       y       z     vdW  Elec       q    Type
REMARK                         _______ _______ _______ _____ _____    ______ ____
ROOT
ATOM      9  C   UNL     1      -2.559  -0.360  25.148  0.00  0.00    +0.050 C 
ATOM     10  C   UNL     1      -3.142   0.223  25.105  0.00  0.00    +0.063 A 
ATOM     11  C   UNL     1      -3.881   0.044  24.785  0.00  0.00    +0.023 A 
ATOM     12  C   UNL     1      -4.037  -0.717  24.508  0.00  0.00    +0.034 C 
ATOM     13  C   UNL     1      -3.454  -1.299  24.550  0.00  0.00    +0.010 C 
ATOM     14  C   UNL     1      -3.611  -2.060  24.273  0.00  0.00    +0.059 C 
ATOM     15  C   UNL     1      -4.335  -1.699  24.115  0.00  0.00    +0.005 C 
ATOM     18  C   UNL     1      -3.027  -2.642  24.316  0.00  0.00    +0.154 C 
ATOM     19  O   UNL     1      -3.184  -3.404  24.039  0.00  0.00    -0.223 OA
ATOM     20  C   UNL     1      -2.289  -2.464  24.636  0.00  0.00    +0.033 C 
ATOM     21  C   UNL     1      -2.133  -1.703  24.914  0.00  0.00    +0.003 C 
ATOM     22  C   UNL     1      -2.715  -1.120  24.871  0.00  0.00    +0.006 C 
ATOM     23  C   UNL     1      -1.977  -0.942  25.191  0.00  0.00    +0.000 C 
ATOM     24  S   UNL     1      -4.343   0.727  24.815  0.00  0.00    -0.054 S 
ATOM     25  C   UNL     1      -3.891   1.327  25.153  0.00  0.00    +0.185 A 
ATOM     26  N   UNL     1      -4.137   2.103  25.289  0.00  0.00    -0.154 NA
ATOM     27  C   UNL     1      -4.900   2.336  25.079  0.00  0.00    +0.246 C 
ATOM     28  O   UNL     1      -5.417   1.793  24.734  0.00  0.00    -0.273 OA
ATOM     33  N   UNL     1      -3.148   1.016  25.333  0.00  0.00    -0.227 NA
ENDROOT
BRANCH  27  29
ATOM     29  C   UNL     1      -5.147   3.111  25.214  0.00  0.00    +0.071 C 
ATOM     30  C   UNL     1      -5.395   3.886  25.351  0.00  0.00    +0.009 C 
ATOM     31  C   UNL     1      -4.603   3.382  24.657  0.00  0.00    +0.009 C 
ATOM     32  C   UNL     1      -5.692   2.840  25.773  0.00  0.00    +0.009 C 
ENDBRANCH  27  29
BRANCH  14  16
ATOM     16  C   UNL     1      -4.018  -2.696  23.941  0.00  0.00    +0.184 C 
ATOM     17  O   UNL     1      -4.730  -2.567  23.544  0.00  0.00    -0.220 OA
ENDBRANCH  14  16
BRANCH   9   8
ATOM      8  C   UNL     1      -1.820  -0.181  25.468  0.00  0.00    +0.093 C 
BRANCH   8   6
ATOM      5  N   UNL     1      -0.894   0.908  25.492  0.00  0.00    -0.203 NA
ATOM      6  C   UNL     1      -1.313   0.335  25.071  0.00  0.00    +0.242 C 
ATOM      7  O   UNL     1      -1.225   0.279  24.253  0.00  0.00    -0.273 OA
BRANCH   5   4
ATOM      4  C   UNL     1      -0.387   1.424  25.095  0.00  0.00    +0.147 C 
BRANCH   4   3
ATOM      3  C   UNL     1      -0.105   2.099  25.476  0.00  0.00    +0.166 C 
BRANCH   3   2
ATOM      1  C   UNL     1      -0.307   3.505  25.321  0.00  0.00    +0.174 C 
ATOM      2  O   UNL     1       0.012   2.795  25.048  0.00  0.00    -0.349 OA
ENDBRANCH   3   2
ENDBRANCH   4   3
ENDBRANCH   5   4
ENDBRANCH   8   6
ENDBRANCH   9   8
TORSDOF 7
ENDMDL
MODEL 4
REMARK VINA RESULT:     -11.6      1.926      4.455
REMARK  Name = 
REMARK  7 active torsions:
REMARK  status: ('A' for Active; 'I' for Inactive)
REMARK    1  A    between atoms: O_2  and  C_3
REMARK    2  A    between atoms: C_3  and  C_4
REMARK    3  A    between atoms: C_4  and  N_5
REMARK    4  A    between atoms: C_6  and  C_8
REMARK    5  A    between atoms: C_8  and  C_9
REMARK    6  A    between atoms: C_14  and  C_16
REMARK    7  A    between atoms: C_27  and  C_29
REMARK                            x       y       z     vdW  Elec       q    Type
REMARK                         _______ _______ _______ _____ _____    ______ ____
ROOT
ATOM      9  C   UNL     1      -1.216  -0.333  24.625  0.00  0.00    +0.050 C 
ATOM     10  C   UNL     1      -1.448   0.449  24.752  0.00  0.00    +0.063 A 
ATOM     11  C   UNL     1      -2.246   0.629  24.857  0.00  0.00    +0.023 A 
ATOM     12  C   UNL     1      -2.811   0.030  24.836  0.00  0.00    +0.034 C 
ATOM     13  C   UNL     1      -2.579  -0.752  24.709  0.00  0.00    +0.010 C 
ATOM     14  C   UNL     1      -3.145  -1.352  24.688  0.00  0.00    +0.059 C 
ATOM     15  C   UNL     1      -3.632  -0.701  24.824  0.00  0.00    +0.005 C 
ATOM     18  C   UNL     1      -2.912  -2.133  24.561  0.00  0.00    +0.154 C 
ATOM     19  O   UNL     1      -3.478  -2.734  24.540  0.00  0.00    -0.223 OA
ATOM     20  C   UNL     1      -2.115  -2.315  24.456  0.00  0.00    +0.033 C 
ATOM     21  C   UNL     1      -1.549  -1.714  24.477  0.00  0.00    +0.003 C 
ATOM     22  C   UNL     1      -1.781  -0.933  24.604  0.00  0.00    +0.006 C 
ATOM     23  C   UNL     1      -0.983  -1.114  24.499  0.00  0.00    +0.000 C 
ATOM     24  S   UNL     1      -2.309   1.444  24.971  0.00  0.00    -0.054 S 
ATOM     25  C   UNL     1      -1.551   1.767  24.936  0.00  0.00    +0.185 A 
ATOM     26  N   UNL     1      -1.358   2.564  25.022  0.00  0.00    -0.154 NA
ATOM     27  C   UNL     1      -1.953   3.120  25.156  0.00  0.00    +0.246 C 
ATOM     28  O   UNL     1      -2.741   2.878  25.204  0.00  0.00    -0.273 OA
ATOM     33  N   UNL     1      -1.018   1.151  24.801  0.00  0.00    -0.227 NA
ENDROOT
BRANCH  27  29
ATOM     29  C   UNL     1      -1.762   3.918  25.241  0.00  0.00    +0.071 C 
ATOM     30  C   UNL     1      -1.571   4.716  25.328  0.00  0.00    +0.009 C 
ATOM     31  C   UNL     1      -1.119   3.819  24.735  0.00  0.00    +0.009 C 
ATOM     32  C   UNL     1      -2.406   4.018  25.748  0.00  0.00    +0.009 C 
ENDBRANCH  27  29
BRANCH  14  16
ATOM     16  C   UNL     1      -3.880  -1.726  24.714  0.00  0.00    +0.184 C 
ATOM     17  O   UNL     1      -4.551  -1.335  24.435  0.00  0.00    -0.220 OA
ENDBRANCH  14  16
BRANCH   9   8
ATOM      8  C   UNL     1      -0.418  -0.514  24.520  0.00  0.00    +0.093 C 
BRANCH   8   6
ATOM      5  N   UNL     1       0.787  -0.248  23.799  0.00  0.00    -0.203 NA
ATOM      6  C   UNL     1      -0.036  -0.301  23.820  0.00  0.00    +0.242 C 
ATOM      7  O   UNL     1      -0.477  -0.142  23.142  0.00  0.00    -0.273 OA
BRANCH   5   4
ATOM      4  C   UNL     1       1.168  -0.035  23.098  0.00  0.00    +0.147 C 
BRANCH   4   3
ATOM      3  C   UNL     1       1.985   0.079  23.093  0.00  0.00    +0.166 C 
BRANCH   3   2
ATOM      1  C   UNL     1       3.164   0.396  22.350  0.00  0.00    +0.174 C 
ATOM      2  O   UNL     1       2.393   0.104  22.375  0.00  0.00    -0.349 OA
ENDBRANCH   3   2
ENDBRANCH   4   3
ENDBRANCH   5   4
ENDBRANCH   8   6
ENDBRANCH   9   8
TORSDOF 7
ENDMDL
MODEL 5
REMARK VINA RESULT:     -11.2      0.963      3.375
REMARK  Name = 
REMARK  7 active torsions:
REMARK  status: ('A' for Active; 'I' for Inactive)
REMARK    1  A    between atoms: O_2  and  C_3
REMARK    2  A    between atoms: C_3  and  C_4
REMARK    3  A    between atoms: C_4  and  N_5
REMARK    4  A    between atoms: C_6  and  C_8
REMARK    5  A    between atoms: C_8  and  C_9
REMARK    6  A    between atoms: C_14  and  C_16
REMARK    7  A    between atoms: C_27  and  C_29
REMARK                            x       y       z     vdW  Elec       q    Type
REMARK                         _______ _______ _______ _____ _____    ______ ____
ROOT
ATOM      9  C   UNL     1      -4.049   1.041  24.610  0.00  0.00    +0.050 C 
ATOM     10  C   UNL     1      -3.245   1.208  24.529  0.00  0.00    +0.063 A 
ATOM     11  C   UNL     1      -2.958   1.955  24.728  0.00  0.00    +0.023 A 
ATOM     12  C   UNL     1      -3.473   2.534  25.007  0.00  0.00    +0.034 C 
ATOM     13  C   UNL     1      -4.277   2.368  25.088  0.00  0.00    +0.010 C 
ATOM     14  C   UNL     1      -4.793   2.947  25.368  0.00  0.00    +0.059 C 
ATOM     15  C   UNL     1      -4.083   3.367  25.387  0.00  0.00    +0.005 C 
ATOM     18  C   UNL     1      -5.597   2.779  25.449  0.00  0.00    +0.154 C 
ATOM     19  O   UNL     1      -6.113   3.360  25.729  0.00  0.00    -0.223 OA
ATOM     20  C   UNL     1      -5.884   2.033  25.250  0.00  0.00    +0.033 C 
ATOM     21  C   UNL     1      -5.368   1.453  24.971  0.00  0.00    +0.003 C 
ATOM     22  C   UNL     1      -4.565   1.620  24.889  0.00  0.00    +0.006 C 
ATOM     23  C   UNL     1      -4.852   0.873  24.691  0.00  0.00    +0.000 C 
ATOM     24  S   UNL     1      -2.144   1.959  24.591  0.00  0.00    -0.054 S 
ATOM     25  C   UNL     1      -1.929   1.215  24.308  0.00  0.00    +0.185 A 
ATOM     26  N   UNL     1      -1.167   0.977  24.099  0.00  0.00    -0.154 NA
ATOM     27  C   UNL     1      -0.537   1.505  24.167  0.00  0.00    +0.246 C 
ATOM     28  O   UNL     1      -0.668   2.271  24.444  0.00  0.00    -0.273 OA
ATOM     33  N   UNL     1      -2.610   0.750  24.269  0.00  0.00    -0.227 NA
ENDROOT
BRANCH  27  29
ATOM     29  C   UNL     1       0.226   1.267  23.959  0.00  0.00    +0.071 C 
ATOM     30  C   UNL     1       0.988   1.031  23.752  0.00  0.00    +0.009 C 
ATOM     31  C   UNL     1      -0.083   0.597  23.591  0.00  0.00    +0.009 C 
ATOM     32  C   UNL     1       0.535   1.938  24.328  0.00  0.00    +0.009 C 
ENDBRANCH  27  29
BRANCH  14  16
ATOM     16  C   UNL     1      -5.062   3.672  25.654  0.00  0.00    +0.184 C 
ATOM     17  O   UNL     1      -4.525   4.280  25.807  0.00  0.00    -0.220 OA
ENDBRANCH  14  16
BRANCH   9   8
ATOM      8  C   UNL     1      -4.337   0.293  24.411  0.00  0.00    +0.093 C 
BRANCH   8   6
ATOM      5  N   UNL     1      -3.923  -1.073  24.486  0.00  0.00    -0.203 NA
ATOM      6  C   UNL     1      -4.120  -0.364  24.861  0.00  0.00    +0.242 C 
ATOM      7  O   UNL     1      -4.101  -0.313  25.683  0.00  0.00    -0.273 OA
BRANCH   5   4
ATOM      4  C   UNL     1      -3.707  -1.730  24.936  0.00  0.00    +0.147 C 
BRANCH   4   3
ATOM      3  C   UNL     1      -3.423  -2.409  24.563  0.00  0.00    +0.166 C 
BRANCH   3   2
ATOM      1  C   UNL     1      -2.083  -2.862  24.360  0.00  0.00    +0.174 C 
ATOM      2  O   UNL     1      -2.743  -2.782  24.847  0.00  0.00    -0.349 OA
ENDBRANCH   3   2
ENDBRANCH   4   3
ENDBRANCH   5   4
ENDBRANCH   8   6
ENDBRANCH   9   8
TORSDOF 7
ENDMDL
