MODEL 1
REMARK VINA RESULT:     -10.3      0.000      0.000
REMARK  Name = 
REMARK  8 active torsions:
REMARK  status: ('A' for Active; 'I' for Inactive)
REMARK    1  A    between atoms: C_2  and  C_4
REMARK    2  A    between atoms: C_4  and  C_5
REMARK    3  A    between atoms: C_7  and  C_25
REMARK    4  A    between atoms: N_11  and  C_12
REMARK    5  A    between atoms: C_12  and  C_13
REMARK    6  A    between atoms: N_27  and  C_28
REMARK    7  A    between atoms: C_28  and  C_29
REMARK    8  A    between atoms: C_29  and  N_30
REMARK                            x       y       z     vdW  Elec       q    Type
REMARK                         _______ _______ _______ _____ _____    ______ ____
ROOT
ATOM      5  C   UNL     1      -3.028  -0.483  24.481  0.00  0.00    +0.095 C 
ATOM      6  N   UNL     1      -2.210  -0.557  24.395  0.00  0.00    -0.207 NA
ATOM      7  C   UNL     1      -1.632   0.028  24.457  0.00  0.00    +0.155 C 
ATOM      8  C   UNL     1      -1.727   0.831  24.619  0.00  0.00    +0.055 C 
ATOM      9  C   UNL     1      -2.426   1.249  24.759  0.00  0.00    -0.002 A 
ATOM     10  C   UNL     1      -2.448   2.058  24.916  0.00  0.00    +0.072 A 
ATOM     11  N   UNL     1      -3.237   2.274  25.025  0.00  0.00    -0.319 N 
ATOM     19  C   UNL     1      -3.702   1.599  24.937  0.00  0.00    +0.060 A 
ATOM     20  C   UNL     1      -3.200   0.965  24.772  0.00  0.00    +0.011 A 
ATOM     21  C   UNL     1      -3.468   0.194  24.648  0.00  0.00    -0.005 A 
ATOM     22  C   UNL     1      -4.329   0.091  24.703  0.00  0.00    -0.003 A 
ATOM     23  C   UNL     1      -4.830   0.725  24.868  0.00  0.00    +0.001 A 
ATOM     24  C   UNL     1      -4.516   1.479  24.985  0.00  0.00    +0.017 A 
ENDROOT
BRANCH   7  25
ATOM     25  C   UNL     1      -0.854  -0.223  24.341  0.00  0.00    +0.258 C 
ATOM     26  O   UNL     1      -0.480  -0.684  24.914  0.00  0.00    -0.272 OA
ATOM     27  N   UNL     1      -0.452  -0.013  23.653  0.00  0.00    -0.203 NA
BRANCH  27  28
ATOM     28  C   UNL     1       0.326  -0.265  23.537  0.00  0.00    +0.132 C 
BRANCH  28  29
ATOM     29  C   UNL     1       0.851   0.204  23.106  0.00  0.00    +0.096 C 
BRANCH  29  30
ATOM     30  N   UNL     1       1.469  -0.148  22.686  0.00  0.00    -0.269 NA
ATOM     31  C   UNL     1       2.236  -0.128  22.988  0.00  0.00    +0.090 C 
ATOM     32  C   UNL     1       1.318  -0.520  21.965  0.00  0.00    +0.090 C 
ENDBRANCH  29  30
ENDBRANCH  28  29
ENDBRANCH  27  28
ENDBRANCH   7  25
BRANCH   5   4
ATOM      4  C   UNL     1      -3.462  -1.178  24.386  0.00  0.00    +0.022 C 
BRANCH   4   2
ATOM      1  C   UNL     1      -3.281  -1.979  25.555  0.00  0.00    +0.000 C 
ATOM      2  C   UNL     1      -3.204  -1.877  24.741  0.00  0.00    +0.002 C 
ATOM      3  C   UNL     1      -2.870  -2.474  24.280  0.00  0.00    +0.000 C 
ENDBRANCH   4   2
ENDBRANCH   5   4
BRANCH  11  12
ATOM     12  C   UNL     1      -3.512   3.034  25.194  0.00  0.00    +0.170 C 
BRANCH  12  13
ATOM     13  C   UNL     1      -2.979   3.660  25.260  0.00  0.00    +0.144 A 
ATOM     14  N   UNL     1      -2.406   3.870  24.706  0.00  0.00    -0.227 NA
ATOM     15  C   UNL     1      -1.997   4.526  24.996  0.00  0.00    +0.119 A 
ATOM     16  C   UNL     1      -2.318   4.722  25.730  0.00  0.00    +0.098 A 
ATOM     17  N   UNL     1      -2.925   4.187  25.894  0.00  0.00    -0.310 N 
ATOM     18  C   UNL     1      -3.395   4.179  26.571  0.00  0.00    +0.132 C 
ENDBRANCH  12  13
ENDBRANCH  11  12
TORSDOF 8
ENDMDL
MODEL 2
REMARK VINA RESULT:     -10.0      2.136      3.660
REMARK  Name = 
REMARK  8 active torsions:
REMARK  status: ('A' for Active; 'I' for Inactive)
REMARK    1  A    between atoms: C_2  and  C_4
REMARK    2  A    between atoms: C_4  and  C_5
REMARK    3  A    between atoms: C_7  and  C_25
REMARK    4  A    between atoms: N_11  and  C_12
REMARK    5  A    between atoms: C_12  and  C_13
REMARK    6  A    between atoms: N_27  and  C_28
REMARK    7  A    between atoms: C_28  and  C_29
REMARK    8  A    between atoms: C_29  and  N_30
REMARK                            x       y       z     vdW  Elec       q    Type
REMARK                         _______ _______ _______ _____ _____    ______ ____
ROOT
ATOM      5  C   UNL     1      -4.754   2.129  24.895  0.00  0.00    +0.095 C 
ATOM      6  N   UNL     1      -4.634   1.352  24.646  0.00  0.00    -0.207 NA
ATOM      7  C   UNL     1      -3.921   0.959  24.511  0.00  0.00    +0.155 C 
ATOM      8  C   UNL     1      -3.152   1.246  24.591  0.00  0.00    +0.055 C 
ATOM      9  C   UNL     1      -2.906   1.998  24.827  0.00  0.00    -0.002 A 
ATOM     10  C   UNL     1      -2.113   2.219  24.886  0.00  0.00    +0.072 A 
ATOM     11  N   UNL     1      -2.086   3.005  25.136  0.00  0.00    -0.319 N 
ATOM     19  C   UNL     1      -2.861   3.270  25.231  0.00  0.00    +0.060 A 
ATOM     20  C   UNL     1      -3.368   2.647  25.040  0.00  0.00    +0.011 A 
ATOM     21  C   UNL     1      -4.191   2.706  25.071  0.00  0.00    -0.005 A 
ATOM     22  C   UNL     1      -4.496   3.480  25.321  0.00  0.00    -0.003 A 
ATOM     23  C   UNL     1      -3.988   4.101  25.512  0.00  0.00    +0.001 A 
ATOM     24  C   UNL     1      -3.171   3.996  25.467  0.00  0.00    +0.017 A 
ENDROOT
BRANCH   7  25
ATOM     25  C   UNL     1      -3.985   0.175  24.262  0.00  0.00    +0.258 C 
ATOM     26  O   UNL     1      -4.233   0.004  23.493  0.00  0.00    -0.272 OA
ATOM     27  N   UNL     1      -3.802  -0.439  24.782  0.00  0.00    -0.203 NA
BRANCH  27  28
ATOM     28  C   UNL     1      -3.867  -1.223  24.533  0.00  0.00    +0.132 C 
BRANCH  28  29
ATOM     29  C   UNL     1      -3.583  -1.832  25.012  0.00  0.00    +0.096 C 
BRANCH  29  30
ATOM     30  N   UNL     1      -3.299  -2.528  24.669  0.00  0.00    -0.269 NA
ATOM     31  C   UNL     1      -3.826  -3.066  24.334  0.00  0.00    +0.090 C 
ATOM     32  C   UNL     1      -2.489  -2.684  24.663  0.00  0.00    +0.090 C 
ENDBRANCH  29  30
ENDBRANCH  28  29
ENDBRANCH  27  28
ENDBRANCH   7  25
BRANCH   5   4
ATOM      4  C   UNL     1      -5.541   2.360  24.980  0.00  0.00    +0.022 C 
BRANCH   4   2
ATOM      1  C   UNL     1      -6.100   1.656  26.090  0.00  0.00    +0.000 C 
ATOM      2  C   UNL     1      -6.096   1.831  25.284  0.00  0.00    +0.002 C 
ATOM      3  C   UNL     1      -6.647   1.478  24.782  0.00  0.00    +0.000 C 
ENDBRANCH   4   2
ENDBRANCH   5   4
BRANCH  11  12
ATOM     12  C   UNL     1      -1.403   3.448  25.267  0.00  0.00    +0.170 C 
BRANCH  12  13
ATOM     13  C   UNL     1      -0.735   3.089  25.593  0.00  0.00    +0.144 A 
ATOM     14  N   UNL     1      -0.694   2.719  26.329  0.00  0.00    -0.227 NA
ATOM     15  C   UNL     1       0.076   2.439  26.431  0.00  0.00    +0.119 A 
ATOM     16  C   UNL     1       0.510   2.635  25.758  0.00  0.00    +0.098 A 
ATOM     17  N   UNL     1       0.009   3.037  25.239  0.00  0.00    -0.310 N 
ATOM     18  C   UNL     1       0.215   3.335  24.499  0.00  0.00    +0.132 C 
ENDBRANCH  12  13
ENDBRANCH  11  12
TORSDOF 8
ENDMDL
MODEL 3
REMARK VINA RESULT:      -9.9      1.371      4.439
REMARK  Name = 
REMARK  8 active torsions:
REMARK  status: ('A' for Active; 'I' for Inactive)
REMARK    1  A    between atoms: C_2  and  C_4
REMARK    2  A    between atoms: C_4  and  C_5
REMARK    3  A    between atoms: C_7  and  C_25
REMARK    4  A    between atoms: N_11  and  C_12
REMARK    5  A    between atoms: C_12  and  C_13
REMARK    6  A    between atoms: N_27  and  C_28
REMARK    7  A    between atoms: C_28  and  C_29
REMARK    8  A    between atoms: C_29  and  N_30
REMARK                            x       y       z     vdW  Elec       q    Type
REMARK                         _______ _______ _______ _____ _____    ______ ____
ROOT
ATOM      5  C   UNL     1      -4.516   1.201  24.720  0.00  0.00    +0.095 C 
ATOM      6  N   UNL     1      -4.172   1.945  24.629  0.00  0.00    -0.207 NA
ATOM      7  C   UNL     1      -3.376   2.134  24.523  0.00  0.00    +0.155 C 
ATOM      8  C   UNL     1      -2.727   1.626  24.482  0.00  0.00    +0.055 C 
ATOM      9  C   UNL     1      -2.715   0.802  24.536  0.00  0.00    -0.002 A 
ATOM     10  C   UNL     1      -2.024   0.354  24.486  0.00  0.00    +0.072 A 
ATOM     11  N   UNL     1      -2.231  -0.441  24.564  0.00  0.00    -0.319 N 
ATOM     19  C   UNL     1      -3.049  -0.485  24.663  0.00  0.00    +0.060 A 
ATOM     20  C   UNL     1      -3.348   0.285  24.646  0.00  0.00    +0.011 A 
ATOM     21  C   UNL     1      -4.150   0.462  24.728  0.00  0.00    -0.005 A 
ATOM     22  C   UNL     1      -4.670  -0.226  24.836  0.00  0.00    -0.003 A 
ATOM     23  C   UNL     1      -4.370  -0.994  24.853  0.00  0.00    +0.001 A 
ATOM     24  C   UNL     1      -3.559  -1.123  24.767  0.00  0.00    +0.017 A 
ENDROOT
BRANCH   7  25
ATOM     25  C   UNL     1      -3.205   2.938  24.448  0.00  0.00    +0.258 C 
ATOM     26  O   UNL     1      -3.527   3.372  23.825  0.00  0.00    -0.272 OA
ATOM     27  N   UNL     1      -2.712   3.307  24.997  0.00  0.00    -0.203 NA
BRANCH  27  28
ATOM     28  C   UNL     1      -2.542   4.112  24.922  0.00  0.00    +0.132 C 
BRANCH  28  29
ATOM     29  C   UNL     1      -2.018   4.472  25.448  0.00  0.00    +0.096 C 
BRANCH  29  30
ATOM     30  N   UNL     1      -1.501   5.057  25.179  0.00  0.00    -0.269 NA
ATOM     31  C   UNL     1      -1.761   5.836  25.109  0.00  0.00    +0.090 C 
ATOM     32  C   UNL     1      -0.724   4.861  24.980  0.00  0.00    +0.090 C 
ENDBRANCH  29  30
ENDBRANCH  28  29
ENDBRANCH  27  28
ENDBRANCH   7  25
BRANCH   5   4
ATOM      4  C   UNL     1      -5.335   1.195  24.817  0.00  0.00    +0.022 C 
BRANCH   4   2
ATOM      1  C   UNL     1      -5.688   1.898  26.010  0.00  0.00    +0.000 C 
ATOM      2  C   UNL     1      -5.712   1.828  25.189  0.00  0.00    +0.002 C 
ATOM      3  C   UNL     1      -6.111   2.392  24.738  0.00  0.00    +0.000 C 
ENDBRANCH   4   2
ENDBRANCH   5   4
BRANCH  11  12
ATOM     12  C   UNL     1      -1.711  -1.081  24.547  0.00  0.00    +0.170 C 
BRANCH  12  13
ATOM     13  C   UNL     1      -0.919  -0.963  24.346  0.00  0.00    +0.144 A 
ATOM     14  N   UNL     1      -0.640  -0.489  23.732  0.00  0.00    -0.227 NA
ATOM     15  C   UNL     1       0.185  -0.532  23.731  0.00  0.00    +0.119 A 
ATOM     16  C   UNL     1       0.415  -1.032  24.345  0.00  0.00    +0.098 A 
ATOM     17  N   UNL     1      -0.267  -1.299  24.726  0.00  0.00    -0.310 N 
ATOM     18  C   UNL     1      -0.293  -1.811  25.371  0.00  0.00    +0.132 C 
ENDBRANCH  12  13
ENDBRANCH  11  12
TORSDOF 8
ENDMDL
MODEL 4
REMARK VINA RESULT:      -9.5      1.159      3.841
REMARK  Name = 
REMARK  8 active torsions:
REMARK  status: ('A' for Active; 'I' for Inactive)
REMARK    1  A    between atoms: C_2  and  C_4
REMARK    2  A    between atoms: C_4  and  C_5
REMARK    3  A    between atoms: C_7  and  C_25
REMARK    4  A    between atoms: N_11  and  C_12
REMARK    5  A    between atoms: C_12  and  C_13
REMARK    6  A    between atoms: N_27  and  C_28
REMARK    7  A    between atoms: C_28  and  C_29
REMARK    8  A    between atoms: C_29  and  N_30
REMARK                            x       y       z     vdW  Elec       q    Type
REMARK                         _______ _______ _______ _____ _____    ______ ____
ROOT
ATOM      5  C   UNL     1      -2.221   2.515  24.726  0.00  0.00    +0.095 C 
ATOM      6  N   UNL     1      -1.431   2.277  24.692  0.00  0.00    -0.207 NA
ATOM      7  C   UNL     1      -1.126   1.512  24.643  0.00  0.00    +0.155 C 
ATOM      8  C   UNL     1      -1.535   0.796  24.617  0.00  0.00    +0.055 C 
ATOM      9  C   UNL     1      -2.350   0.667  24.632  0.00  0.00    -0.002 A 
ATOM     10  C   UNL     1      -2.693  -0.082  24.602  0.00  0.00    +0.072 A 
ATOM     11  N   UNL     1      -3.512   0.012  24.629  0.00  0.00    -0.319 N 
ATOM     19  C   UNL     1      -3.676   0.818  24.676  0.00  0.00    +0.060 A 
ATOM     20  C   UNL     1      -2.957   1.224  24.678  0.00  0.00    +0.011 A 
ATOM     21  C   UNL     1      -2.900   2.046  24.720  0.00  0.00    -0.005 A 
ATOM     22  C   UNL     1      -3.659   2.466  24.763  0.00  0.00    -0.003 A 
ATOM     23  C   UNL     1      -4.377   2.060  24.761  0.00  0.00    +0.001 A 
ATOM     24  C   UNL     1      -4.385   1.236  24.718  0.00  0.00    +0.017 A 
ENDROOT
BRANCH   7  25
ATOM     25  C   UNL     1      -0.303   1.455  24.618  0.00  0.00    +0.258 C 
ATOM     26  O   UNL     1       0.142   1.611  25.295  0.00  0.00    -0.272 OA
ATOM     27  N   UNL     1       0.074   1.242  23.916  0.00  0.00    -0.203 NA
BRANCH  27  28
ATOM     28  C   UNL     1       0.897   1.186  23.890  0.00  0.00    +0.132 C 
BRANCH  28  29
ATOM     29  C   UNL     1       1.286   1.164  23.163  0.00  0.00    +0.096 C 
BRANCH  29  30
ATOM     30  N   UNL     1       1.902   0.628  23.041  0.00  0.00    -0.269 NA
ATOM     31  C   UNL     1       2.683   0.863  23.165  0.00  0.00    +0.090 C 
ATOM     32  C   UNL     1       1.736  -0.142  22.794  0.00  0.00    +0.090 C 
ENDBRANCH  29  30
ENDBRANCH  28  29
ENDBRANCH  27  28
ENDBRANCH   7  25
BRANCH   5   4
ATOM      4  C   UNL     1      -2.348   3.328  24.773  0.00  0.00    +0.022 C 
BRANCH   4   2
ATOM      1  C   UNL     1      -1.913   3.790  26.053  0.00  0.00    +0.000 C 
ATOM      2  C   UNL     1      -1.848   3.798  25.231  0.00  0.00    +0.002 C 
ATOM      3  C   UNL     1      -1.284   4.277  24.866  0.00  0.00    +0.000 C 
ENDBRANCH   4   2
ENDBRANCH   5   4
BRANCH  11  12
ATOM     12  C   UNL     1      -4.070  -0.596  24.612  0.00  0.00    +0.170 C 
BRANCH  12  13
ATOM     13  C   UNL     1      -3.847  -1.365  24.811  0.00  0.00    +0.144 A 
ATOM     14  N   UNL     1      -3.456  -1.594  25.500  0.00  0.00    -0.227 NA
ATOM     15  C   UNL     1      -3.344  -2.412  25.471  0.00  0.00    +0.119 A 
ATOM     16  C   UNL     1      -3.667  -2.688  24.763  0.00  0.00    +0.098 A 
ATOM     17  N   UNL     1      -3.978  -2.041  24.355  0.00  0.00    -0.310 N 
ATOM     18  C   UNL     1      -4.353  -2.066  23.622  0.00  0.00    +0.132 C 
ENDBRANCH  12  13
ENDBRANCH  11  12
TORSDOF 8
ENDMDL
MODEL 5
REMARK VINA RESULT:      -9.4      1.805      5.431
REMARK  Name = 
REMARK  8 active torsions:
REMARK  status: ('A' for Active; 'I' for Inactive)
REMARK    1  A    between atoms: C_2  and  C_4
REMARK    2  A    between atoms: C_4  and  C_5
REMARK    3  A    between atoms: C_7  and  C_25
REMARK    4  A    between atoms: N_11  and  C_12
REMARK    5  A    between atoms: C_12  and  C_13
REMARK    6  A    between atoms: N_27  and  C_28
REMARK    7  A    between atoms: C_28  and  C_29
REMARK    8  A    between atoms: C_29  and  N_30
REMARK                            x       y       z     vdW  Elec       q    Type
REMARK                         _______ _______ _______ _____ _____    ______ ____
ROOT
ATOM      5  C   UNL     1      -1.270   1.877  24.489  0.00  0.00    +0.095 C 
ATOM      6  N   UNL     1      -1.973   2.308  24.452  0.00  0.00    -0.207 NA
ATOM      7  C   UNL     1      -2.749   2.028  24.446  0.00  0.00    +0.155 C 
ATOM      8  C   UNL     1      -3.015   1.248  24.475  0.00  0.00    +0.055 C 
ATOM      9  C   UNL     1      -2.569   0.554  24.519  0.00  0.00    -0.002 A 
ATOM     10  C   UNL     1      -2.904  -0.200  24.545  0.00  0.00    +0.072 A 
ATOM     11  N   UNL     1      -2.289  -0.749  24.586  0.00  0.00    -0.319 N 
ATOM     19  C   UNL     1      -1.576  -0.336  24.584  0.00  0.00    +0.060 A 
ATOM     20  C   UNL     1      -1.749   0.470  24.543  0.00  0.00    +0.011 A 
ATOM     21  C   UNL     1      -1.171   1.059  24.530  0.00  0.00    -0.005 A 
ATOM     22  C   UNL     1      -0.352   0.771  24.563  0.00  0.00    -0.003 A 
ATOM     23  C   UNL     1      -0.180  -0.035  24.605  0.00  0.00    +0.001 A 
ATOM     24  C   UNL     1      -0.792  -0.588  24.616  0.00  0.00    +0.017 A 
ENDROOT
BRANCH   7  25
ATOM     25  C   UNL     1      -3.338   2.605  24.404  0.00  0.00    +0.258 C 
ATOM     26  O   UNL     1      -3.474   3.006  23.696  0.00  0.00    -0.272 OA
ATOM     27  N   UNL     1      -3.790   2.780  25.071  0.00  0.00    -0.203 NA
BRANCH  27  28
ATOM     28  C   UNL     1      -4.379   3.357  25.030  0.00  0.00    +0.132 C 
BRANCH  28  29
ATOM     29  C   UNL     1      -4.774   3.593  25.715  0.00  0.00    +0.096 C 
BRANCH  29  30
ATOM     30  N   UNL     1      -5.591   3.709  25.701  0.00  0.00    -0.269 NA
ATOM     31  C   UNL     1      -6.100   3.072  25.822  0.00  0.00    +0.090 C 
ATOM     32  C   UNL     1      -5.898   4.463  25.566  0.00  0.00    +0.090 C 
ENDBRANCH  29  30
ENDBRANCH  28  29
ENDBRANCH  27  28
ENDBRANCH   7  25
BRANCH   5   4
ATOM      4  C   UNL     1      -0.576   2.322  24.486  0.00  0.00    +0.022 C 
BRANCH   4   2
ATOM      1  C   UNL     1      -0.558   3.751  24.487  0.00  0.00    +0.000 C 
ATOM      2  C   UNL     1      -0.542   3.036  24.898  0.00  0.00    +0.002 C 
ATOM      3  C   UNL     1      -0.491   3.034  25.721  0.00  0.00    +0.000 C 
ENDBRANCH   4   2
ENDBRANCH   5   4
BRANCH  11  12
ATOM     12  C   UNL     1      -2.375  -1.569  24.622  0.00  0.00    +0.170 C 
BRANCH  12  13
ATOM     13  C   UNL     1      -3.079  -1.921  24.376  0.00  0.00    +0.144 A 
ATOM     14  N   UNL     1      -3.542  -1.684  23.737  0.00  0.00    -0.227 NA
ATOM     15  C   UNL     1      -4.194  -2.190  23.692  0.00  0.00    +0.119 A 
ATOM     16  C   UNL     1      -4.133  -2.739  24.304  0.00  0.00    +0.098 A 
ATOM     17  N   UNL     1      -3.444  -2.574  24.728  0.00  0.00    -0.310 N 
ATOM     18  C   UNL     1      -3.168  -2.987  25.385  0.00  0.00    +0.132 C 
ENDBRANCH  12  13
ENDBRANCH  11  12
TORSDOF 8
ENDMDL
MODEL 6
REMARK VINA RESULT:      -9.4      1.873      5.592
REMARK  Name = 
REMARK  8 active torsions:
REMARK  status: ('A' for Active; 'I' for Inactive)
REMARK    1  A    between atoms: C_2  and  C_4
REMARK    2  A    between atoms: C_4  and  C_5
REMARK    3  A    between atoms: C_7  and  C_25
REMARK    4  A    between atoms: N_11  and  C_12
REMARK    5  A    between atoms: C_12  and  C_13
REMARK    6  A    between atoms: N_27  and  C_28
REMARK    7  A    between atoms: C_28  and  C_29
REMARK    8  A    between atoms: C_29  and  N_30
REMARK                            x       y       z     vdW  Elec       q    Type
REMARK                         _______ _______ _______ _____ _____    ______ ____
ROOT
ATOM      5  C   UNL     1      -1.716   3.476  25.406  0.00  0.00    +0.095 C 
ATOM      6  N   UNL     1      -2.492   3.418  25.133  0.00  0.00    -0.207 NA
ATOM      7  C   UNL     1      -2.875   2.763  24.808  0.00  0.00    +0.155 C 
ATOM      8  C   UNL     1      -2.577   2.005  24.675  0.00  0.00    +0.055 C 
ATOM      9  C   UNL     1      -1.821   1.715  24.836  0.00  0.00    -0.002 A 
ATOM     10  C   UNL     1      -1.589   0.939  24.677  0.00  0.00    +0.072 A 
ATOM     11  N   UNL     1      -0.802   0.856  24.911  0.00  0.00    -0.319 N 
ATOM     19  C   UNL     1      -0.548   1.580  25.215  0.00  0.00    +0.060 A 
ATOM     20  C   UNL     1      -1.178   2.110  25.168  0.00  0.00    +0.011 A 
ATOM     21  C   UNL     1      -1.131   2.894  25.422  0.00  0.00    -0.005 A 
ATOM     22  C   UNL     1      -0.360   3.130  25.748  0.00  0.00    -0.003 A 
ATOM     23  C   UNL     1       0.269   2.599  25.794  0.00  0.00    +0.001 A 
ATOM     24  C   UNL     1       0.175   1.824  25.527  0.00  0.00    +0.017 A 
ENDROOT
BRANCH   7  25
ATOM     25  C   UNL     1      -3.661   2.881  24.585  0.00  0.00    +0.258 C 
ATOM     26  O   UNL     1      -3.836   3.193  23.841  0.00  0.00    -0.272 OA
ATOM     27  N   UNL     1      -4.270   2.688  25.106  0.00  0.00    -0.203 NA
BRANCH  27  28
ATOM     28  C   UNL     1      -5.056   2.807  24.883  0.00  0.00    +0.132 C 
BRANCH  28  29
ATOM     29  C   UNL     1      -5.647   2.838  25.457  0.00  0.00    +0.096 C 
BRANCH  29  30
ATOM     30  N   UNL     1      -6.195   2.223  25.519  0.00  0.00    -0.269 NA
ATOM     31  C   UNL     1      -6.365   1.897  26.258  0.00  0.00    +0.090 C 
ATOM     32  C   UNL     1      -6.570   1.935  24.844  0.00  0.00    +0.090 C 
ENDBRANCH  29  30
ENDBRANCH  28  29
ENDBRANCH  27  28
ENDBRANCH   7  25
BRANCH   5   4
ATOM      4  C   UNL     1      -1.496   4.213  25.703  0.00  0.00    +0.022 C 
BRANCH   4   2
ATOM      1  C   UNL     1      -1.238   5.143  24.650  0.00  0.00    +0.000 C 
ATOM      2  C   UNL     1      -1.695   4.900  25.292  0.00  0.00    +0.002 C 
ATOM      3  C   UNL     1      -2.351   5.343  25.523  0.00  0.00    +0.000 C 
ENDBRANCH   4   2
ENDBRANCH   5   4
BRANCH  11  12
ATOM     12  C   UNL     1      -0.349   0.169  24.851  0.00  0.00    +0.170 C 
BRANCH  12  13
ATOM     13  C   UNL     1      -0.699  -0.567  24.977  0.00  0.00    +0.144 A 
ATOM     14  N   UNL     1      -1.203  -0.765  25.598  0.00  0.00    -0.227 NA
ATOM     15  C   UNL     1      -1.421  -1.556  25.508  0.00  0.00    +0.119 A 
ATOM     16  C   UNL     1      -1.053  -1.847  24.830  0.00  0.00    +0.098 A 
ATOM     17  N   UNL     1      -0.606  -1.236  24.501  0.00  0.00    -0.310 N 
ATOM     18  C   UNL     1      -0.147  -1.284  23.818  0.00  0.00    +0.132 C 
ENDBRANCH  12  13
ENDBRANCH  11  12
TORSDOF 8
ENDMDL
