MODEL 1
REMARK VINA RESULT:     -10.7      0.000      0.000
REMARK  Name = 
REMARK  4 active torsions:
REMARK  status: ('A' for Active; 'I' for Inactive)
REMARK    1  A    between atoms: S_2  and  C_5
REMARK    2  A    between atoms: C_8  and  O_9
REMARK    3  A    between atoms: O_9  and  C_10
REMARK    4  A    between atoms: N_19  and  C_20
REMARK                            x       y       z     vdW  Elec       q    Type
REMARK                         _______ _______ _______ _____ _____    ______ ____
ROOT
ATOM     10  C   UNL     1      -4.082   1.303  24.312  0.00  0.00    +0.215 C 
ATOM     11  C   UNL     1      -4.797   1.261  24.722  0.00  0.00    +0.187 C 
ATOM     12  O   UNL     1      -5.092   1.776  25.295  0.00  0.00    -0.348 OA
ATOM     13  C   UNL     1      -4.745   2.459  25.601  0.00  0.00    +0.164 C 
ATOM     14  C   UNL     1      -4.018   2.796  25.408  0.00  0.00    +0.127 C 
ATOM     15  N   UNL     1      -3.457   2.533  24.863  0.00  0.00    -0.256 N 
ATOM     16  C   UNL     1      -3.486   1.869  24.376  0.00  0.00    +0.141 C 
ATOM     17  C   UNL     1      -2.777   2.997  24.796  0.00  0.00    +0.328 C 
ATOM     18  O   UNL     1      -2.183   2.782  24.267  0.00  0.00    -0.250 OA
ATOM     19  N   UNL     1      -2.693   3.674  25.260  0.00  0.00    -0.161 NA
ENDROOT
BRANCH  19  20
ATOM     20  C   UNL     1      -2.014   4.138  25.193  0.00  0.00    +0.094 A 
ATOM     21  C   UNL     1      -1.270   3.801  25.314  0.00  0.00    +0.115 A 
ATOM     22  N   UNL     1      -0.592   4.264  25.248  0.00  0.00    -0.241 NA
ATOM     23  C   UNL     1      -0.656   5.065  25.061  0.00  0.00    +0.099 A 
ATOM     24  C   UNL     1      -1.399   5.402  24.940  0.00  0.00    +0.022 A 
ATOM     25  C   UNL     1      -2.078   4.938  25.006  0.00  0.00    +0.020 A 
ENDBRANCH  19  20
BRANCH  10   9
ATOM      9  O   UNL     1      -3.946   0.697  23.769  0.00  0.00    -0.475 OA
BRANCH   9   8
ATOM      5  C   UNL     1      -3.521  -1.608  24.561  0.00  0.00    +0.106 A 
ATOM      6  C   UNL     1      -2.917  -1.047  24.580  0.00  0.00    +0.021 A 
ATOM      7  C   UNL     1      -3.058  -0.280  24.316  0.00  0.00    +0.038 A 
ATOM      8  C   UNL     1      -3.804  -0.071  24.033  0.00  0.00    +0.139 A 
ATOM     26  C   UNL     1      -4.409  -0.633  24.014  0.00  0.00    +0.038 A 
ATOM     27  C   UNL     1      -4.268  -1.400  24.277  0.00  0.00    +0.021 A 
BRANCH   5   2
ATOM      1  C   UNL     1      -3.237  -3.146  25.089  0.00  0.00    +0.182 C 
ATOM      2  S   UNL     1      -3.379  -2.377  24.825  0.00  0.00    +0.010 S 
ATOM      3  O   UNL     1      -3.169  -2.601  24.059  0.00  0.00    -0.169 OA
ATOM      4  O   UNL     1      -3.589  -2.153  25.590  0.00  0.00    -0.169 OA
ENDBRANCH   5   2
ENDBRANCH   9   8
ENDBRANCH  10   9
TORSDOF 4
ENDMDL
MODEL 2
REMARK VINA RESULT:     -10.6      1.842      2.674
REMARK  Name = 
REMARK  4 active torsions:
REMARK  status: ('A' for Active; 'I' for Inactive)
REMARK    1  A    between atoms: S_2  and  C_5
REMARK    2  A    between atoms: C_8  and  O_9
REMARK    3  A    between atoms: O_9  and  C_10
REMARK    4  A    between atoms: N_19  and  C_20
REMARK                            x       y       z     vdW  Elec       q    Type
REMARK                         _______ _______ _______ _____ _____    ______ ____
ROOT
ATOM     10  C   UNL     1      -0.834  -0.137  24.959  0.00  0.00    +0.215 C 
ATOM     11  C   UNL     1      -0.290  -0.451  24.423  0.00  0.00    +0.187 C 
ATOM     12  O   UNL     1       0.164  -0.055  23.860  0.00  0.00    -0.348 OA
ATOM     13  C   UNL     1       0.187   0.753  23.692  0.00  0.00    +0.164 C 
ATOM     14  C   UNL     1      -0.240   1.363  24.047  0.00  0.00    +0.127 C 
ATOM     15  N   UNL     1      -0.794   1.317  24.657  0.00  0.00    -0.256 N 
ATOM     16  C   UNL     1      -1.058   0.650  25.062  0.00  0.00    +0.141 C 
ATOM     17  C   UNL     1      -1.127   2.035  24.891  0.00  0.00    +0.328 C 
ATOM     18  O   UNL     1      -1.687   2.050  25.496  0.00  0.00    -0.250 OA
ATOM     19  N   UNL     1      -0.901   2.736  24.521  0.00  0.00    -0.161 NA
ENDROOT
BRANCH  19  20
ATOM     20  C   UNL     1      -1.234   3.454  24.756  0.00  0.00    +0.094 A 
ATOM     21  C   UNL     1      -2.051   3.563  24.714  0.00  0.00    +0.115 A 
ATOM     22  N   UNL     1      -2.384   4.280  24.949  0.00  0.00    -0.241 NA
ATOM     23  C   UNL     1      -1.900   4.888  25.225  0.00  0.00    +0.099 A 
ATOM     24  C   UNL     1      -1.084   4.779  25.267  0.00  0.00    +0.022 A 
ATOM     25  C   UNL     1      -0.750   4.062  25.032  0.00  0.00    +0.020 A 
ENDBRANCH  19  20
BRANCH  10   9
ATOM      9  O   UNL     1      -1.203  -0.683  25.455  0.00  0.00    -0.475 OA
BRANCH   9   8
ATOM      5  C   UNL     1      -3.089  -2.047  24.614  0.00  0.00    +0.106 A 
ATOM      6  C   UNL     1      -2.312  -2.277  24.460  0.00  0.00    +0.021 A 
ATOM      7  C   UNL     1      -1.684  -1.823  24.740  0.00  0.00    +0.038 A 
ATOM      8  C   UNL     1      -1.832  -1.138  25.175  0.00  0.00    +0.139 A 
ATOM     26  C   UNL     1      -2.609  -0.907  25.330  0.00  0.00    +0.038 A 
ATOM     27  C   UNL     1      -3.237  -1.361  25.050  0.00  0.00    +0.021 A 
BRANCH   5   2
ATOM      1  C   UNL     1      -4.346  -2.957  24.054  0.00  0.00    +0.182 C 
ATOM      2  S   UNL     1      -3.718  -2.502  24.334  0.00  0.00    +0.010 S 
ATOM      3  O   UNL     1      -3.906  -1.908  23.793  0.00  0.00    -0.169 OA
ATOM      4  O   UNL     1      -3.529  -3.096  24.875  0.00  0.00    -0.169 OA
ENDBRANCH   5   2
ENDBRANCH   9   8
ENDBRANCH  10   9
TORSDOF 4
ENDMDL
MODEL 3
REMARK VINA RESULT:     -10.5      2.132      5.128
REMARK  Name = 
REMARK  4 active torsions:
REMARK  status: ('A' for Active; 'I' for Inactive)
REMARK    1  A    between atoms: S_2  and  C_5
REMARK    2  A    between atoms: C_8  and  O_9
REMARK    3  A    between atoms: O_9  and  C_10
REMARK    4  A    between atoms: N_19  and  C_20
REMARK                            x       y       z     vdW  Elec       q    Type
REMARK                         _______ _______ _______ _____ _____    ______ ____
ROOT
ATOM     10  C   UNL     1      -4.402   2.337  24.382  0.00  0.00    +0.215 C 
ATOM     11  C   UNL     1      -4.999   2.671  24.844  0.00  0.00    +0.187 C 
ATOM     12  O   UNL     1      -5.518   2.296  25.364  0.00  0.00    -0.348 OA
ATOM     13  C   UNL     1      -5.570   1.494  25.551  0.00  0.00    +0.164 C 
ATOM     14  C   UNL     1      -5.114   0.870  25.263  0.00  0.00    +0.127 C 
ATOM     15  N   UNL     1      -4.494   0.892  24.719  0.00  0.00    -0.256 N 
ATOM     16  C   UNL     1      -4.178   1.545  24.327  0.00  0.00    +0.141 C 
ATOM     17  C   UNL     1      -4.145   0.165  24.543  0.00  0.00    +0.328 C 
ATOM     18  O   UNL     1      -3.522   0.127  24.005  0.00  0.00    -0.250 OA
ATOM     19  N   UNL     1      -4.421  -0.522  24.905  0.00  0.00    -0.161 NA
ENDROOT
BRANCH  19  20
ATOM     20  C   UNL     1      -4.072  -1.250  24.729  0.00  0.00    +0.094 A 
ATOM     21  C   UNL     1      -3.487  -1.557  25.224  0.00  0.00    +0.115 A 
ATOM     22  N   UNL     1      -3.139  -2.284  25.048  0.00  0.00    -0.241 NA
ATOM     23  C   UNL     1      -3.376  -2.703  24.378  0.00  0.00    +0.099 A 
ATOM     24  C   UNL     1      -3.960  -2.396  23.884  0.00  0.00    +0.022 A 
ATOM     25  C   UNL     1      -4.309  -1.668  24.060  0.00  0.00    +0.020 A 
ENDBRANCH  19  20
BRANCH  10   9
ATOM      9  O   UNL     1      -3.974   2.864  23.915  0.00  0.00    -0.475 OA
BRANCH   9   8
ATOM      5  C   UNL     1      -1.908   3.904  24.795  0.00  0.00    +0.106 A 
ATOM      6  C   UNL     1      -2.645   4.172  25.049  0.00  0.00    +0.021 A 
ATOM      7  C   UNL     1      -3.333   3.826  24.756  0.00  0.00    +0.038 A 
ATOM      8  C   UNL     1      -3.285   3.211  24.208  0.00  0.00    +0.139 A 
ATOM     26  C   UNL     1      -2.547   2.943  23.953  0.00  0.00    +0.038 A 
ATOM     27  C   UNL     1      -1.859   3.289  24.246  0.00  0.00    +0.021 A 
BRANCH   5   2
ATOM      1  C   UNL     1      -0.530   4.597  25.381  0.00  0.00    +0.182 C 
ATOM      2  S   UNL     1      -1.219   4.251  25.088  0.00  0.00    +0.010 S 
ATOM      3  O   UNL     1      -0.904   3.502  25.234  0.00  0.00    -0.169 OA
ATOM      4  O   UNL     1      -1.534   4.999  24.943  0.00  0.00    -0.169 OA
ENDBRANCH   5   2
ENDBRANCH   9   8
ENDBRANCH  10   9
TORSDOF 4
ENDMDL
MODEL 4
REMARK VINA RESULT:     -10.3      2.656      5.832
REMARK  Name = 
REMARK  4 active torsions:
REMARK  status: ('A' for Active; 'I' for Inactive)
REMARK    1  A    between atoms: S_2  and  C_5
REMARK    2  A    between atoms: C_8  and  O_9
REMARK    3  A    between atoms: O_9  and  C_10
REMARK    4  A    between atoms: N_19  and  C_20
REMARK                            x       y       z     vdW  Elec       q    Type
REMARK                         _______ _______ _______ _____ _____    ______ ____
ROOT
ATOM     10  C   UNL     1      -0.725   1.096  25.276  0.00  0.00    +0.215 C 
ATOM     11  C   UNL     1      -0.044   1.196  24.821  0.00  0.00    +0.187 C 
ATOM     12  O   UNL     1       0.219   0.746  24.182  0.00  0.00    -0.348 OA
ATOM     13  C   UNL     1      -0.135   0.084  23.839  0.00  0.00    +0.164 C 
ATOM     14  C   UNL     1      -0.838  -0.291  24.052  0.00  0.00    +0.127 C 
ATOM     15  N   UNL     1      -1.362  -0.097  24.659  0.00  0.00    -0.256 N 
ATOM     16  C   UNL     1      -1.311   0.520  25.203  0.00  0.00    +0.141 C 
ATOM     17  C   UNL     1      -2.023  -0.585  24.731  0.00  0.00    +0.328 C 
ATOM     18  O   UNL     1      -2.581  -0.438  25.320  0.00  0.00    -0.250 OA
ATOM     19  N   UNL     1      -2.126  -1.218  24.213  0.00  0.00    -0.161 NA
ENDROOT
BRANCH  19  20
ATOM     20  C   UNL     1      -2.788  -1.706  24.285  0.00  0.00    +0.094 A 
ATOM     21  C   UNL     1      -2.738  -2.411  24.712  0.00  0.00    +0.115 A 
ATOM     22  N   UNL     1      -3.399  -2.898  24.783  0.00  0.00    -0.241 NA
ATOM     23  C   UNL     1      -4.111  -2.681  24.428  0.00  0.00    +0.099 A 
ATOM     24  C   UNL     1      -4.162  -1.978  24.002  0.00  0.00    +0.022 A 
ATOM     25  C   UNL     1      -3.500  -1.489  23.930  0.00  0.00    +0.020 A 
ENDBRANCH  19  20
BRANCH  10   9
ATOM      9  O   UNL     1      -0.833   1.644  25.883  0.00  0.00    -0.475 OA
BRANCH   9   8
ATOM      5  C   UNL     1      -1.280   4.018  25.345  0.00  0.00    +0.106 A 
ATOM      6  C   UNL     1      -0.507   3.764  25.484  0.00  0.00    +0.021 A 
ATOM      7  C   UNL     1      -0.359   2.974  25.663  0.00  0.00    +0.038 A 
ATOM      8  C   UNL     1      -0.982   2.435  25.704  0.00  0.00    +0.139 A 
ATOM     26  C   UNL     1      -1.755   2.688  25.564  0.00  0.00    +0.038 A 
ATOM     27  C   UNL     1      -1.904   3.479  25.385  0.00  0.00    +0.021 A 
BRANCH   5   2
ATOM      1  C   UNL     1      -1.578   5.601  24.986  0.00  0.00    +0.182 C 
ATOM      2  S   UNL     1      -1.429   4.809  25.166  0.00  0.00    +0.010 S 
ATOM      3  O   UNL     1      -0.774   4.819  24.664  0.00  0.00    -0.169 OA
ATOM      4  O   UNL     1      -2.084   4.800  25.667  0.00  0.00    -0.169 OA
ENDBRANCH   5   2
ENDBRANCH   9   8
ENDBRANCH  10   9
TORSDOF 4
ENDMDL
MODEL 5
REMARK VINA RESULT:      -9.9      2.294      5.180
REMARK  Name = 
REMARK  4 active torsions:
REMARK  status: ('A' for Active; 'I' for Inactive)
REMARK    1  A    between atoms: S_2  and  C_5
REMARK    2  A    between atoms: C_8  and  O_9
REMARK    3  A    between atoms: O_9  and  C_10
REMARK    4  A    between atoms: N_19  and  C_20
REMARK                            x       y       z     vdW  Elec       q    Type
REMARK                         _______ _______ _______ _____ _____    ______ ____
ROOT
ATOM     10  C   UNL     1      -1.824   1.902  24.650  0.00  0.00    +0.215 C 
ATOM     11  C   UNL     1      -1.189   2.186  25.094  0.00  0.00    +0.187 C 
ATOM     12  O   UNL     1      -0.667   1.764  25.573  0.00  0.00    -0.348 OA
ATOM     13  C   UNL     1      -0.650   0.954  25.727  0.00  0.00    +0.164 C 
ATOM     14  C   UNL     1      -1.151   0.366  25.438  0.00  0.00    +0.127 C 
ATOM     15  N   UNL     1      -1.794   0.443  24.926  0.00  0.00    -0.256 N 
ATOM     16  C   UNL     1      -2.092   1.126  24.575  0.00  0.00    +0.141 C 
ATOM     17  C   UNL     1      -2.189  -0.258  24.740  0.00  0.00    +0.328 C 
ATOM     18  O   UNL     1      -2.838  -0.242  24.232  0.00  0.00    -0.250 OA
ATOM     19  N   UNL     1      -1.934  -0.973  25.061  0.00  0.00    -0.161 NA
ENDROOT
BRANCH  19  20
ATOM     20  C   UNL     1      -2.329  -1.673  24.875  0.00  0.00    +0.094 A 
ATOM     21  C   UNL     1      -1.993  -2.209  24.345  0.00  0.00    +0.115 A 
ATOM     22  N   UNL     1      -2.388  -2.908  24.159  0.00  0.00    -0.241 NA
ATOM     23  C   UNL     1      -3.119  -3.073  24.504  0.00  0.00    +0.099 A 
ATOM     24  C   UNL     1      -3.455  -2.538  25.034  0.00  0.00    +0.022 A 
ATOM     25  C   UNL     1      -3.060  -1.838  25.220  0.00  0.00    +0.020 A 
ENDBRANCH  19  20
BRANCH  10   9
ATOM      9  O   UNL     1      -2.244   2.470  24.224  0.00  0.00    -0.475 OA
BRANCH   9   8
ATOM      5  C   UNL     1      -4.376   3.358  25.115  0.00  0.00    +0.106 A 
ATOM      6  C   UNL     1      -3.665   3.530  25.496  0.00  0.00    +0.021 A 
ATOM      7  C   UNL     1      -2.956   3.235  25.200  0.00  0.00    +0.038 A 
ATOM      8  C   UNL     1      -2.955   2.766  24.521  0.00  0.00    +0.139 A 
ATOM     26  C   UNL     1      -3.666   2.593  24.139  0.00  0.00    +0.038 A 
ATOM     27  C   UNL     1      -4.376   2.889  24.436  0.00  0.00    +0.021 A 
BRANCH   5   2
ATOM      1  C   UNL     1      -5.797   3.950  25.709  0.00  0.00    +0.182 C 
ATOM      2  S   UNL     1      -5.087   3.654  25.412  0.00  0.00    +0.010 S 
ATOM      3  O   UNL     1      -5.237   2.928  25.775  0.00  0.00    -0.169 OA
ATOM      4  O   UNL     1      -4.936   4.379  25.049  0.00  0.00    -0.169 OA
ENDBRANCH   5   2
ENDBRANCH   9   8
ENDBRANCH  10   9
TORSDOF 4
ENDMDL
MODEL 6
REMARK VINA RESULT:      -9.8      2.512      4.218
REMARK  Name = 
REMARK  4 active torsions:
REMARK  status: ('A' for Active; 'I' for Inactive)
REMARK    1  A    between atoms: S_2  and  C_5
REMARK    2  A    between atoms: C_8  and  O_9
REMARK    3  A    between atoms: O_9  and  C_10
REMARK    4  A    between atoms: N_19  and  C_20
REMARK                            x       y       z     vdW  Elec       q    Type
REMARK                         _______ _______ _______ _____ _____    ______ ____
ROOT
ATOM     10  C   UNL     1      -2.544   3.497  24.549  0.00  0.00    +0.215 C 
ATOM     11  C   UNL     1      -2.281   4.113  25.032  0.00  0.00    +0.187 C 
ATOM     12  O   UNL     1      -1.566   4.180  25.437  0.00  0.00    -0.348 OA
ATOM     13  C   UNL     1      -0.936   3.647  25.460  0.00  0.00    +0.164 C 
ATOM     14  C   UNL     1      -0.867   2.917  25.083  0.00  0.00    +0.127 C 
ATOM     15  N   UNL     1      -1.410   2.538  24.590  0.00  0.00    -0.256 N 
ATOM     16  C   UNL     1      -2.156   2.797  24.353  0.00  0.00    +0.141 C 
ATOM     17  C   UNL     1      -1.175   1.804  24.296  0.00  0.00    +0.328 C 
ATOM     18  O   UNL     1      -1.677   1.380  23.799  0.00  0.00    -0.250 OA
ATOM     19  N   UNL     1      -0.438   1.495  24.500  0.00  0.00    -0.161 NA
ENDROOT
BRANCH  19  20
ATOM     20  C   UNL     1      -0.203   0.760  24.206  0.00  0.00    +0.094 A 
ATOM     21  C   UNL     1       0.295   0.718  23.550  0.00  0.00    +0.115 A 
ATOM     22  N   UNL     1       0.530  -0.016  23.257  0.00  0.00    -0.241 NA
ATOM     23  C   UNL     1       0.266  -0.708  23.620  0.00  0.00    +0.099 A 
ATOM     24  C   UNL     1      -0.231  -0.667  24.275  0.00  0.00    +0.022 A 
ATOM     25  C   UNL     1      -0.466   0.068  24.569  0.00  0.00    +0.020 A 
ENDBRANCH  19  20
BRANCH  10   9
ATOM      9  O   UNL     1      -3.294   3.597  24.220  0.00  0.00    -0.475 OA
BRANCH   9   8
ATOM      5  C   UNL     1      -5.276   2.621  25.335  0.00  0.00    +0.106 A 
ATOM      6  C   UNL     1      -4.926   3.304  25.638  0.00  0.00    +0.021 A 
ATOM      7  C   UNL     1      -4.266   3.628  25.267  0.00  0.00    +0.038 A 
ATOM      8  C   UNL     1      -3.955   3.271  24.592  0.00  0.00    +0.139 A 
ATOM     26  C   UNL     1      -4.305   2.588  24.288  0.00  0.00    +0.038 A 
ATOM     27  C   UNL     1      -4.965   2.264  24.659  0.00  0.00    +0.021 A 
BRANCH   5   2
ATOM      1  C   UNL     1      -6.598   1.971  26.079  0.00  0.00    +0.182 C 
ATOM      2  S   UNL     1      -5.937   2.296  25.707  0.00  0.00    +0.010 S 
ATOM      3  O   UNL     1      -6.151   1.924  25.002  0.00  0.00    -0.169 OA
ATOM      4  O   UNL     1      -5.723   2.668  26.412  0.00  0.00    -0.169 OA
ENDBRANCH   5   2
ENDBRANCH   9   8
ENDBRANCH  10   9
TORSDOF 4
ENDMDL
