MODEL 1
REMARK VINA RESULT:     -11.1      0.000      0.000
REMARK  Name = 
REMARK  4 active torsions:
REMARK  status: ('A' for Active; 'I' for Inactive)
REMARK    1  A    between atoms: O_2  and  C_3
REMARK    2  A    between atoms: C_8  and  C_10
REMARK    3  A    between atoms: N_13  and  C_14
REMARK    4  A    between atoms: C_14  and  C_15
REMARK                            x       y       z     vdW  Elec       q    Type
REMARK                         _______ _______ _______ _____ _____    ______ ____
ROOT
ATOM     10  C   UNL     1      -4.474   1.153  24.889  0.00  0.00    +0.076 C 
ATOM     11  C   UNL     1      -5.140   1.406  25.306  0.00  0.00    +0.026 C 
ATOM     12  C   UNL     1      -5.154   2.231  25.289  0.00  0.00    +0.073 C 
ATOM     13  N   UNL     1      -4.497   2.488  24.861  0.00  0.00    -0.267 NA
ATOM     21  C   UNL     1      -4.077   1.822  24.614  0.00  0.00    +0.080 C 
ENDROOT
BRANCH  10   8
ATOM      3  C   UNL     1      -3.198  -2.148  24.651  0.00  0.00    +0.140 A 
ATOM      4  C   UNL     1      -3.093  -1.424  25.032  0.00  0.00    +0.058 A 
ATOM      5  C   UNL     1      -3.593  -0.790  24.860  0.00  0.00    +0.103 A 
ATOM      6  C   UNL     1      -4.198  -0.881  24.307  0.00  0.00    +0.100 A 
ATOM      7  N   UNL     1      -4.602  -0.165  24.251  0.00  0.00    -0.229 NA
ATOM      8  C   UNL     1      -4.246   0.370  24.768  0.00  0.00    +0.140 A 
ATOM      9  N   UNL     1      -3.623  -0.017  25.145  0.00  0.00    -0.229 NA
ATOM     22  C   UNL     1      -4.304  -1.606  23.926  0.00  0.00    +0.024 A 
ATOM     23  C   UNL     1      -3.803  -2.239  24.098  0.00  0.00    +0.039 A 
BRANCH   3   2
ATOM      1  C   UNL     1      -1.946  -2.816  24.486  0.00  0.00    +0.252 C 
ATOM      2  O   UNL     1      -2.698  -2.780  24.823  0.00  0.00    -0.471 OA
ENDBRANCH   3   2
ENDBRANCH  10   8
BRANCH  13  14
ATOM     14  C   UNL     1      -4.296   3.273  24.706  0.00  0.00    +0.119 C 
BRANCH  14  15
ATOM     15  C   UNL     1      -3.621   3.601  25.050  0.00  0.00    +0.075 A 
ATOM     16  N   UNL     1      -2.918   3.645  24.619  0.00  0.00    -0.247 NA
ATOM     17  C   UNL     1      -2.244   3.973  24.964  0.00  0.00    +0.098 A 
ATOM     18  C   UNL     1      -2.272   4.257  25.737  0.00  0.00    +0.021 A 
ATOM     19  C   UNL     1      -2.975   4.214  26.168  0.00  0.00    +0.003 A 
ATOM     20  C   UNL     1      -3.650   3.885  25.824  0.00  0.00    +0.016 A 
ENDBRANCH  14  15
ENDBRANCH  13  14
TORSDOF 4
ENDMDL
MODEL 2
REMARK VINA RESULT:     -10.6      1.906      5.148
REMARK  Name = 
REMARK  4 active torsions:
REMARK  status: ('A' for Active; 'I' for Inactive)
REMARK    1  A    between atoms: O_2  and  C_3
REMARK    2  A    between atoms: C_8  and  C_10
REMARK    3  A    between atoms: N_13  and  C_14
REMARK    4  A    between atoms: C_14  and  C_15
REMARK                            x       y       z     vdW  Elec       q    Type
REMARK                         _______ _______ _______ _____ _____    ______ ____
ROOT
ATOM     10  C   UNL     1      -3.288   1.312  24.320  0.00  0.00    +0.076 C 
ATOM     11  C   UNL     1      -3.246   0.999  23.558  0.00  0.00    +0.026 C 
ATOM     12  C   UNL     1      -3.661   0.285  23.551  0.00  0.00    +0.073 C 
ATOM     13  N   UNL     1      -3.960   0.158  24.309  0.00  0.00    -0.267 NA
ATOM     21  C   UNL     1      -3.729   0.792  24.784  0.00  0.00    +0.080 C 
ENDROOT
BRANCH  10   8
ATOM      3  C   UNL     1      -1.489   4.238  25.203  0.00  0.00    +0.140 A 
ATOM      4  C   UNL     1      -1.434   3.529  24.787  0.00  0.00    +0.058 A 
ATOM      5  C   UNL     1      -2.077   3.012  24.765  0.00  0.00    +0.103 A 
ATOM      6  C   UNL     1      -2.775   3.206  25.159  0.00  0.00    +0.100 A 
ATOM      7  N   UNL     1      -3.314   2.593  25.040  0.00  0.00    -0.229 NA
ATOM      8  C   UNL     1      -2.949   2.020  24.573  0.00  0.00    +0.140 A 
ATOM      9  N   UNL     1      -2.185   2.279  24.403  0.00  0.00    -0.229 NA
ATOM     22  C   UNL     1      -2.831   3.917  25.575  0.00  0.00    +0.024 A 
ATOM     23  C   UNL     1      -2.187   4.432  25.597  0.00  0.00    +0.039 A 
BRANCH   3   2
ATOM      1  C   UNL     1      -0.881   5.475  24.825  0.00  0.00    +0.252 C 
ATOM      2  O   UNL     1      -0.847   4.754  25.225  0.00  0.00    -0.471 OA
ENDBRANCH   3   2
ENDBRANCH  10   8
BRANCH  13  14
ATOM     14  C   UNL     1      -4.410  -0.490  24.551  0.00  0.00    +0.119 C 
BRANCH  14  15
ATOM     15  C   UNL     1      -4.056  -1.230  24.637  0.00  0.00    +0.075 A 
ATOM     16  N   UNL     1      -3.639  -1.410  25.326  0.00  0.00    -0.247 NA
ATOM     17  C   UNL     1      -3.285  -2.150  25.412  0.00  0.00    +0.098 A 
ATOM     18  C   UNL     1      -3.347  -2.710  24.810  0.00  0.00    +0.021 A 
ATOM     19  C   UNL     1      -3.764  -2.530  24.120  0.00  0.00    +0.003 A 
ATOM     20  C   UNL     1      -4.119  -1.790  24.034  0.00  0.00    +0.016 A 
ENDBRANCH  14  15
ENDBRANCH  13  14
TORSDOF 4
ENDMDL
MODEL 3
REMARK VINA RESULT:     -10.3      1.941      2.823
REMARK  Name = 
REMARK  4 active torsions:
REMARK  status: ('A' for Active; 'I' for Inactive)
REMARK    1  A    between atoms: O_2  and  C_3
REMARK    2  A    between atoms: C_8  and  C_10
REMARK    3  A    between atoms: N_13  and  C_14
REMARK    4  A    between atoms: C_14  and  C_15
REMARK                            x       y       z     vdW  Elec       q    Type
REMARK                         _______ _______ _______ _____ _____    ______ ____
ROOT
ATOM     10  C   UNL     1      -0.936   0.804  24.894  0.00  0.00    +0.076 C 
ATOM     11  C   UNL     1      -0.358   1.083  24.376  0.00  0.00    +0.026 C 
ATOM     12  C   UNL     1      -0.104   1.819  24.649  0.00  0.00    +0.073 C 
ATOM     13  N   UNL     1      -0.526   1.995  25.336  0.00  0.00    -0.267 NA
ATOM     21  C   UNL     1      -1.040   1.367  25.487  0.00  0.00    +0.080 C 
ENDROOT
BRANCH  10   8
ATOM      3  C   UNL     1      -3.017  -2.057  24.636  0.00  0.00    +0.140 A 
ATOM      4  C   UNL     1      -3.028  -1.236  24.708  0.00  0.00    +0.058 A 
ATOM      5  C   UNL     1      -2.319  -0.815  24.747  0.00  0.00    +0.103 A 
ATOM      6  C   UNL     1      -1.599  -1.217  24.715  0.00  0.00    +0.100 A 
ATOM      7  N   UNL     1      -0.994  -0.660  24.766  0.00  0.00    -0.229 NA
ATOM      8  C   UNL     1      -1.339   0.087  24.830  0.00  0.00    +0.140 A 
ATOM      9  N   UNL     1      -2.158  -0.010  24.818  0.00  0.00    -0.229 NA
ATOM     22  C   UNL     1      -1.588  -2.040  24.644  0.00  0.00    +0.024 A 
ATOM     23  C   UNL     1      -2.297  -2.459  24.605  0.00  0.00    +0.039 A 
BRANCH   3   2
ATOM      1  C   UNL     1      -4.172  -2.471  23.903  0.00  0.00    +0.252 C 
ATOM      2  O   UNL     1      -3.725  -2.477  24.597  0.00  0.00    -0.471 OA
ENDBRANCH   3   2
ENDBRANCH  10   8
BRANCH  13  14
ATOM     14  C   UNL     1      -0.448   2.678  25.791  0.00  0.00    +0.119 C 
BRANCH  14  15
ATOM     15  C   UNL     1      -0.902   3.345  25.617  0.00  0.00    +0.075 A 
ATOM     16  N   UNL     1      -1.669   3.412  25.917  0.00  0.00    -0.247 NA
ATOM     17  C   UNL     1      -2.121   4.079  25.742  0.00  0.00    +0.098 A 
ATOM     18  C   UNL     1      -1.810   4.678  25.269  0.00  0.00    +0.021 A 
ATOM     19  C   UNL     1      -1.044   4.611  24.970  0.00  0.00    +0.003 A 
ATOM     20  C   UNL     1      -0.589   3.944  25.144  0.00  0.00    +0.016 A 
ENDBRANCH  14  15
ENDBRANCH  13  14
TORSDOF 4
ENDMDL
