MODEL 1
REMARK VINA RESULT:     -10.7      0.000      0.000
REMARK  Name = 
REMARK  7 active torsions:
REMARK  status: ('A' for Active; 'I' for Inactive)
REMARK    1  A    between atoms: O_2  and  C_3
REMARK    2  A    between atoms: C_3  and  C_4
REMARK    3  A    between atoms: C_4  and  N_5
REMARK    4  A    between atoms: N_5  and  C_6
REMARK    5  A    between atoms: C_8  and  C_12
REMARK    6  A    between atoms: C_15  and  C_17
REMARK    7  A    between atoms: N_21  and  C_22
REMARK                            x       y       z     vdW  Elec       q    Type
REMARK                         _______ _______ _______ _____ _____    ______ ____
ROOT
ATOM     12  C   UNL     1      -0.842   1.805  25.173  0.00  0.00    +0.203 A 
ATOM     13  N   UNL     1      -0.912   1.954  25.981  0.00  0.00    -0.056 NA
ATOM     14  O   UNL     1      -1.060   2.758  26.081  0.00  0.00    -0.336 OA
ATOM     15  C   UNL     1      -1.082   3.108  25.333  0.00  0.00    +0.251 A 
ATOM     16  N   UNL     1      -0.948   2.518  24.773  0.00  0.00    -0.190 NA
ENDROOT
BRANCH  12   8
ATOM      6  C   UNL     1      -0.940  -0.334  24.746  0.00  0.00    +0.148 A 
ATOM      7  C   UNL     1      -1.089   0.399  25.094  0.00  0.00    +0.039 A 
ATOM      8  C   UNL     1      -0.693   1.072  24.826  0.00  0.00    +0.043 A 
ATOM      9  C   UNL     1      -0.148   1.010  24.209  0.00  0.00    +0.024 A 
ATOM     10  C   UNL     1       0.001   0.277  23.862  0.00  0.00    +0.100 A 
ATOM     11  N   UNL     1      -0.395  -0.395  24.131  0.00  0.00    -0.228 NA
BRANCH   6   5
ATOM      5  N   UNL     1      -1.337  -1.005  25.016  0.00  0.00    -0.218 NA
BRANCH   5   4
ATOM      4  C   UNL     1      -1.892  -1.377  24.532  0.00  0.00    +0.146 C 
BRANCH   4   3
ATOM      3  C   UNL     1      -2.393  -1.953  24.845  0.00  0.00    +0.166 C 
BRANCH   3   2
ATOM      1  C   UNL     1      -3.558  -2.705  24.501  0.00  0.00    +0.174 C 
ATOM      2  O   UNL     1      -2.780  -2.482  24.343  0.00  0.00    -0.349 OA
ENDBRANCH   3   2
ENDBRANCH   4   3
ENDBRANCH   5   4
ENDBRANCH   6   5
ENDBRANCH  12   8
BRANCH  15  17
ATOM     17  C   UNL     1      -1.216   3.907  25.176  0.00  0.00    +0.138 C 
ATOM     18  C   UNL     1      -0.637   4.482  25.062  0.00  0.00    +0.027 C 
ATOM     19  C   UNL     1      -1.017   5.201  24.921  0.00  0.00    +0.019 C 
ATOM     20  C   UNL     1      -1.831   5.069  24.949  0.00  0.00    +0.072 C 
ATOM     21  N   UNL     1      -1.955   4.270  25.106  0.00  0.00    -0.268 NA
BRANCH  21  22
ATOM     22  C   UNL     1      -2.686   3.897  25.182  0.00  0.00    +0.061 C 
ATOM     23  C   UNL     1      -3.036   3.541  24.524  0.00  0.00    +0.038 C 
ATOM     24  C   UNL     1      -3.768   3.167  24.598  0.00  0.00    +0.095 C 
ATOM     25  N   UNL     1      -4.151   3.150  25.330  0.00  0.00    -0.279 N 
ATOM     26  C   UNL     1      -3.801   3.506  25.986  0.00  0.00    +0.095 C 
ATOM     27  C   UNL     1      -3.068   3.880  25.912  0.00  0.00    +0.038 C 
ATOM     28  C   UNL     1      -4.882   2.777  25.404  0.00  0.00    +0.226 C 
ATOM     29  C   UNL     1      -5.233   2.421  24.747  0.00  0.00    +0.095 C 
ATOM     30  O   UNL     1      -5.265   2.760  26.134  0.00  0.00    -0.275 OA
ENDBRANCH  21  22
ENDBRANCH  15  17
TORSDOF 7
ENDMDL
MODEL 2
REMARK VINA RESULT:     -10.5      1.354      5.329
REMARK  Name = 
REMARK  7 active torsions:
REMARK  status: ('A' for Active; 'I' for Inactive)
REMARK    1  A    between atoms: O_2  and  C_3
REMARK    2  A    between atoms: C_3  and  C_4
REMARK    3  A    between atoms: C_4  and  N_5
REMARK    4  A    between atoms: N_5  and  C_6
REMARK    5  A    between atoms: C_8  and  C_12
REMARK    6  A    between atoms: C_15  and  C_17
REMARK    7  A    between atoms: N_21  and  C_22
REMARK                            x       y       z     vdW  Elec       q    Type
REMARK                         _______ _______ _______ _____ _____    ______ ____
ROOT
ATOM     12  C   UNL     1      -4.235   0.883  24.656  0.00  0.00    +0.203 A 
ATOM     13  N   UNL     1      -4.169   0.701  23.854  0.00  0.00    -0.056 NA
ATOM     14  O   UNL     1      -3.784  -0.025  23.788  0.00  0.00    -0.336 OA
ATOM     15  C   UNL     1      -3.611  -0.292  24.550  0.00  0.00    +0.251 A 
ATOM     16  N   UNL     1      -3.890   0.269  25.085  0.00  0.00    -0.190 NA
ENDROOT
BRANCH  12   8
ATOM      6  C   UNL     1      -4.524   2.953  25.285  0.00  0.00    +0.148 A 
ATOM      7  C   UNL     1      -4.174   2.276  24.968  0.00  0.00    +0.039 A 
ATOM      8  C   UNL     1      -4.584   1.560  24.972  0.00  0.00    +0.043 A 
ATOM      9  C   UNL     1      -5.344   1.522  25.292  0.00  0.00    +0.024 A 
ATOM     10  C   UNL     1      -5.693   2.199  25.609  0.00  0.00    +0.100 A 
ATOM     11  N   UNL     1      -5.282   2.915  25.605  0.00  0.00    -0.228 NA
BRANCH   6   5
ATOM      5  N   UNL     1      -4.113   3.669  25.281  0.00  0.00    -0.218 NA
BRANCH   5   4
ATOM      4  C   UNL     1      -3.324   3.693  25.520  0.00  0.00    +0.146 C 
BRANCH   4   3
ATOM      3  C   UNL     1      -2.873   4.371  25.391  0.00  0.00    +0.166 C 
BRANCH   3   2
ATOM      1  C   UNL     1      -1.544   4.880  25.259  0.00  0.00    +0.174 C 
ATOM      2  O   UNL     1      -2.091   4.404  25.652  0.00  0.00    -0.349 OA
ENDBRANCH   3   2
ENDBRANCH   4   3
ENDBRANCH   5   4
ENDBRANCH   6   5
ENDBRANCH  12   8
BRANCH  15  17
ATOM     17  C   UNL     1      -3.227  -0.997  24.740  0.00  0.00    +0.138 C 
ATOM     18  C   UNL     1      -3.580  -1.739  24.807  0.00  0.00    +0.027 C 
ATOM     19  C   UNL     1      -2.992  -2.283  25.006  0.00  0.00    +0.019 C 
ATOM     20  C   UNL     1      -2.276  -1.877  25.062  0.00  0.00    +0.072 C 
ATOM     21  N   UNL     1      -2.421  -1.082  24.898  0.00  0.00    -0.268 NA
BRANCH  21  22
ATOM     22  C   UNL     1      -1.860  -0.477  24.892  0.00  0.00    +0.061 C 
ATOM     23  C   UNL     1      -1.492  -0.264  24.184  0.00  0.00    +0.038 C 
ATOM     24  C   UNL     1      -0.931   0.341  24.178  0.00  0.00    +0.095 C 
ATOM     25  N   UNL     1      -0.737   0.732  24.879  0.00  0.00    -0.279 N 
ATOM     26  C   UNL     1      -1.105   0.519  25.585  0.00  0.00    +0.095 C 
ATOM     27  C   UNL     1      -1.666  -0.087  25.592  0.00  0.00    +0.038 C 
ATOM     28  C   UNL     1      -0.176   1.337  24.871  0.00  0.00    +0.226 C 
ATOM     29  C   UNL     1       0.192   1.551  24.164  0.00  0.00    +0.095 C 
ATOM     30  O   UNL     1       0.018   1.728  25.571  0.00  0.00    -0.275 OA
ENDBRANCH  21  22
ENDBRANCH  15  17
TORSDOF 7
ENDMDL
MODEL 3
REMARK VINA RESULT:     -10.5      1.446      4.424
REMARK  Name = 
REMARK  7 active torsions:
REMARK  status: ('A' for Active; 'I' for Inactive)
REMARK    1  A    between atoms: O_2  and  C_3
REMARK    2  A    between atoms: C_3  and  C_4
REMARK    3  A    between atoms: C_4  and  N_5
REMARK    4  A    between atoms: N_5  and  C_6
REMARK    5  A    between atoms: C_8  and  C_12
REMARK    6  A    between atoms: C_15  and  C_17
REMARK    7  A    between atoms: N_21  and  C_22
REMARK                            x       y       z     vdW  Elec       q    Type
REMARK                         _______ _______ _______ _____ _____    ______ ____
ROOT
ATOM     12  C   UNL     1      -1.228   0.002  25.036  0.00  0.00    +0.203 A 
ATOM     13  N   UNL     1      -1.373  -0.239  25.811  0.00  0.00    -0.056 NA
ATOM     14  O   UNL     1      -1.959  -0.817  25.794  0.00  0.00    -0.336 OA
ATOM     15  C   UNL     1      -2.178  -0.935  25.006  0.00  0.00    +0.251 A 
ATOM     16  N   UNL     1      -1.726  -0.429  24.539  0.00  0.00    -0.190 NA
ENDROOT
BRANCH  12   8
ATOM      6  C   UNL     1      -0.154   1.897  24.896  0.00  0.00    +0.148 A 
ATOM      7  C   UNL     1      -0.700   1.326  25.133  0.00  0.00    +0.039 A 
ATOM      8  C   UNL     1      -0.682   0.573  24.799  0.00  0.00    +0.043 A 
ATOM      9  C   UNL     1      -0.116   0.390  24.226  0.00  0.00    +0.024 A 
ATOM     10  C   UNL     1       0.430   0.961  23.989  0.00  0.00    +0.100 A 
ATOM     11  N   UNL     1       0.411   1.715  24.324  0.00  0.00    -0.228 NA
BRANCH   6   5
ATOM      5  N   UNL     1      -0.173   2.651  25.232  0.00  0.00    -0.218 NA
BRANCH   5   4
ATOM      4  C   UNL     1      -0.567   3.264  24.846  0.00  0.00    +0.146 C 
BRANCH   4   3
ATOM      3  C   UNL     1      -0.805   3.932  25.266  0.00  0.00    +0.166 C 
BRANCH   3   2
ATOM      1  C   UNL     1      -1.395   5.222  25.092  0.00  0.00    +0.174 C 
ATOM      2  O   UNL     1      -0.812   4.671  24.899  0.00  0.00    -0.349 OA
ENDBRANCH   3   2
ENDBRANCH   4   3
ENDBRANCH   5   4
ENDBRANCH   6   5
ENDBRANCH  12   8
BRANCH  15  17
ATOM     17  C   UNL     1      -2.748  -1.467  24.737  0.00  0.00    +0.138 C 
ATOM     18  C   UNL     1      -2.634  -2.271  24.595  0.00  0.00    +0.027 C 
ATOM     19  C   UNL     1      -3.349  -2.587  24.332  0.00  0.00    +0.019 C 
ATOM     20  C   UNL     1      -3.905  -1.978  24.311  0.00  0.00    +0.072 C 
ATOM     21  N   UNL     1      -3.535  -1.286  24.561  0.00  0.00    -0.268 NA
BRANCH  21  22
ATOM     22  C   UNL     1      -3.886  -0.542  24.625  0.00  0.00    +0.061 C 
ATOM     23  C   UNL     1      -4.245  -0.316  25.333  0.00  0.00    +0.038 C 
ATOM     24  C   UNL     1      -4.597   0.428  25.398  0.00  0.00    +0.095 C 
ATOM     25  N   UNL     1      -4.589   0.945  24.755  0.00  0.00    -0.279 N 
ATOM     26  C   UNL     1      -4.230   0.719  24.048  0.00  0.00    +0.095 C 
ATOM     27  C   UNL     1      -3.879  -0.025  23.983  0.00  0.00    +0.038 C 
ATOM     28  C   UNL     1      -4.941   1.688  24.820  0.00  0.00    +0.226 C 
ATOM     29  C   UNL     1      -5.300   1.915  25.527  0.00  0.00    +0.095 C 
ATOM     30  O   UNL     1      -4.934   2.206  24.177  0.00  0.00    -0.275 OA
ENDBRANCH  21  22
ENDBRANCH  15  17
TORSDOF 7
ENDMDL
MODEL 4
REMARK VINA RESULT:     -10.4      2.042      4.093
REMARK  Name = 
REMARK  7 active torsions:
REMARK  status: ('A' for Active; 'I' for Inactive)
REMARK    1  A    between atoms: O_2  and  C_3
REMARK    2  A    between atoms: C_3  and  C_4
REMARK    3  A    between atoms: C_4  and  N_5
REMARK    4  A    between atoms: N_5  and  C_6
REMARK    5  A    between atoms: C_8  and  C_12
REMARK    6  A    between atoms: C_15  and  C_17
REMARK    7  A    between atoms: N_21  and  C_22
REMARK                            x       y       z     vdW  Elec       q    Type
REMARK                         _______ _______ _______ _____ _____    ______ ____
ROOT
ATOM     12  C   UNL     1      -2.191   1.613  23.969  0.00  0.00    +0.203 A 
ATOM     13  N   UNL     1      -2.565   1.504  23.242  0.00  0.00    -0.056 NA
ATOM     14  O   UNL     1      -3.378   1.478  23.375  0.00  0.00    -0.336 OA
ATOM     15  C   UNL     1      -3.507   1.571  24.186  0.00  0.00    +0.251 A 
ATOM     16  N   UNL     1      -2.773   1.654  24.551  0.00  0.00    -0.190 NA
ENDROOT
BRANCH  12   8
ATOM      6  C   UNL     1      -0.068   1.106  24.000  0.00  0.00    +0.148 A 
ATOM      7  C   UNL     1      -0.882   1.048  23.877  0.00  0.00    +0.039 A 
ATOM      8  C   UNL     1      -1.377   1.671  24.092  0.00  0.00    +0.043 A 
ATOM      9  C   UNL     1      -1.058   2.354  24.430  0.00  0.00    +0.024 A 
ATOM     10  C   UNL     1      -0.244   2.411  24.553  0.00  0.00    +0.100 A 
ATOM     11  N   UNL     1       0.250   1.787  24.337  0.00  0.00    -0.228 NA
BRANCH   6   5
ATOM      5  N   UNL     1       0.427   0.481  23.784  0.00  0.00    -0.218 NA
BRANCH   5   4
ATOM      4  C   UNL     1       0.948   0.568  23.151  0.00  0.00    +0.146 C 
BRANCH   4   3
ATOM      3  C   UNL     1       1.520  -0.008  23.004  0.00  0.00    +0.166 C 
BRANCH   3   2
ATOM      1  C   UNL     1       2.805   0.033  22.381  0.00  0.00    +0.174 C 
ATOM      2  O   UNL     1       1.982   0.033  22.322  0.00  0.00    -0.349 OA
ENDBRANCH   3   2
ENDBRANCH   4   3
ENDBRANCH   5   4
ENDBRANCH   6   5
ENDBRANCH  12   8
BRANCH  15  17
ATOM     17  C   UNL     1      -4.241   1.578  24.561  0.00  0.00    +0.138 C 
ATOM     18  C   UNL     1      -4.706   2.243  24.705  0.00  0.00    +0.027 C 
ATOM     19  C   UNL     1      -5.392   1.996  25.092  0.00  0.00    +0.019 C 
ATOM     20  C   UNL     1      -5.350   1.178  25.187  0.00  0.00    +0.072 C 
ATOM     21  N   UNL     1      -4.640   0.919  24.860  0.00  0.00    -0.268 NA
BRANCH  21  22
ATOM     22  C   UNL     1      -4.372   0.139  24.834  0.00  0.00    +0.061 C 
ATOM     23  C   UNL     1      -4.507  -0.320  24.161  0.00  0.00    +0.038 C 
ATOM     24  C   UNL     1      -4.240  -1.101  24.134  0.00  0.00    +0.095 C 
ATOM     25  N   UNL     1      -3.838  -1.422  24.780  0.00  0.00    -0.279 N 
ATOM     26  C   UNL     1      -3.704  -0.963  25.451  0.00  0.00    +0.095 C 
ATOM     27  C   UNL     1      -3.971  -0.182  25.478  0.00  0.00    +0.038 C 
ATOM     28  C   UNL     1      -3.571  -2.201  24.752  0.00  0.00    +0.226 C 
ATOM     29  C   UNL     1      -3.706  -2.661  24.080  0.00  0.00    +0.095 C 
ATOM     30  O   UNL     1      -3.169  -2.523  25.397  0.00  0.00    -0.275 OA
ENDBRANCH  21  22
ENDBRANCH  15  17
TORSDOF 7
ENDMDL
MODEL 5
REMARK VINA RESULT:     -10.4      1.052      4.247
REMARK  Name = 
REMARK  7 active torsions:
REMARK  status: ('A' for Active; 'I' for Inactive)
REMARK    1  A    between atoms: O_2  and  C_3
REMARK    2  A    between atoms: C_3  and  C_4
REMARK    3  A    between atoms: C_4  and  N_5
REMARK    4  A    between atoms: N_5  and  C_6
REMARK    5  A    between atoms: C_8  and  C_12
REMARK    6  A    between atoms: C_15  and  C_17
REMARK    7  A    between atoms: N_21  and  C_22
REMARK                            x       y       z     vdW  Elec       q    Type
REMARK                         _______ _______ _______ _____ _____    ______ ____
ROOT
ATOM     12  C   UNL     1      -0.852   2.649  25.291  0.00  0.00    +0.203 A 
ATOM     13  N   UNL     1      -0.460   2.268  25.909  0.00  0.00    -0.056 NA
ATOM     14  O   UNL     1      -0.109   1.587  25.607  0.00  0.00    -0.336 OA
ATOM     15  C   UNL     1      -0.283   1.546  24.801  0.00  0.00    +0.251 A 
ATOM     16  N   UNL     1      -0.742   2.202  24.607  0.00  0.00    -0.190 NA
ENDROOT
BRANCH  12   8
ATOM      6  C   UNL     1      -2.482   4.048  25.681  0.00  0.00    +0.148 A 
ATOM      7  C   UNL     1      -2.055   3.344  25.624  0.00  0.00    +0.039 A 
ATOM      8  C   UNL     1      -1.278   3.353  25.348  0.00  0.00    +0.043 A 
ATOM      9  C   UNL     1      -0.927   4.067  25.128  0.00  0.00    +0.024 A 
ATOM     10  C   UNL     1      -1.353   4.771  25.184  0.00  0.00    +0.100 A 
ATOM     11  N   UNL     1      -2.131   4.761  25.461  0.00  0.00    -0.228 NA
BRANCH   6   5
ATOM      5  N   UNL     1      -3.259   4.038  25.957  0.00  0.00    -0.218 NA
BRANCH   5   4
ATOM      4  C   UNL     1      -3.854   3.696  25.500  0.00  0.00    +0.146 C 
BRANCH   4   3
ATOM      3  C   UNL     1      -4.609   3.592  25.816  0.00  0.00    +0.166 C 
BRANCH   3   2
ATOM      1  C   UNL     1      -5.719   2.732  25.551  0.00  0.00    +0.174 C 
ATOM      2  O   UNL     1      -5.233   3.360  25.327  0.00  0.00    -0.349 OA
ENDBRANCH   3   2
ENDBRANCH   4   3
ENDBRANCH   5   4
ENDBRANCH   6   5
ENDBRANCH  12   8
BRANCH  15  17
ATOM     17  C   UNL     1      -0.040   0.952  24.282  0.00  0.00    +0.138 C 
ATOM     18  C   UNL     1       0.637   0.965  23.812  0.00  0.00    +0.027 C 
ATOM     19  C   UNL     1       0.663   0.261  23.383  0.00  0.00    +0.019 C 
ATOM     20  C   UNL     1       0.002  -0.187  23.588  0.00  0.00    +0.072 C 
ATOM     21  N   UNL     1      -0.433   0.239  24.144  0.00  0.00    -0.268 NA
BRANCH  21  22
ATOM     22  C   UNL     1      -1.137  -0.003  24.500  0.00  0.00    +0.061 C 
ATOM     23  C   UNL     1      -1.860   0.178  24.145  0.00  0.00    +0.038 C 
ATOM     24  C   UNL     1      -2.565  -0.064  24.501  0.00  0.00    +0.095 C 
ATOM     25  N   UNL     1      -2.546  -0.486  25.210  0.00  0.00    -0.279 N 
ATOM     26  C   UNL     1      -1.823  -0.666  25.563  0.00  0.00    +0.095 C 
ATOM     27  C   UNL     1      -1.118  -0.424  25.208  0.00  0.00    +0.038 C 
ATOM     28  C   UNL     1      -3.250  -0.727  25.565  0.00  0.00    +0.226 C 
ATOM     29  C   UNL     1      -3.974  -0.547  25.211  0.00  0.00    +0.095 C 
ATOM     30  O   UNL     1      -3.232  -1.148  26.274  0.00  0.00    -0.275 OA
ENDBRANCH  21  22
ENDBRANCH  15  17
TORSDOF 7
ENDMDL
MODEL 6
REMARK VINA RESULT:     -10.2      1.436      3.474
REMARK  Name = 
REMARK  7 active torsions:
REMARK  status: ('A' for Active; 'I' for Inactive)
REMARK    1  A    between atoms: O_2  and  C_3
REMARK    2  A    between atoms: C_3  and  C_4
REMARK    3  A    between atoms: C_4  and  N_5
REMARK    4  A    between atoms: N_5  and  C_6
REMARK    5  A    between atoms: C_8  and  C_12
REMARK    6  A    between atoms: C_15  and  C_17
REMARK    7  A    between atoms: N_21  and  C_22
REMARK                            x       y       z     vdW  Elec       q    Type
REMARK                         _______ _______ _______ _____ _____    ______ ____
ROOT
ATOM     12  C   UNL     1      -3.817   2.840  24.651  0.00  0.00    +0.203 A 
ATOM     13  N   UNL     1      -3.722   3.126  23.883  0.00  0.00    -0.056 NA
ATOM     14  O   UNL     1      -3.064   3.622  23.875  0.00  0.00    -0.336 OA
ATOM     15  C   UNL     1      -2.751   3.643  24.639  0.00  0.00    +0.251 A 
ATOM     16  N   UNL     1      -3.216   3.160  25.117  0.00  0.00    -0.190 NA
ENDROOT
BRANCH  12   8
ATOM      6  C   UNL     1      -4.925   0.998  25.034  0.00  0.00    +0.148 A 
ATOM      7  C   UNL     1      -4.334   1.514  24.777  0.00  0.00    +0.039 A 
ATOM      8  C   UNL     1      -4.408   2.325  24.908  0.00  0.00    +0.043 A 
ATOM      9  C   UNL     1      -5.074   2.621  25.296  0.00  0.00    +0.024 A 
ATOM     10  C   UNL     1      -5.665   2.105  25.552  0.00  0.00    +0.100 A 
ATOM     11  N   UNL     1      -5.590   1.294  25.421  0.00  0.00    -0.228 NA
BRANCH   6   5
ATOM      5  N   UNL     1      -4.849   0.187  24.903  0.00  0.00    -0.218 NA
BRANCH   5   4
ATOM      4  C   UNL     1      -4.186  -0.216  25.183  0.00  0.00    +0.146 C 
BRANCH   4   3
ATOM      3  C   UNL     1      -4.026  -0.981  24.920  0.00  0.00    +0.166 C 
BRANCH   3   2
ATOM      1  C   UNL     1      -3.305  -2.203  25.085  0.00  0.00    +0.174 C 
ATOM      2  O   UNL     1      -3.607  -1.504  25.401  0.00  0.00    -0.349 OA
ENDBRANCH   3   2
ENDBRANCH   4   3
ENDBRANCH   5   4
ENDBRANCH   6   5
ENDBRANCH  12   8
BRANCH  15  17
ATOM     17  C   UNL     1      -2.089   4.073  24.879  0.00  0.00    +0.138 C 
ATOM     18  C   UNL     1      -2.072   4.877  25.061  0.00  0.00    +0.027 C 
ATOM     19  C   UNL     1      -1.299   5.074  25.273  0.00  0.00    +0.019 C 
ATOM     20  C   UNL     1      -0.839   4.391  25.222  0.00  0.00    +0.072 C 
ATOM     21  N   UNL     1      -1.326   3.772  24.978  0.00  0.00    -0.268 NA
BRANCH  21  22
ATOM     22  C   UNL     1      -1.094   2.990  24.855  0.00  0.00    +0.061 C 
ATOM     23  C   UNL     1      -0.876   2.741  24.099  0.00  0.00    +0.038 C 
ATOM     24  C   UNL     1      -0.643   1.958  23.974  0.00  0.00    +0.095 C 
ATOM     25  N   UNL     1      -0.630   1.427  24.606  0.00  0.00    -0.279 N 
ATOM     26  C   UNL     1      -0.848   1.677  25.360  0.00  0.00    +0.095 C 
ATOM     27  C   UNL     1      -1.080   2.459  25.485  0.00  0.00    +0.038 C 
ATOM     28  C   UNL     1      -0.397   0.645  24.481  0.00  0.00    +0.226 C 
ATOM     29  C   UNL     1      -0.179   0.395  23.725  0.00  0.00    +0.095 C 
ATOM     30  O   UNL     1      -0.383   0.113  25.111  0.00  0.00    -0.275 OA
ENDBRANCH  21  22
ENDBRANCH  15  17
TORSDOF 7
ENDMDL
MODEL 7
REMARK VINA RESULT:     -10.2      1.356      2.179
REMARK  Name = 
REMARK  7 active torsions:
REMARK  status: ('A' for Active; 'I' for Inactive)
REMARK    1  A    between atoms: O_2  and  C_3
REMARK    2  A    between atoms: C_3  and  C_4
REMARK    3  A    between atoms: C_4  and  N_5
REMARK    4  A    between atoms: N_5  and  C_6
REMARK    5  A    between atoms: C_8  and  C_12
REMARK    6  A    between atoms: C_15  and  C_17
REMARK    7  A    between atoms: N_21  and  C_22
REMARK                            x       y       z     vdW  Elec       q    Type
REMARK                         _______ _______ _______ _____ _____    ______ ____
ROOT
ATOM     12  C   UNL     1      -0.899   1.822  25.259  0.00  0.00    +0.203 A 
ATOM     13  N   UNL     1      -0.935   2.000  26.063  0.00  0.00    -0.056 NA
ATOM     14  O   UNL     1      -1.069   2.809  26.141  0.00  0.00    -0.336 OA
ATOM     15  C   UNL     1      -1.115   3.133  25.383  0.00  0.00    +0.251 A 
ATOM     16  N   UNL     1      -1.010   2.523  24.839  0.00  0.00    -0.190 NA
ENDROOT
BRANCH  12   8
ATOM      6  C   UNL     1      -0.187   0.248  23.925  0.00  0.00    +0.148 A 
ATOM      7  C   UNL     1      -0.312   0.994  24.252  0.00  0.00    +0.039 A 
ATOM      8  C   UNL     1      -0.773   1.076  24.932  0.00  0.00    +0.043 A 
ATOM      9  C   UNL     1      -1.109   0.409  25.284  0.00  0.00    +0.024 A 
ATOM     10  C   UNL     1      -0.983  -0.338  24.957  0.00  0.00    +0.100 A 
ATOM     11  N   UNL     1      -0.522  -0.418  24.277  0.00  0.00    -0.228 NA
BRANCH   6   5
ATOM      5  N   UNL     1       0.275   0.168  23.246  0.00  0.00    -0.218 NA
BRANCH   5   4
ATOM      4  C   UNL     1       1.079  -0.002  23.312  0.00  0.00    +0.146 C 
BRANCH   4   3
ATOM      3  C   UNL     1       1.580   0.115  22.667  0.00  0.00    +0.166 C 
BRANCH   3   2
ATOM      1  C   UNL     1       2.960   0.201  22.304  0.00  0.00    +0.174 C 
ATOM      2  O   UNL     1       2.342  -0.203  22.673  0.00  0.00    -0.349 OA
ENDBRANCH   3   2
ENDBRANCH   4   3
ENDBRANCH   5   4
ENDBRANCH   6   5
ENDBRANCH  12   8
BRANCH  15  17
ATOM     17  C   UNL     1      -1.244   3.928  25.203  0.00  0.00    +0.138 C 
ATOM     18  C   UNL     1      -0.662   4.498  25.077  0.00  0.00    +0.027 C 
ATOM     19  C   UNL     1      -1.037   5.214  24.914  0.00  0.00    +0.019 C 
ATOM     20  C   UNL     1      -1.852   5.087  24.941  0.00  0.00    +0.072 C 
ATOM     21  N   UNL     1      -1.980   4.293  25.119  0.00  0.00    -0.268 NA
BRANCH  21  22
ATOM     22  C   UNL     1      -2.715   3.925  25.200  0.00  0.00    +0.061 C 
ATOM     23  C   UNL     1      -3.070   3.569  24.546  0.00  0.00    +0.038 C 
ATOM     24  C   UNL     1      -3.805   3.201  24.626  0.00  0.00    +0.095 C 
ATOM     25  N   UNL     1      -4.183   3.190  25.360  0.00  0.00    -0.279 N 
ATOM     26  C   UNL     1      -3.827   3.546  26.013  0.00  0.00    +0.095 C 
ATOM     27  C   UNL     1      -3.093   3.914  25.933  0.00  0.00    +0.038 C 
ATOM     28  C   UNL     1      -4.917   2.822  25.439  0.00  0.00    +0.226 C 
ATOM     29  C   UNL     1      -5.273   2.465  24.786  0.00  0.00    +0.095 C 
ATOM     30  O   UNL     1      -5.296   2.811  26.172  0.00  0.00    -0.275 OA
ENDBRANCH  21  22
ENDBRANCH  15  17
TORSDOF 7
ENDMDL
MODEL 8
REMARK VINA RESULT:     -10.1      1.508      3.321
REMARK  Name = 
REMARK  7 active torsions:
REMARK  status: ('A' for Active; 'I' for Inactive)
REMARK    1  A    between atoms: O_2  and  C_3
REMARK    2  A    between atoms: C_3  and  C_4
REMARK    3  A    between atoms: C_4  and  N_5
REMARK    4  A    between atoms: N_5  and  C_6
REMARK    5  A    between atoms: C_8  and  C_12
REMARK    6  A    between atoms: C_15  and  C_17
REMARK    7  A    between atoms: N_21  and  C_22
REMARK                            x       y       z     vdW  Elec       q    Type
REMARK                         _______ _______ _______ _____ _____    ______ ____
ROOT
ATOM     12  C   UNL     1      -3.275   0.676  24.415  0.00  0.00    +0.203 A 
ATOM     13  N   UNL     1      -3.431   1.046  23.695  0.00  0.00    -0.056 NA
ATOM     14  O   UNL     1      -4.013   1.616  23.821  0.00  0.00    -0.336 OA
ATOM     15  C   UNL     1      -4.216   1.599  24.622  0.00  0.00    +0.251 A 
ATOM     16  N   UNL     1      -3.760   1.018  24.987  0.00  0.00    -0.190 NA
ENDROOT
BRANCH  12   8
ATOM      6  C   UNL     1      -1.376  -0.389  24.578  0.00  0.00    +0.148 A 
ATOM      7  C   UNL     1      -1.922   0.217  24.453  0.00  0.00    +0.039 A 
ATOM      8  C   UNL     1      -2.729   0.070  24.540  0.00  0.00    +0.043 A 
ATOM      9  C   UNL     1      -2.990  -0.683  24.754  0.00  0.00    +0.024 A 
ATOM     10  C   UNL     1      -2.444  -1.289  24.880  0.00  0.00    +0.100 A 
ATOM     11  N   UNL     1      -1.637  -1.141  24.792  0.00  0.00    -0.228 NA
BRANCH   6   5
ATOM      5  N   UNL     1      -0.569  -0.241  24.490  0.00  0.00    -0.218 NA
BRANCH   5   4
ATOM      4  C   UNL     1      -0.191  -0.429  23.781  0.00  0.00    +0.146 C 
BRANCH   4   3
ATOM      3  C   UNL     1       0.556  -0.119  23.616  0.00  0.00    +0.166 C 
BRANCH   3   2
ATOM      1  C   UNL     1       1.662   0.032  22.725  0.00  0.00    +0.174 C 
ATOM      2  O   UNL     1       0.944  -0.327  22.919  0.00  0.00    -0.349 OA
ENDBRANCH   3   2
ENDBRANCH   4   3
ENDBRANCH   5   4
ENDBRANCH   6   5
ENDBRANCH  12   8
BRANCH  15  17
ATOM     17  C   UNL     1      -4.777   2.079  24.989  0.00  0.00    +0.138 C 
ATOM     18  C   UNL     1      -5.568   1.887  25.121  0.00  0.00    +0.027 C 
ATOM     19  C   UNL     1      -5.925   2.526  25.503  0.00  0.00    +0.019 C 
ATOM     20  C   UNL     1      -5.354   3.113  25.605  0.00  0.00    +0.072 C 
ATOM     21  N   UNL     1      -4.645   2.837  25.288  0.00  0.00    -0.268 NA
BRANCH  21  22
ATOM     22  C   UNL     1      -3.929   3.246  25.272  0.00  0.00    +0.061 C 
ATOM     23  C   UNL     1      -3.733   3.707  24.615  0.00  0.00    +0.038 C 
ATOM     24  C   UNL     1      -3.016   4.116  24.598  0.00  0.00    +0.095 C 
ATOM     25  N   UNL     1      -2.496   4.064  25.237  0.00  0.00    -0.279 N 
ATOM     26  C   UNL     1      -2.692   3.604  25.892  0.00  0.00    +0.095 C 
ATOM     27  C   UNL     1      -3.409   3.194  25.909  0.00  0.00    +0.038 C 
ATOM     28  C   UNL     1      -1.780   4.473  25.219  0.00  0.00    +0.226 C 
ATOM     29  C   UNL     1      -1.583   4.934  24.563  0.00  0.00    +0.095 C 
ATOM     30  O   UNL     1      -1.259   4.422  25.857  0.00  0.00    -0.275 OA
ENDBRANCH  21  22
ENDBRANCH  15  17
TORSDOF 7
ENDMDL
MODEL 9
REMARK VINA RESULT:      -9.8      2.209      4.397
REMARK  Name = 
REMARK  7 active torsions:
REMARK  status: ('A' for Active; 'I' for Inactive)
REMARK    1  A    between atoms: O_2  and  C_3
REMARK    2  A    between atoms: C_3  and  C_4
REMARK    3  A    between atoms: C_4  and  N_5
REMARK    4  A    between atoms: N_5  and  C_6
REMARK    5  A    between atoms: C_8  and  C_12
REMARK    6  A    between atoms: C_15  and  C_17
REMARK    7  A    between atoms: N_21  and  C_22
REMARK                            x       y       z     vdW  Elec       q    Type
REMARK                         _______ _______ _______ _____ _____    ______ ____
ROOT
ATOM     12  C   UNL     1      -1.152  -0.206  24.810  0.00  0.00    +0.203 A 
ATOM     13  N   UNL     1      -1.302  -0.341  25.609  0.00  0.00    -0.056 NA
ATOM     14  O   UNL     1      -1.935  -0.865  25.666  0.00  0.00    -0.336 OA
ATOM     15  C   UNL     1      -2.178  -1.055  24.900  0.00  0.00    +0.251 A 
ATOM     16  N   UNL     1      -1.694  -0.648  24.372  0.00  0.00    -0.190 NA
ENDROOT
BRANCH  12   8
ATOM      6  C   UNL     1       0.568   0.475  23.650  0.00  0.00    +0.148 A 
ATOM      7  C   UNL     1      -0.020  -0.015  23.958  0.00  0.00    +0.039 A 
ATOM      8  C   UNL     1      -0.563   0.283  24.502  0.00  0.00    +0.043 A 
ATOM      9  C   UNL     1      -0.518   1.073  24.739  0.00  0.00    +0.024 A 
ATOM     10  C   UNL     1       0.071   1.563  24.431  0.00  0.00    +0.100 A 
ATOM     11  N   UNL     1       0.613   1.263  23.887  0.00  0.00    -0.228 NA
BRANCH   6   5
ATOM      5  N   UNL     1       1.111   0.175  23.106  0.00  0.00    -0.218 NA
BRANCH   5   4
ATOM      4  C   UNL     1       1.874   0.486  23.071  0.00  0.00    +0.146 C 
BRANCH   4   3
ATOM      3  C   UNL     1       2.461   0.094  22.643  0.00  0.00    +0.166 C 
BRANCH   3   2
ATOM      1  C   UNL     1       3.839   0.468  22.611  0.00  0.00    +0.174 C 
ATOM      2  O   UNL     1       3.077   0.522  22.300  0.00  0.00    -0.349 OA
ENDBRANCH   3   2
ENDBRANCH   4   3
ENDBRANCH   5   4
ENDBRANCH   6   5
ENDBRANCH  12   8
BRANCH  15  17
ATOM     17  C   UNL     1      -2.797  -1.562  24.700  0.00  0.00    +0.138 C 
ATOM     18  C   UNL     1      -2.740  -2.378  24.594  0.00  0.00    +0.027 C 
ATOM     19  C   UNL     1      -3.490  -2.662  24.399  0.00  0.00    +0.019 C 
ATOM     20  C   UNL     1      -4.009  -2.022  24.385  0.00  0.00    +0.072 C 
ATOM     21  N   UNL     1      -3.582  -1.342  24.570  0.00  0.00    -0.268 NA
BRANCH  21  22
ATOM     22  C   UNL     1      -3.884  -0.576  24.618  0.00  0.00    +0.061 C 
ATOM     23  C   UNL     1      -4.192  -0.299  25.332  0.00  0.00    +0.038 C 
ATOM     24  C   UNL     1      -4.494   0.468  25.381  0.00  0.00    +0.095 C 
ATOM     25  N   UNL     1      -4.488   0.957  24.716  0.00  0.00    -0.279 N 
ATOM     26  C   UNL     1      -4.180   0.680  24.003  0.00  0.00    +0.095 C 
ATOM     27  C   UNL     1      -3.878  -0.087  23.954  0.00  0.00    +0.038 C 
ATOM     28  C   UNL     1      -4.790   1.723  24.765  0.00  0.00    +0.226 C 
ATOM     29  C   UNL     1      -5.098   2.000  25.479  0.00  0.00    +0.095 C 
ATOM     30  O   UNL     1      -4.785   2.212  24.101  0.00  0.00    -0.275 OA
ENDBRANCH  21  22
ENDBRANCH  15  17
TORSDOF 7
ENDMDL
MODEL 10
REMARK VINA RESULT:      -9.6      1.445      4.010
REMARK  Name = 
REMARK  7 active torsions:
REMARK  status: ('A' for Active; 'I' for Inactive)
REMARK    1  A    between atoms: O_2  and  C_3
REMARK    2  A    between atoms: C_3  and  C_4
REMARK    3  A    between atoms: C_4  and  N_5
REMARK    4  A    between atoms: N_5  and  C_6
REMARK    5  A    between atoms: C_8  and  C_12
REMARK    6  A    between atoms: C_15  and  C_17
REMARK    7  A    between atoms: N_21  and  C_22
REMARK                            x       y       z     vdW  Elec       q    Type
REMARK                         _______ _______ _______ _____ _____    ______ ____
ROOT
ATOM     12  C   UNL     1      -2.233  -0.453  24.737  0.00  0.00    +0.203 A 
ATOM     13  N   UNL     1      -1.777  -0.649  25.395  0.00  0.00    -0.056 NA
ATOM     14  O   UNL     1      -0.990  -0.478  25.221  0.00  0.00    -0.336 OA
ATOM     15  C   UNL     1      -0.959  -0.177  24.453  0.00  0.00    +0.251 A 
ATOM     16  N   UNL     1      -1.727  -0.162  24.155  0.00  0.00    -0.190 NA
ENDROOT
BRANCH  12   8
ATOM      6  C   UNL     1      -4.369  -0.053  24.942  0.00  0.00    +0.148 A 
ATOM      7  C   UNL     1      -3.551   0.029  25.007  0.00  0.00    +0.039 A 
ATOM      8  C   UNL     1      -3.051  -0.535  24.671  0.00  0.00    +0.043 A 
ATOM      9  C   UNL     1      -3.371  -1.181  24.269  0.00  0.00    +0.024 A 
ATOM     10  C   UNL     1      -4.189  -1.263  24.203  0.00  0.00    +0.100 A 
ATOM     11  N   UNL     1      -4.688  -0.698  24.540  0.00  0.00    -0.228 NA
BRANCH   6   5
ATOM      5  N   UNL     1      -4.868   0.512  25.279  0.00  0.00    -0.218 NA
BRANCH   5   4
ATOM      4  C   UNL     1      -4.885   1.279  24.977  0.00  0.00    +0.146 C 
BRANCH   4   3
ATOM      3  C   UNL     1      -5.367   1.850  25.326  0.00  0.00    +0.166 C 
BRANCH   3   2
ATOM      1  C   UNL     1      -5.452   3.262  25.527  0.00  0.00    +0.174 C 
ATOM      2  O   UNL     1      -5.390   2.615  25.018  0.00  0.00    -0.349 OA
ENDBRANCH   3   2
ENDBRANCH   4   3
ENDBRANCH   5   4
ENDBRANCH   6   5
ENDBRANCH  12   8
BRANCH  15  17
ATOM     17  C   UNL     1      -0.278   0.066  24.056  0.00  0.00    +0.138 C 
ATOM     18  C   UNL     1       0.226  -0.416  23.617  0.00  0.00    +0.027 C 
ATOM     19  C   UNL     1       0.834   0.055  23.318  0.00  0.00    +0.019 C 
ATOM     20  C   UNL     1       0.705   0.829  23.573  0.00  0.00    +0.072 C 
ATOM     21  N   UNL     1       0.019   0.837  24.029  0.00  0.00    -0.268 NA
BRANCH  21  22
ATOM     22  C   UNL     1      -0.315   1.497  24.394  0.00  0.00    +0.061 C 
ATOM     23  C   UNL     1      -0.815   1.995  23.966  0.00  0.00    +0.038 C 
ATOM     24  C   UNL     1      -1.150   2.655  24.331  0.00  0.00    +0.095 C 
ATOM     25  N   UNL     1      -0.984   2.818  25.123  0.00  0.00    -0.279 N 
ATOM     26  C   UNL     1      -0.484   2.320  25.550  0.00  0.00    +0.095 C 
ATOM     27  C   UNL     1      -0.150   1.659  25.185  0.00  0.00    +0.038 C 
ATOM     28  C   UNL     1      -1.318   3.478  25.487  0.00  0.00    +0.226 C 
ATOM     29  C   UNL     1      -1.818   3.976  25.060  0.00  0.00    +0.095 C 
ATOM     30  O   UNL     1      -1.153   3.641  26.279  0.00  0.00    -0.275 OA
ENDBRANCH  21  22
ENDBRANCH  15  17
TORSDOF 7
ENDMDL
