MODEL 1
REMARK VINA RESULT:     -11.2      0.000      0.000
REMARK  Name = 
REMARK  8 active torsions:
REMARK  status: ('A' for Active; 'I' for Inactive)
REMARK    1  A    between atoms: N_2  and  C_4
REMARK    2  A    between atoms: C_7  and  C_10
REMARK    3  A    between atoms: N_14  and  C_15
REMARK    4  A    between atoms: C_19  and  N_23
REMARK    5  A    between atoms: C_24  and  C_26
REMARK    6  A    between atoms: C_26  and  C_27
REMARK    7  A    between atoms: C_27  and  C_30
REMARK    8  A    between atoms: C_30  and  C_31
REMARK                            x       y       z     vdW  Elec       q    Type
REMARK                         _______ _______ _______ _____ _____    ______ ____
ROOT
ATOM     15  C   UNL     1      -1.546   2.758  24.465  0.00  0.00    +0.167 C 
ATOM     16  C   UNL     1      -1.913   2.580  23.748  0.00  0.00    +0.169 C 
ATOM     17  O   UNL     1      -1.940   1.760  23.673  0.00  0.00    -0.350 OA
ATOM     18  C   UNL     1      -1.590   1.430  24.343  0.00  0.00    +0.167 C 
ATOM     19  C   UNL     1      -1.390   0.720  24.711  0.00  0.00    +0.154 C 
ATOM     20  C   UNL     1      -1.024   0.898  25.428  0.00  0.00    +0.166 C 
ATOM     21  O   UNL     1      -0.997   1.718  25.503  0.00  0.00    -0.350 OA
ATOM     22  C   UNL     1      -1.347   2.048  24.832  0.00  0.00    +0.169 C 
ENDROOT
BRANCH  15  14
ATOM     10  C   UNL     1      -1.969   4.024  25.081  0.00  0.00    +0.184 A 
ATOM     11  N   UNL     1      -1.586   4.719  25.309  0.00  0.00    -0.108 NA
ATOM     12  N   UNL     1      -0.784   4.639  25.130  0.00  0.00    -0.023 NA
ATOM     13  N   UNL     1      -0.672   3.895  24.792  0.00  0.00    -0.043 NA
ATOM     14  N   UNL     1      -1.404   3.515  24.762  0.00  0.00    -0.210 N 
BRANCH  10   7
ATOM      4  C   UNL     1      -4.386   3.554  25.315  0.00  0.00    +0.048 A 
ATOM      5  C   UNL     1      -3.887   3.479  25.967  0.00  0.00    +0.015 A 
ATOM      6  C   UNL     1      -3.081   3.636  25.890  0.00  0.00    +0.004 A 
ATOM      7  C   UNL     1      -2.775   3.867  25.159  0.00  0.00    +0.037 A 
ATOM      8  C   UNL     1      -3.274   3.942  24.507  0.00  0.00    +0.004 A 
ATOM      9  C   UNL     1      -4.080   3.785  24.585  0.00  0.00    +0.015 A 
BRANCH   4   2
ATOM      1  C   UNL     1      -5.714   4.004  25.589  0.00  0.00    +0.112 C 
ATOM      2  N   UNL     1      -5.193   3.396  25.393  0.00  0.00    -0.304 N 
ATOM      3  C   UNL     1      -5.477   2.631  25.274  0.00  0.00    +0.112 C 
ENDBRANCH   4   2
ENDBRANCH  10   7
ENDBRANCH  15  14
BRANCH  19  23
ATOM     23  N   UNL     1      -1.533  -0.037  24.414  0.00  0.00    -0.202 NA
ATOM     24  C   UNL     1      -1.994  -0.569  24.844  0.00  0.00    +0.241 C 
ATOM     25  O   UNL     1      -2.313  -0.345  25.571  0.00  0.00    -0.273 OA
BRANCH  24  26
ATOM     26  C   UNL     1      -2.136  -1.326  24.547  0.00  0.00    +0.087 C 
BRANCH  26  27
ATOM     27  C   UNL     1      -2.854  -1.701  24.701  0.00  0.00    +0.019 C 
ATOM     28  C   UNL     1      -2.496  -2.140  25.301  0.00  0.00    +0.001 C 
ATOM     29  C   UNL     1      -3.213  -1.263  24.101  0.00  0.00    +0.001 C 
BRANCH  27  30
ATOM     30  C   UNL     1      -3.572  -2.077  24.855  0.00  0.00    +0.115 C 
BRANCH  30  31
ATOM     31  C   UNL     1      -3.848  -2.665  24.346  0.00  0.00    +0.365 C 
ATOM     32  O   UNL     1      -4.408  -2.480  23.768  0.00  0.00    -0.246 OA
ATOM     33  O   UNL     1      -3.564  -3.436  24.416  0.00  0.00    -0.246 OA
ENDBRANCH  30  31
ENDBRANCH  27  30
ENDBRANCH  26  27
ENDBRANCH  24  26
ENDBRANCH  19  23
TORSDOF 8
ENDMDL
MODEL 2
REMARK VINA RESULT:     -10.9      1.478      2.926
REMARK  Name = 
REMARK  8 active torsions:
REMARK  status: ('A' for Active; 'I' for Inactive)
REMARK    1  A    between atoms: N_2  and  C_4
REMARK    2  A    between atoms: C_7  and  C_10
REMARK    3  A    between atoms: N_14  and  C_15
REMARK    4  A    between atoms: C_19  and  N_23
REMARK    5  A    between atoms: C_24  and  C_26
REMARK    6  A    between atoms: C_26  and  C_27
REMARK    7  A    between atoms: C_27  and  C_30
REMARK    8  A    between atoms: C_30  and  C_31
REMARK                            x       y       z     vdW  Elec       q    Type
REMARK                         _______ _______ _______ _____ _____    ______ ____
ROOT
ATOM     15  C   UNL     1      -4.690   2.490  24.777  0.00  0.00    +0.167 C 
ATOM     16  C   UNL     1      -4.277   2.505  24.063  0.00  0.00    +0.169 C 
ATOM     17  O   UNL     1      -4.083   1.729  23.865  0.00  0.00    -0.350 OA
ATOM     18  C   UNL     1      -4.375   1.233  24.455  0.00  0.00    +0.167 C 
ATOM     19  C   UNL     1      -4.437   0.448  24.699  0.00  0.00    +0.154 C 
ATOM     20  C   UNL     1      -4.850   0.432  25.412  0.00  0.00    +0.166 C 
ATOM     21  O   UNL     1      -5.044   1.209  25.610  0.00  0.00    -0.350 OA
ATOM     22  C   UNL     1      -4.751   1.704  25.019  0.00  0.00    +0.169 C 
ENDROOT
BRANCH  15  14
ATOM     10  C   UNL     1      -4.547   3.776  25.475  0.00  0.00    +0.184 A 
ATOM     11  N   UNL     1      -5.068   4.307  25.833  0.00  0.00    -0.108 NA
ATOM     12  N   UNL     1      -5.832   4.005  25.756  0.00  0.00    -0.023 NA
ATOM     13  N   UNL     1      -5.783   3.288  25.352  0.00  0.00    -0.043 NA
ATOM     14  N   UNL     1      -4.989   3.146  25.178  0.00  0.00    -0.210 N 
BRANCH  10   7
ATOM      4  C   UNL     1      -2.091   4.029  25.321  0.00  0.00    +0.048 A 
ATOM      5  C   UNL     1      -2.432   3.730  26.011  0.00  0.00    +0.015 A 
ATOM      6  C   UNL     1      -3.251   3.646  26.062  0.00  0.00    +0.004 A 
ATOM      7  C   UNL     1      -3.728   3.860  25.424  0.00  0.00    +0.037 A 
ATOM      8  C   UNL     1      -3.387   4.159  24.735  0.00  0.00    +0.004 A 
ATOM      9  C   UNL     1      -2.568   4.244  24.684  0.00  0.00    +0.015 A 
BRANCH   4   2
ATOM      1  C   UNL     1      -0.944   4.840  25.059  0.00  0.00    +0.112 C 
ATOM      2  N   UNL     1      -1.271   4.114  25.270  0.00  0.00    -0.304 N 
ATOM      3  C   UNL     1      -0.779   3.470  25.430  0.00  0.00    +0.112 C 
ENDBRANCH   4   2
ENDBRANCH  10   7
ENDBRANCH  15  14
BRANCH  19  23
ATOM     23  N   UNL     1      -4.138  -0.209  24.298  0.00  0.00    -0.202 NA
ATOM     24  C   UNL     1      -3.863  -0.861  24.721  0.00  0.00    +0.241 C 
ATOM     25  O   UNL     1      -3.888  -0.858  25.546  0.00  0.00    -0.273 OA
BRANCH  24  26
ATOM     26  C   UNL     1      -3.564  -1.517  24.320  0.00  0.00    +0.087 C 
BRANCH  26  27
ATOM     27  C   UNL     1      -2.967  -1.973  24.662  0.00  0.00    +0.019 C 
ATOM     28  C   UNL     1      -2.416  -1.386  24.482  0.00  0.00    +0.001 C 
ATOM     29  C   UNL     1      -3.518  -2.560  24.843  0.00  0.00    +0.001 C 
BRANCH  27  30
ATOM     30  C   UNL     1      -2.370  -2.428  25.004  0.00  0.00    +0.115 C 
BRANCH  30  31
ATOM     31  C   UNL     1      -1.680  -2.588  24.581  0.00  0.00    +0.365 C 
ATOM     32  O   UNL     1      -0.954  -2.307  24.856  0.00  0.00    -0.246 OA
ATOM     33  O   UNL     1      -1.716  -3.029  23.885  0.00  0.00    -0.246 OA
ENDBRANCH  30  31
ENDBRANCH  27  30
ENDBRANCH  26  27
ENDBRANCH  24  26
ENDBRANCH  19  23
TORSDOF 8
ENDMDL
MODEL 3
REMARK VINA RESULT:      -9.3      1.741      4.859
REMARK  Name = 
REMARK  8 active torsions:
REMARK  status: ('A' for Active; 'I' for Inactive)
REMARK    1  A    between atoms: N_2  and  C_4
REMARK    2  A    between atoms: C_7  and  C_10
REMARK    3  A    between atoms: N_14  and  C_15
REMARK    4  A    between atoms: C_19  and  N_23
REMARK    5  A    between atoms: C_24  and  C_26
REMARK    6  A    between atoms: C_26  and  C_27
REMARK    7  A    between atoms: C_27  and  C_30
REMARK    8  A    between atoms: C_30  and  C_31
REMARK                            x       y       z     vdW  Elec       q    Type
REMARK                         _______ _______ _______ _____ _____    ______ ____
ROOT
ATOM     15  C   UNL     1      -0.618   0.779  24.537  0.00  0.00    +0.167 C 
ATOM     16  C   UNL     1      -0.762   0.804  25.349  0.00  0.00    +0.169 C 
ATOM     17  O   UNL     1      -1.279   1.429  25.496  0.00  0.00    -0.350 OA
ATOM     18  C   UNL     1      -1.455   1.790  24.777  0.00  0.00    +0.167 C 
ATOM     19  C   UNL     1      -1.884   2.399  24.422  0.00  0.00    +0.154 C 
ATOM     20  C   UNL     1      -1.740   2.374  23.610  0.00  0.00    +0.166 C 
ATOM     21  O   UNL     1      -1.223   1.749  23.463  0.00  0.00    -0.350 OA
ATOM     22  C   UNL     1      -1.047   1.388  24.184  0.00  0.00    +0.169 C 
ENDROOT
BRANCH  15  14
ATOM     10  C   UNL     1      -0.283  -0.566  24.045  0.00  0.00    +0.184 A 
ATOM     11  N   UNL     1       0.348  -0.894  23.626  0.00  0.00    -0.108 NA
ATOM     12  N   UNL     1       0.890  -0.292  23.470  0.00  0.00    -0.023 NA
ATOM     13  N   UNL     1       0.595   0.408  23.792  0.00  0.00    -0.043 NA
ATOM     14  N   UNL     1      -0.131   0.238  24.148  0.00  0.00    -0.210 N 
BRANCH  10   7
ATOM      4  C   UNL     1      -2.282  -1.781  24.851  0.00  0.00    +0.048 A 
ATOM      5  C   UNL     1      -1.620  -1.707  25.339  0.00  0.00    +0.015 A 
ATOM      6  C   UNL     1      -0.954  -1.302  25.070  0.00  0.00    +0.004 A 
ATOM      7  C   UNL     1      -0.950  -0.971  24.314  0.00  0.00    +0.037 A 
ATOM      8  C   UNL     1      -1.611  -1.046  23.827  0.00  0.00    +0.004 A 
ATOM      9  C   UNL     1      -2.277  -1.451  24.096  0.00  0.00    +0.015 A 
BRANCH   4   2
ATOM      1  C   UNL     1      -3.411  -1.867  25.723  0.00  0.00    +0.112 C 
ATOM      2  N   UNL     1      -2.949  -2.187  25.121  0.00  0.00    -0.304 N 
ATOM      3  C   UNL     1      -3.152  -2.914  24.786  0.00  0.00    +0.112 C 
ENDBRANCH   4   2
ENDBRANCH  10   7
ENDBRANCH  15  14
BRANCH  19  23
ATOM     23  N   UNL     1      -2.371   2.939  24.811  0.00  0.00    -0.202 NA
ATOM     24  C   UNL     1      -3.153   3.040  24.567  0.00  0.00    +0.241 C 
ATOM     25  O   UNL     1      -3.448   2.602  23.934  0.00  0.00    -0.273 OA
BRANCH  24  26
ATOM     26  C   UNL     1      -3.640   3.581  24.957  0.00  0.00    +0.087 C 
BRANCH  26  27
ATOM     27  C   UNL     1      -4.446   3.425  25.038  0.00  0.00    +0.019 C 
ATOM     28  C   UNL     1      -4.305   3.077  25.772  0.00  0.00    +0.001 C 
ATOM     29  C   UNL     1      -4.588   3.774  24.303  0.00  0.00    +0.001 C 
BRANCH  27  30
ATOM     30  C   UNL     1      -5.252   3.270  25.119  0.00  0.00    +0.115 C 
BRANCH  30  31
ATOM     31  C   UNL     1      -5.670   3.580  25.760  0.00  0.00    +0.365 C 
ATOM     32  O   UNL     1      -5.863   3.094  26.399  0.00  0.00    -0.246 OA
ATOM     33  O   UNL     1      -5.894   4.374  25.761  0.00  0.00    -0.246 OA
ENDBRANCH  30  31
ENDBRANCH  27  30
ENDBRANCH  26  27
ENDBRANCH  24  26
ENDBRANCH  19  23
TORSDOF 8
ENDMDL
MODEL 4
REMARK VINA RESULT:      -9.3      2.002      5.725
REMARK  Name = 
REMARK  8 active torsions:
REMARK  status: ('A' for Active; 'I' for Inactive)
REMARK    1  A    between atoms: N_2  and  C_4
REMARK    2  A    between atoms: C_7  and  C_10
REMARK    3  A    between atoms: N_14  and  C_15
REMARK    4  A    between atoms: C_19  and  N_23
REMARK    5  A    between atoms: C_24  and  C_26
REMARK    6  A    between atoms: C_26  and  C_27
REMARK    7  A    between atoms: C_27  and  C_30
REMARK    8  A    between atoms: C_30  and  C_31
REMARK                            x       y       z     vdW  Elec       q    Type
REMARK                         _______ _______ _______ _____ _____    ______ ____
ROOT
ATOM     15  C   UNL     1      -3.826  -0.277  23.940  0.00  0.00    +0.167 C 
ATOM     16  C   UNL     1      -3.312   0.002  23.359  0.00  0.00    +0.169 C 
ATOM     17  O   UNL     1      -3.249   0.820  23.446  0.00  0.00    -0.350 OA
ATOM     18  C   UNL     1      -3.723   1.046  24.081  0.00  0.00    +0.167 C 
ATOM     19  C   UNL     1      -3.978   1.691  24.528  0.00  0.00    +0.154 C 
ATOM     20  C   UNL     1      -4.492   1.412  25.110  0.00  0.00    +0.166 C 
ATOM     21  O   UNL     1      -4.555   0.594  25.022  0.00  0.00    -0.350 OA
ATOM     22  C   UNL     1      -4.080   0.368  24.386  0.00  0.00    +0.169 C 
ENDROOT
BRANCH  15  14
ATOM     10  C   UNL     1      -3.554  -1.673  24.314  0.00  0.00    +0.184 A 
ATOM     11  N   UNL     1      -4.002  -2.365  24.350  0.00  0.00    -0.108 NA
ATOM     12  N   UNL     1      -4.772  -2.183  24.114  0.00  0.00    -0.023 NA
ATOM     13  N   UNL     1      -4.799  -1.379  23.931  0.00  0.00    -0.043 NA
ATOM     14  N   UNL     1      -4.047  -1.064  24.055  0.00  0.00    -0.210 N 
BRANCH  10   7
ATOM      4  C   UNL     1      -1.155  -1.462  24.881  0.00  0.00    +0.048 A 
ATOM      5  C   UNL     1      -1.381  -1.661  24.112  0.00  0.00    +0.015 A 
ATOM      6  C   UNL     1      -2.181  -1.731  23.923  0.00  0.00    +0.004 A 
ATOM      7  C   UNL     1      -2.754  -1.602  24.503  0.00  0.00    +0.037 A 
ATOM      8  C   UNL     1      -2.528  -1.404  25.270  0.00  0.00    +0.004 A 
ATOM      9  C   UNL     1      -1.728  -1.333  25.459  0.00  0.00    +0.015 A 
BRANCH   4   2
ATOM      1  C   UNL     1       0.089  -0.769  24.761  0.00  0.00    +0.112 C 
ATOM      2  N   UNL     1      -0.354  -1.392  25.070  0.00  0.00    -0.304 N 
ATOM      3  C   UNL     1       0.001  -1.945  25.568  0.00  0.00    +0.112 C 
ENDBRANCH   4   2
ENDBRANCH  10   7
ENDBRANCH  15  14
BRANCH  19  23
ATOM     23  N   UNL     1      -3.757   2.478  24.413  0.00  0.00    -0.202 NA
ATOM     24  C   UNL     1      -3.386   2.895  25.021  0.00  0.00    +0.241 C 
ATOM     25  O   UNL     1      -3.235   2.526  25.743  0.00  0.00    -0.273 OA
BRANCH  24  26
ATOM     26  C   UNL     1      -3.165   3.682  24.906  0.00  0.00    +0.087 C 
BRANCH  26  27
ATOM     27  C   UNL     1      -2.467   3.968  25.241  0.00  0.00    +0.019 C 
ATOM     28  C   UNL     1      -2.048   3.731  24.571  0.00  0.00    +0.001 C 
ATOM     29  C   UNL     1      -2.886   4.205  25.912  0.00  0.00    +0.001 C 
BRANCH  27  30
ATOM     30  C   UNL     1      -1.770   4.253  25.576  0.00  0.00    +0.115 C 
BRANCH  30  31
ATOM     31  C   UNL     1      -1.367   4.880  25.220  0.00  0.00    +0.365 C 
ATOM     32  O   UNL     1      -0.640   4.748  24.854  0.00  0.00    -0.246 OA
ATOM     33  O   UNL     1      -1.693   5.638  25.232  0.00  0.00    -0.246 OA
ENDBRANCH  30  31
ENDBRANCH  27  30
ENDBRANCH  26  27
ENDBRANCH  24  26
ENDBRANCH  19  23
TORSDOF 8
ENDMDL
