MODEL 1
REMARK VINA RESULT:     -11.3      0.000      0.000
REMARK  Name = 
REMARK  5 active torsions:
REMARK  status: ('A' for Active; 'I' for Inactive)
REMARK    1  A    between atoms: C_5  and  C_6
REMARK    2  A    between atoms: C_6  and  N_7
REMARK    3  A    between atoms: C_12  and  O_14
REMARK    4  A    between atoms: O_14  and  C_15
REMARK    5  A    between atoms: C_18  and  C_21
REMARK                            x       y       z     vdW  Elec       q    Type
REMARK                         _______ _______ _______ _____ _____    ______ ____
ROOT
ATOM      7  N   UNL     1      -3.410   2.625  24.606  0.00  0.00    -0.261 NA
ATOM      8  C   UNL     1      -4.010   2.903  25.098  0.00  0.00    +0.105 C 
ATOM      9  C   UNL     1      -4.712   2.527  25.314  0.00  0.00    +0.160 C 
ATOM     10  O   UNL     1      -4.987   1.782  25.090  0.00  0.00    -0.348 OA
ATOM     11  C   UNL     1      -4.628   1.229  24.596  0.00  0.00    +0.187 C 
ATOM     12  C   UNL     1      -3.904   1.283  24.203  0.00  0.00    +0.213 C 
ATOM     13  C   UNL     1      -3.362   1.904  24.207  0.00  0.00    +0.119 C 
ENDROOT
BRANCH   7   6
ATOM      6  C   UNL     1      -2.771   3.137  24.498  0.00  0.00    +0.138 C 
BRANCH   6   5
ATOM      1  C   UNL     1      -0.299   2.437  25.852  0.00  0.00    +0.072 C 
ATOM      2  C   UNL     1      -1.008   2.811  25.656  0.00  0.00    +0.123 A 
ATOM      3  C   UNL     1      -1.352   3.441  26.063  0.00  0.00    +0.036 A 
ATOM      4  C   UNL     1      -2.054   3.640  25.678  0.00  0.00    +0.037 A 
ATOM      5  C   UNL     1      -2.145   3.133  25.034  0.00  0.00    +0.139 A 
ATOM     25  O   UNL     1      -1.498   2.620  25.021  0.00  0.00    -0.461 OA
ENDBRANCH   6   5
ENDBRANCH   7   6
BRANCH  12  14
ATOM     14  O   UNL     1      -3.695   0.629  23.745  0.00  0.00    -0.460 OA
BRANCH  14  15
ATOM     15  C   UNL     1      -3.643  -0.117  24.090  0.00  0.00    +0.225 A 
ATOM     16  C   UNL     1      -4.220  -0.686  23.932  0.00  0.00    +0.058 A 
ATOM     17  C   UNL     1      -4.169  -1.433  24.278  0.00  0.00    +0.010 A 
ATOM     18  C   UNL     1      -3.539  -1.612  24.782  0.00  0.00    +0.091 A 
ATOM     19  C   UNL     1      -2.963  -1.043  24.940  0.00  0.00    +0.106 A 
ATOM     20  N   UNL     1      -3.015  -0.297  24.594  0.00  0.00    -0.210 NA
BRANCH  18  21
ATOM     21  C   UNL     1      -3.488  -2.359  25.128  0.00  0.00    +0.420 C 
ATOM     22  F   UNL     1      -3.436  -3.107  25.474  0.00  0.00    -0.166 F 
ATOM     23  F   UNL     1      -3.361  -2.693  24.386  0.00  0.00    -0.166 F 
ATOM     24  F   UNL     1      -3.615  -2.024  25.872  0.00  0.00    -0.166 F 
ENDBRANCH  18  21
ENDBRANCH  14  15
ENDBRANCH  12  14
TORSDOF 5
ENDMDL
MODEL 2
REMARK VINA RESULT:     -11.2      1.666      2.668
REMARK  Name = 
REMARK  5 active torsions:
REMARK  status: ('A' for Active; 'I' for Inactive)
REMARK    1  A    between atoms: C_5  and  C_6
REMARK    2  A    between atoms: C_6  and  N_7
REMARK    3  A    between atoms: C_12  and  O_14
REMARK    4  A    between atoms: O_14  and  C_15
REMARK    5  A    between atoms: C_18  and  C_21
REMARK                            x       y       z     vdW  Elec       q    Type
REMARK                         _______ _______ _______ _____ _____    ______ ____
ROOT
ATOM      7  N   UNL     1      -0.502   1.627  25.379  0.00  0.00    -0.261 NA
ATOM      8  C   UNL     1      -0.054   1.731  24.695  0.00  0.00    +0.105 C 
ATOM      9  C   UNL     1       0.089   1.192  24.087  0.00  0.00    +0.160 C 
ATOM     10  O   UNL     1      -0.181   0.416  24.014  0.00  0.00    -0.348 OA
ATOM     11  C   UNL     1      -0.661  -0.012  24.530  0.00  0.00    +0.187 C 
ATOM     12  C   UNL     1      -0.988   0.229  25.247  0.00  0.00    +0.213 C 
ATOM     13  C   UNL     1      -0.918   0.959  25.626  0.00  0.00    +0.119 C 
ENDROOT
BRANCH   7   6
ATOM      6  C   UNL     1      -0.539   2.278  25.885  0.00  0.00    +0.138 C 
BRANCH   6   5
ATOM      1  C   UNL     1      -2.907   3.939  25.628  0.00  0.00    +0.072 C 
ATOM      2  C   UNL     1      -2.127   3.673  25.589  0.00  0.00    +0.123 A 
ATOM      3  C   UNL     1      -1.487   4.092  25.279  0.00  0.00    +0.036 A 
ATOM      4  C   UNL     1      -0.814   3.620  25.352  0.00  0.00    +0.037 A 
ATOM      5  C   UNL     1      -1.038   2.910  25.707  0.00  0.00    +0.139 A 
ATOM     25  O   UNL     1      -1.849   2.943  25.854  0.00  0.00    -0.461 OA
ENDBRANCH   6   5
ENDBRANCH   7   6
BRANCH  12  14
ATOM     14  O   UNL     1      -1.448  -0.334  25.639  0.00  0.00    -0.460 OA
BRANCH  14  15
ATOM     15  C   UNL     1      -2.107  -0.660  25.266  0.00  0.00    +0.225 A 
ATOM     16  C   UNL     1      -2.840  -0.285  25.323  0.00  0.00    +0.058 A 
ATOM     17  C   UNL     1      -3.501  -0.611  24.950  0.00  0.00    +0.010 A 
ATOM     18  C   UNL     1      -3.426  -1.313  24.520  0.00  0.00    +0.091 A 
ATOM     19  C   UNL     1      -2.694  -1.686  24.464  0.00  0.00    +0.106 A 
ATOM     20  N   UNL     1      -2.035  -1.360  24.837  0.00  0.00    -0.210 NA
BRANCH  18  21
ATOM     21  C   UNL     1      -4.086  -1.639  24.147  0.00  0.00    +0.420 C 
ATOM     22  F   UNL     1      -4.747  -1.965  23.774  0.00  0.00    -0.166 F 
ATOM     23  F   UNL     1      -4.113  -2.234  24.717  0.00  0.00    -0.166 F 
ATOM     24  F   UNL     1      -4.059  -1.042  23.578  0.00  0.00    -0.166 F 
ENDBRANCH  18  21
ENDBRANCH  14  15
ENDBRANCH  12  14
TORSDOF 5
ENDMDL
MODEL 3
REMARK VINA RESULT:     -11.2      1.473      2.610
REMARK  Name = 
REMARK  5 active torsions:
REMARK  status: ('A' for Active; 'I' for Inactive)
REMARK    1  A    between atoms: C_5  and  C_6
REMARK    2  A    between atoms: C_6  and  N_7
REMARK    3  A    between atoms: C_12  and  O_14
REMARK    4  A    between atoms: O_14  and  C_15
REMARK    5  A    between atoms: C_18  and  C_21
REMARK                            x       y       z     vdW  Elec       q    Type
REMARK                         _______ _______ _______ _____ _____    ______ ____
ROOT
ATOM      7  N   UNL     1      -1.802   1.758  24.860  0.00  0.00    -0.261 NA
ATOM      8  C   UNL     1      -1.317   1.951  24.222  0.00  0.00    +0.105 C 
ATOM      9  C   UNL     1      -0.771   1.474  23.828  0.00  0.00    +0.160 C 
ATOM     10  O   UNL     1      -0.575   0.686  23.977  0.00  0.00    -0.348 OA
ATOM     11  C   UNL     1      -0.878   0.181  24.554  0.00  0.00    +0.187 C 
ATOM     12  C   UNL     1      -1.450   0.339  25.126  0.00  0.00    +0.213 C 
ATOM     13  C   UNL     1      -1.862   1.040  25.263  0.00  0.00    +0.119 C 
ENDROOT
BRANCH   7   6
ATOM      6  C   UNL     1      -2.294   2.363  25.132  0.00  0.00    +0.138 C 
BRANCH   6   5
ATOM      1  C   UNL     1      -5.148   2.202  24.620  0.00  0.00    +0.072 C 
ATOM      2  C   UNL     1      -4.349   2.399  24.557  0.00  0.00    +0.123 A 
ATOM      3  C   UNL     1      -4.014   2.887  23.982  0.00  0.00    +0.036 A 
ATOM      4  C   UNL     1      -3.203   2.933  24.127  0.00  0.00    +0.037 A 
ATOM      5  C   UNL     1      -3.037   2.473  24.792  0.00  0.00    +0.139 A 
ATOM     25  O   UNL     1      -3.745   2.143  25.057  0.00  0.00    -0.461 OA
ENDBRANCH   6   5
ENDBRANCH   7   6
BRANCH  12  14
ATOM     14  O   UNL     1      -1.636  -0.289  25.629  0.00  0.00    -0.460 OA
BRANCH  14  15
ATOM     15  C   UNL     1      -2.130  -0.895  25.368  0.00  0.00    +0.225 A 
ATOM     16  C   UNL     1      -2.917  -0.921  25.615  0.00  0.00    +0.058 A 
ATOM     17  C   UNL     1      -3.412  -1.528  25.353  0.00  0.00    +0.010 A 
ATOM     18  C   UNL     1      -3.118  -2.108  24.844  0.00  0.00    +0.091 A 
ATOM     19  C   UNL     1      -2.332  -2.081  24.597  0.00  0.00    +0.106 A 
ATOM     20  N   UNL     1      -1.838  -1.475  24.859  0.00  0.00    -0.210 NA
BRANCH  18  21
ATOM     21  C   UNL     1      -3.613  -2.715  24.582  0.00  0.00    +0.420 C 
ATOM     22  F   UNL     1      -4.108  -3.321  24.321  0.00  0.00    -0.166 F 
ATOM     23  F   UNL     1      -3.744  -2.304  23.880  0.00  0.00    -0.166 F 
ATOM     24  F   UNL     1      -3.481  -3.125  25.286  0.00  0.00    -0.166 F 
ENDBRANCH  18  21
ENDBRANCH  14  15
ENDBRANCH  12  14
TORSDOF 5
ENDMDL
MODEL 4
REMARK VINA RESULT:     -10.9      2.928      5.171
REMARK  Name = 
REMARK  5 active torsions:
REMARK  status: ('A' for Active; 'I' for Inactive)
REMARK    1  A    between atoms: C_5  and  C_6
REMARK    2  A    between atoms: C_6  and  N_7
REMARK    3  A    between atoms: C_12  and  O_14
REMARK    4  A    between atoms: O_14  and  C_15
REMARK    5  A    between atoms: C_18  and  C_21
REMARK                            x       y       z     vdW  Elec       q    Type
REMARK                         _______ _______ _______ _____ _____    ______ ____
ROOT
ATOM      7  N   UNL     1      -2.466   0.023  25.260  0.00  0.00    -0.261 NA
ATOM      8  C   UNL     1      -1.903  -0.418  25.670  0.00  0.00    +0.105 C 
ATOM      9  C   UNL     1      -1.085  -0.315  25.690  0.00  0.00    +0.160 C 
ATOM     10  O   UNL     1      -0.628   0.254  25.304  0.00  0.00    -0.348 OA
ATOM     11  C   UNL     1      -0.877   0.860  24.804  0.00  0.00    +0.187 C 
ATOM     12  C   UNL     1      -1.644   1.047  24.566  0.00  0.00    +0.213 C 
ATOM     13  C   UNL     1      -2.351   0.676  24.768  0.00  0.00    +0.119 C 
ENDROOT
BRANCH   7   6
ATOM      6  C   UNL     1      -3.249  -0.220  25.354  0.00  0.00    +0.138 C 
BRANCH   6   5
ATOM      1  C   UNL     1      -3.797  -2.843  24.235  0.00  0.00    +0.072 C 
ATOM      2  C   UNL     1      -3.804  -2.029  24.365  0.00  0.00    +0.123 A 
ATOM      3  C   UNL     1      -4.236  -1.472  23.934  0.00  0.00    +0.036 A 
ATOM      4  C   UNL     1      -4.080  -0.727  24.252  0.00  0.00    +0.037 A 
ATOM      5  C   UNL     1      -3.553  -0.823  24.880  0.00  0.00    +0.139 A 
ATOM     25  O   UNL     1      -3.383  -1.627  24.949  0.00  0.00    -0.461 OA
ENDBRANCH   6   5
ENDBRANCH   7   6
BRANCH  12  14
ATOM     14  O   UNL     1      -1.713   1.694  24.056  0.00  0.00    -0.460 OA
BRANCH  14  15
ATOM     15  C   UNL     1      -1.668   2.461  24.354  0.00  0.00    +0.225 A 
ATOM     16  C   UNL     1      -0.936   2.837  24.416  0.00  0.00    +0.058 A 
ATOM     17  C   UNL     1      -0.891   3.605  24.715  0.00  0.00    +0.010 A 
ATOM     18  C   UNL     1      -1.579   3.996  24.952  0.00  0.00    +0.091 A 
ATOM     19  C   UNL     1      -2.309   3.620  24.890  0.00  0.00    +0.106 A 
ATOM     20  N   UNL     1      -2.354   2.853  24.591  0.00  0.00    -0.210 NA
BRANCH  18  21
ATOM     21  C   UNL     1      -1.533   4.764  25.250  0.00  0.00    +0.420 C 
ATOM     22  F   UNL     1      -1.488   5.532  25.549  0.00  0.00    -0.166 F 
ATOM     23  F   UNL     1      -1.987   4.538  25.900  0.00  0.00    -0.166 F 
ATOM     24  F   UNL     1      -1.079   4.991  24.600  0.00  0.00    -0.166 F 
ENDBRANCH  18  21
ENDBRANCH  14  15
ENDBRANCH  12  14
TORSDOF 5
ENDMDL
MODEL 5
REMARK VINA RESULT:      -8.0     16.346     18.395
REMARK  Name = 
REMARK  5 active torsions:
REMARK  status: ('A' for Active; 'I' for Inactive)
REMARK    1  A    between atoms: C_5  and  C_6
REMARK    2  A    between atoms: C_6  and  N_7
REMARK    3  A    between atoms: C_12  and  O_14
REMARK    4  A    between atoms: O_14  and  C_15
REMARK    5  A    between atoms: C_18  and  C_21
REMARK                            x       y       z     vdW  Elec       q    Type
REMARK                         _______ _______ _______ _____ _____    ______ ____
ROOT
ATOM      7  N   UNL     1      13.750   8.102  18.477  0.00  0.00    -0.261 NA
ATOM      8  C   UNL     1      13.629   7.575  17.854  0.00  0.00    +0.105 C 
ATOM      9  C   UNL     1      12.921   7.367  17.487  0.00  0.00    +0.160 C 
ATOM     10  O   UNL     1      12.158   7.635  17.652  0.00  0.00    -0.348 OA
ATOM     11  C   UNL     1      11.916   8.177  18.224  0.00  0.00    +0.187 C 
ATOM     12  C   UNL     1      12.376   8.585  18.773  0.00  0.00    +0.213 C 
ATOM     13  C   UNL     1      13.193   8.552  18.886  0.00  0.00    +0.119 C 
ENDROOT
BRANCH   7   6
ATOM      6  C   UNL     1      14.533   8.192  18.723  0.00  0.00    +0.138 C 
BRANCH   6   5
ATOM      1  C   UNL     1      15.345   6.550  20.976  0.00  0.00    +0.072 C 
ATOM      2  C   UNL     1      15.265   6.848  20.212  0.00  0.00    +0.123 A 
ATOM      3  C   UNL     1      15.625   6.546  19.533  0.00  0.00    +0.036 A 
ATOM      4  C   UNL     1      15.394   7.012  18.892  0.00  0.00    +0.037 A 
ATOM      5  C   UNL     1      14.892   7.603  19.175  0.00  0.00    +0.139 A 
ATOM     25  O   UNL     1      14.813   7.501  19.990  0.00  0.00    -0.461 OA
ENDBRANCH   6   5
ENDBRANCH   7   6
BRANCH  12  14
ATOM     14  O   UNL     1      11.966   9.094  19.277  0.00  0.00    -0.460 OA
BRANCH  14  15
ATOM     15  C   UNL     1      11.647   8.808  19.982  0.00  0.00    +0.225 A 
ATOM     16  C   UNL     1      11.959   9.054  20.705  0.00  0.00    +0.058 A 
ATOM     17  C   UNL     1      11.640   8.768  21.411  0.00  0.00    +0.010 A 
ATOM     18  C   UNL     1      11.009   8.236  21.392  0.00  0.00    +0.091 A 
ATOM     19  C   UNL     1      10.698   7.991  20.669  0.00  0.00    +0.106 A 
ATOM     20  N   UNL     1      11.016   8.277  19.964  0.00  0.00    -0.210 NA
BRANCH  18  21
ATOM     21  C   UNL     1      10.690   7.950  22.097  0.00  0.00    +0.420 C 
ATOM     22  F   UNL     1      10.371   7.665  22.803  0.00  0.00    -0.166 F 
ATOM     23  F   UNL     1      11.079   7.233  21.982  0.00  0.00    -0.166 F 
ATOM     24  F   UNL     1      10.300   8.669  22.212  0.00  0.00    -0.166 F 
ENDBRANCH  18  21
ENDBRANCH  14  15
ENDBRANCH  12  14
TORSDOF 5
ENDMDL
MODEL 6
REMARK VINA RESULT:      -7.8     17.368     19.379
REMARK  Name = 
REMARK  5 active torsions:
REMARK  status: ('A' for Active; 'I' for Inactive)
REMARK    1  A    between atoms: C_5  and  C_6
REMARK    2  A    between atoms: C_6  and  N_7
REMARK    3  A    between atoms: C_12  and  O_14
REMARK    4  A    between atoms: O_14  and  C_15
REMARK    5  A    between atoms: C_18  and  C_21
REMARK                            x       y       z     vdW  Elec       q    Type
REMARK                         _______ _______ _______ _____ _____    ______ ____
ROOT
ATOM      7  N   UNL     1      12.588   8.592  18.683  0.00  0.00    -0.261 NA
ATOM      8  C   UNL     1      12.115   8.161  18.164  0.00  0.00    +0.105 C 
ATOM      9  C   UNL     1      12.348   7.638  17.570  0.00  0.00    +0.160 C 
ATOM     10  O   UNL     1      13.112   7.417  17.350  0.00  0.00    -0.348 OA
ATOM     11  C   UNL     1      13.831   7.664  17.668  0.00  0.00    +0.187 C 
ATOM     12  C   UNL     1      13.964   8.194  18.286  0.00  0.00    +0.213 C 
ATOM     13  C   UNL     1      13.411   8.607  18.738  0.00  0.00    +0.119 C 
ENDROOT
BRANCH   7   6
ATOM      6  C   UNL     1      12.185   9.073  19.220  0.00  0.00    +0.138 C 
BRANCH   6   5
ATOM      1  C   UNL     1      11.706   7.899  21.833  0.00  0.00    +0.072 C 
ATOM      2  C   UNL     1      11.588   8.196  21.072  0.00  0.00    +0.123 A 
ATOM      3  C   UNL     1      10.865   8.238  20.675  0.00  0.00    +0.036 A 
ATOM      4  C   UNL     1      11.001   8.572  19.933  0.00  0.00    +0.037 A 
ATOM      5  C   UNL     1      11.807   8.736  19.871  0.00  0.00    +0.139 A 
ATOM     25  O   UNL     1      12.170   8.504  20.575  0.00  0.00    -0.461 OA
ENDBRANCH   6   5
ENDBRANCH   7   6
BRANCH  12  14
ATOM     14  O   UNL     1      14.756   8.329  18.479  0.00  0.00    -0.460 OA
BRANCH  14  15
ATOM     15  C   UNL     1      15.126   7.866  19.051  0.00  0.00    +0.225 A 
ATOM     16  C   UNL     1      15.361   8.204  19.766  0.00  0.00    +0.058 A 
ATOM     17  C   UNL     1      15.732   7.740  20.340  0.00  0.00    +0.010 A 
ATOM     18  C   UNL     1      15.867   6.938  20.197  0.00  0.00    +0.091 A 
ATOM     19  C   UNL     1      15.631   6.601  19.483  0.00  0.00    +0.106 A 
ATOM     20  N   UNL     1      15.261   7.064  18.910  0.00  0.00    -0.210 NA
BRANCH  18  21
ATOM     21  C   UNL     1      16.237   6.474  20.771  0.00  0.00    +0.420 C 
ATOM     22  F   UNL     1      16.608   6.011  21.344  0.00  0.00    -0.166 F 
ATOM     23  F   UNL     1      15.501   6.261  21.074  0.00  0.00    -0.166 F 
ATOM     24  F   UNL     1      16.974   6.688  20.467  0.00  0.00    -0.166 F 
ENDBRANCH  18  21
ENDBRANCH  14  15
ENDBRANCH  12  14
TORSDOF 5
ENDMDL
MODEL 7
REMARK VINA RESULT:      -7.8     16.162     18.278
REMARK  Name = 
REMARK  5 active torsions:
REMARK  status: ('A' for Active; 'I' for Inactive)
REMARK    1  A    between atoms: C_5  and  C_6
REMARK    2  A    between atoms: C_6  and  N_7
REMARK    3  A    between atoms: C_12  and  O_14
REMARK    4  A    between atoms: O_14  and  C_15
REMARK    5  A    between atoms: C_18  and  C_21
REMARK                            x       y       z     vdW  Elec       q    Type
REMARK                         _______ _______ _______ _____ _____    ______ ____
ROOT
ATOM      7  N   UNL     1      13.190   7.587  20.521  0.00  0.00    -0.261 NA
ATOM      8  C   UNL     1      13.718   6.971  20.374  0.00  0.00    +0.105 C 
ATOM      9  C   UNL     1      14.153   6.819  19.690  0.00  0.00    +0.160 C 
ATOM     10  O   UNL     1      14.168   7.247  18.984  0.00  0.00    -0.348 OA
ATOM     11  C   UNL     1      13.752   7.931  18.789  0.00  0.00    +0.187 C 
ATOM     12  C   UNL     1      13.218   8.358  19.250  0.00  0.00    +0.213 C 
ATOM     13  C   UNL     1      12.967   8.205  20.021  0.00  0.00    +0.119 C 
ENDROOT
BRANCH   7   6
ATOM      6  C   UNL     1      12.838   7.587  21.267  0.00  0.00    +0.138 C 
BRANCH   6   5
ATOM      1  C   UNL     1      10.980   5.382  21.608  0.00  0.00    +0.072 C 
ATOM      2  C   UNL     1      11.292   6.143  21.552  0.00  0.00    +0.123 A 
ATOM      3  C   UNL     1      10.870   6.848  21.635  0.00  0.00    +0.036 A 
ATOM      4  C   UNL     1      11.398   7.474  21.538  0.00  0.00    +0.037 A 
ATOM      5  C   UNL     1      12.146   7.157  21.396  0.00  0.00    +0.139 A 
ATOM     25  O   UNL     1      12.080   6.335  21.405  0.00  0.00    -0.461 OA
ENDBRANCH   6   5
ENDBRANCH   7   6
BRANCH  12  14
ATOM     14  O   UNL     1      12.890   9.026  18.894  0.00  0.00    -0.460 OA
BRANCH  14  15
ATOM     15  C   UNL     1      12.368   8.942  18.261  0.00  0.00    +0.225 A 
ATOM     16  C   UNL     1      12.625   9.094  17.492  0.00  0.00    +0.058 A 
ATOM     17  C   UNL     1      12.103   9.009  16.858  0.00  0.00    +0.010 A 
ATOM     18  C   UNL     1      11.323   8.773  16.995  0.00  0.00    +0.091 A 
ATOM     19  C   UNL     1      11.067   8.622  17.764  0.00  0.00    +0.106 A 
ATOM     20  N   UNL     1      11.589   8.706  18.397  0.00  0.00    -0.210 NA
BRANCH  18  21
ATOM     21  C   UNL     1      10.801   8.689  16.361  0.00  0.00    +0.420 C 
ATOM     22  F   UNL     1      10.279   8.605  15.728  0.00  0.00    -0.166 F 
ATOM     23  F   UNL     1      10.238   8.365  16.869  0.00  0.00    -0.166 F 
ATOM     24  F   UNL     1      11.365   9.014  15.854  0.00  0.00    -0.166 F 
ENDBRANCH  18  21
ENDBRANCH  14  15
ENDBRANCH  12  14
TORSDOF 5
ENDMDL
MODEL 8
REMARK VINA RESULT:      -7.6     17.522     19.335
REMARK  Name = 
REMARK  5 active torsions:
REMARK  status: ('A' for Active; 'I' for Inactive)
REMARK    1  A    between atoms: C_5  and  C_6
REMARK    2  A    between atoms: C_6  and  N_7
REMARK    3  A    between atoms: C_12  and  O_14
REMARK    4  A    between atoms: O_14  and  C_15
REMARK    5  A    between atoms: C_18  and  C_21
REMARK                            x       y       z     vdW  Elec       q    Type
REMARK                         _______ _______ _______ _____ _____    ______ ____
ROOT
ATOM      7  N   UNL     1      12.249   8.146  20.241  0.00  0.00    -0.261 NA
ATOM      8  C   UNL     1      11.715   7.541  20.408  0.00  0.00    +0.105 C 
ATOM      9  C   UNL     1      11.849   6.835  20.814  0.00  0.00    +0.160 C 
ATOM     10  O   UNL     1      12.550   6.561  21.151  0.00  0.00    -0.348 OA
ATOM     11  C   UNL     1      13.290   6.924  21.167  0.00  0.00    +0.187 C 
ATOM     12  C   UNL     1      13.512   7.652  20.848  0.00  0.00    +0.213 C 
ATOM     13  C   UNL     1      13.049   8.196  20.436  0.00  0.00    +0.119 C 
ENDROOT
BRANCH   7   6
ATOM      6  C   UNL     1      11.943   8.788  19.821  0.00  0.00    +0.138 C 
BRANCH   6   5
ATOM      1  C   UNL     1      12.667   9.094  17.026  0.00  0.00    +0.072 C 
ATOM      2  C   UNL     1      12.249   8.907  17.712  0.00  0.00    +0.123 A 
ATOM      3  C   UNL     1      11.501   8.559  17.745  0.00  0.00    +0.036 A 
ATOM      4  C   UNL     1      11.296   8.472  18.540  0.00  0.00    +0.037 A 
ATOM      5  C   UNL     1      11.916   8.766  18.997  0.00  0.00    +0.139 A 
ATOM     25  O   UNL     1      12.505   9.035  18.486  0.00  0.00    -0.461 OA
ENDBRANCH   6   5
ENDBRANCH   7   6
BRANCH  12  14
ATOM     14  O   UNL     1      14.303   7.864  20.957  0.00  0.00    -0.460 OA
BRANCH  14  15
ATOM     15  C   UNL     1      14.897   7.463  20.551  0.00  0.00    +0.225 A 
ATOM     16  C   UNL     1      15.306   6.849  20.920  0.00  0.00    +0.058 A 
ATOM     17  C   UNL     1      15.902   6.447  20.513  0.00  0.00    +0.010 A 
ATOM     18  C   UNL     1      16.087   6.659  19.737  0.00  0.00    +0.091 A 
ATOM     19  C   UNL     1      15.677   7.273  19.369  0.00  0.00    +0.106 A 
ATOM     20  N   UNL     1      15.083   7.675  19.775  0.00  0.00    -0.210 NA
BRANCH  18  21
ATOM     21  C   UNL     1      16.682   6.257  19.331  0.00  0.00    +0.420 C 
ATOM     22  F   UNL     1      17.277   5.855  18.925  0.00  0.00    -0.166 F 
ATOM     23  F   UNL     1      16.122   5.730  19.034  0.00  0.00    -0.166 F 
ATOM     24  F   UNL     1      17.242   6.785  19.628  0.00  0.00    -0.166 F 
ENDBRANCH  18  21
ENDBRANCH  14  15
ENDBRANCH  12  14
TORSDOF 5
ENDMDL
MODEL 9
REMARK VINA RESULT:      -7.5     16.567     18.693
REMARK  Name = 
REMARK  5 active torsions:
REMARK  status: ('A' for Active; 'I' for Inactive)
REMARK    1  A    between atoms: C_5  and  C_6
REMARK    2  A    between atoms: C_6  and  N_7
REMARK    3  A    between atoms: C_12  and  O_14
REMARK    4  A    between atoms: O_14  and  C_15
REMARK    5  A    between atoms: C_18  and  C_21
REMARK                            x       y       z     vdW  Elec       q    Type
REMARK                         _______ _______ _______ _____ _____    ______ ____
ROOT
ATOM      7  N   UNL     1      14.725   7.971  19.323  0.00  0.00    -0.261 NA
ATOM      8  C   UNL     1      15.160   7.358  18.983  0.00  0.00    +0.105 C 
ATOM      9  C   UNL     1      15.375   6.634  19.315  0.00  0.00    +0.160 C 
ATOM     10  O   UNL     1      15.206   6.345  20.070  0.00  0.00    -0.348 OA
ATOM     11  C   UNL     1      14.783   6.707  20.677  0.00  0.00    +0.187 C 
ATOM     12  C   UNL     1      14.422   7.449  20.681  0.00  0.00    +0.213 C 
ATOM     13  C   UNL     1      14.396   8.012  20.078  0.00  0.00    +0.119 C 
ENDROOT
BRANCH   7   6
ATOM      6  C   UNL     1      14.602   8.631  18.843  0.00  0.00    +0.138 C 
BRANCH   6   5
ATOM      1  C   UNL     1      12.009   8.798  17.546  0.00  0.00    +0.072 C 
ATOM      2  C   UNL     1      12.817   8.695  17.673  0.00  0.00    +0.123 A 
ATOM      3  C   UNL     1      13.378   8.501  17.099  0.00  0.00    +0.036 A 
ATOM      4  C   UNL     1      14.115   8.454  17.467  0.00  0.00    +0.037 A 
ATOM      5  C   UNL     1      14.010   8.618  18.269  0.00  0.00    +0.139 A 
ATOM     25  O   UNL     1      13.208   8.767  18.396  0.00  0.00    -0.461 OA
ENDBRANCH   6   5
ENDBRANCH   7   6
BRANCH  12  14
ATOM     14  O   UNL     1      14.036   7.656  21.381  0.00  0.00    -0.460 OA
BRANCH  14  15
ATOM     15  C   UNL     1      13.219   7.568  21.442  0.00  0.00    +0.225 A 
ATOM     16  C   UNL     1      12.746   8.220  21.622  0.00  0.00    +0.058 A 
ATOM     17  C   UNL     1      11.928   8.132  21.684  0.00  0.00    +0.010 A 
ATOM     18  C   UNL     1      11.583   7.390  21.566  0.00  0.00    +0.091 A 
ATOM     19  C   UNL     1      12.056   6.740  21.386  0.00  0.00    +0.106 A 
ATOM     20  N   UNL     1      12.873   6.828  21.324  0.00  0.00    -0.210 NA
BRANCH  18  21
ATOM     21  C   UNL     1      10.765   7.302  21.628  0.00  0.00    +0.420 C 
ATOM     22  F   UNL     1       9.946   7.214  21.690  0.00  0.00    -0.166 F 
ATOM     23  F   UNL     1      10.848   7.085  22.418  0.00  0.00    -0.166 F 
ATOM     24  F   UNL     1      10.681   7.520  20.836  0.00  0.00    -0.166 F 
ENDBRANCH  18  21
ENDBRANCH  14  15
ENDBRANCH  12  14
TORSDOF 5
ENDMDL
