MODEL 1
REMARK VINA RESULT:     -11.9      0.000      0.000
REMARK  Name = 
REMARK  6 active torsions:
REMARK  status: ('A' for Active; 'I' for Inactive)
REMARK    1  A    between atoms: C_2  and  C_5
REMARK    2  A    between atoms: C_12  and  C_13
REMARK    3  A    between atoms: C_13  and  C_14
REMARK    4  A    between atoms: N_16  and  S_24
REMARK    5  A    between atoms: C_19  and  C_20
REMARK    6  A    between atoms: C_20  and  C_21
REMARK                            x       y       z     vdW  Elec       q    Type
REMARK                         _______ _______ _______ _____ _____    ______ ____
ROOT
ATOM     13  C   UNL     1      -3.811   0.195  24.332  0.00  0.00    +0.047 C 
ENDROOT
BRANCH  13  12
ATOM      5  C   UNL     1      -4.904   2.340  24.907  0.00  0.00    -0.023 A 
ATOM      6  C   UNL     1      -4.539   1.625  24.715  0.00  0.00    -0.003 A 
ATOM      7  C   UNL     1      -3.952   1.603  24.136  0.00  0.00    +0.009 A 
ATOM      8  C   UNL     1      -3.728   2.297  23.747  0.00  0.00    -0.019 A 
ATOM      9  C   UNL     1      -3.142   2.275  23.169  0.00  0.00    +0.053 C 
ATOM     10  C   UNL     1      -2.778   1.560  22.977  0.00  0.00    +0.130 C 
ATOM     11  N   UNL     1      -3.001   0.866  23.366  0.00  0.00    -0.274 NA
ATOM     12  C   UNL     1      -3.588   0.888  23.944  0.00  0.00    +0.053 C 
ATOM     28  C   UNL     1      -4.093   3.012  23.939  0.00  0.00    -0.004 A 
ATOM     29  C   UNL     1      -4.680   3.034  24.519  0.00  0.00    -0.005 A 
BRANCH   5   2
ATOM      1  C   UNL     1      -6.077   2.385  26.064  0.00  0.00    +0.004 C 
ATOM      2  C   UNL     1      -5.490   2.363  25.486  0.00  0.00    +0.019 C 
ATOM      3  C   UNL     1      -6.006   1.966  24.977  0.00  0.00    +0.004 C 
ATOM      4  C   UNL     1      -4.974   2.759  25.993  0.00  0.00    +0.004 C 
ENDBRANCH   5   2
ENDBRANCH  13  12
BRANCH  13  14
ATOM     14  C   UNL     1      -3.243  -0.372  24.524  0.00  0.00    +0.024 C 
ATOM     15  C   UNL     1      -2.528  -0.139  24.866  0.00  0.00    +0.096 C 
ATOM     16  N   UNL     1      -1.960  -0.706  25.058  0.00  0.00    -0.159 NA
ATOM     17  C   UNL     1      -2.106  -1.503  24.909  0.00  0.00    +0.095 C 
ATOM     18  C   UNL     1      -2.820  -1.736  24.568  0.00  0.00    +0.020 C 
ATOM     19  C   UNL     1      -3.389  -1.169  24.375  0.00  0.00    +0.014 C 
BRANCH  16  24
ATOM     24  S   UNL     1      -1.245  -0.474  25.399  0.00  0.00    +0.046 S 
ATOM     25  C   UNL     1      -0.531  -0.242  25.740  0.00  0.00    +0.196 C 
ATOM     26  O   UNL     1      -1.638  -0.303  26.104  0.00  0.00    -0.157 OA
ATOM     27  O   UNL     1      -0.852  -0.645  24.694  0.00  0.00    -0.157 OA
ENDBRANCH  16  24
BRANCH  19  20
ATOM     20  C   UNL     1      -4.103  -1.401  24.034  0.00  0.00    +0.114 C 
BRANCH  20  21
ATOM     21  C   UNL     1      -4.240  -2.197  23.868  0.00  0.00    +0.365 C 
ATOM     22  O   UNL     1      -4.282  -2.454  23.084  0.00  0.00    -0.246 OA
ATOM     23  O   UNL     1      -4.333  -2.737  24.484  0.00  0.00    -0.246 OA
ENDBRANCH  20  21
ENDBRANCH  19  20
ENDBRANCH  13  14
TORSDOF 6
ENDMDL
MODEL 2
REMARK VINA RESULT:     -11.6      2.193      3.606
REMARK  Name = 
REMARK  6 active torsions:
REMARK  status: ('A' for Active; 'I' for Inactive)
REMARK    1  A    between atoms: C_2  and  C_5
REMARK    2  A    between atoms: C_12  and  C_13
REMARK    3  A    between atoms: C_13  and  C_14
REMARK    4  A    between atoms: N_16  and  S_24
REMARK    5  A    between atoms: C_19  and  C_20
REMARK    6  A    between atoms: C_20  and  C_21
REMARK                            x       y       z     vdW  Elec       q    Type
REMARK                         _______ _______ _______ _____ _____    ______ ____
ROOT
ATOM     13  C   UNL     1      -1.565   0.399  24.178  0.00  0.00    +0.047 C 
ENDROOT
BRANCH  13  12
ATOM      5  C   UNL     1      -3.583  -0.906  24.772  0.00  0.00    -0.023 A 
ATOM      6  C   UNL     1      -2.910  -0.471  24.574  0.00  0.00    -0.003 A 
ATOM      7  C   UNL     1      -2.986   0.292  24.269  0.00  0.00    +0.009 A 
ATOM      8  C   UNL     1      -3.737   0.621  24.162  0.00  0.00    -0.019 A 
ATOM      9  C   UNL     1      -3.813   1.383  23.858  0.00  0.00    +0.053 C 
ATOM     10  C   UNL     1      -3.141   1.818  23.660  0.00  0.00    +0.130 C 
ATOM     11  N   UNL     1      -2.391   1.489  23.767  0.00  0.00    -0.274 NA
ATOM     12  C   UNL     1      -2.314   0.727  24.072  0.00  0.00    +0.053 C 
ATOM     28  C   UNL     1      -4.409   0.185  24.360  0.00  0.00    -0.004 A 
ATOM     29  C   UNL     1      -4.333  -0.578  24.665  0.00  0.00    -0.005 A 
BRANCH   5   2
ATOM      1  C   UNL     1      -3.430  -2.431  25.380  0.00  0.00    +0.004 C 
ATOM      2  C   UNL     1      -3.506  -1.669  25.076  0.00  0.00    +0.019 C 
ATOM      3  C   UNL     1      -3.596  -1.980  24.316  0.00  0.00    +0.004 C 
ATOM      4  C   UNL     1      -3.417  -1.357  25.834  0.00  0.00    +0.004 C 
ENDBRANCH   5   2
ENDBRANCH  13  12
BRANCH  13  14
ATOM     14  C   UNL     1      -0.925   0.883  24.369  0.00  0.00    +0.024 C 
ATOM     15  C   UNL     1      -0.996   1.439  24.976  0.00  0.00    +0.096 C 
ATOM     16  N   UNL     1      -0.356   1.924  25.167  0.00  0.00    -0.159 NA
ATOM     17  C   UNL     1       0.353   1.853  24.753  0.00  0.00    +0.095 C 
ATOM     18  C   UNL     1       0.423   1.298  24.147  0.00  0.00    +0.020 C 
ATOM     19  C   UNL     1      -0.217   0.813  23.955  0.00  0.00    +0.014 C 
BRANCH  16  24
ATOM     24  S   UNL     1      -0.427   2.480  25.773  0.00  0.00    +0.046 S 
ATOM     25  C   UNL     1      -0.497   3.035  26.379  0.00  0.00    +0.196 C 
ATOM     26  O   UNL     1      -0.452   1.870  26.328  0.00  0.00    -0.157 OA
ATOM     27  O   UNL     1      -0.402   3.089  25.217  0.00  0.00    -0.157 OA
ENDBRANCH  16  24
BRANCH  19  20
ATOM     20  C   UNL     1      -0.146   0.258  23.349  0.00  0.00    +0.114 C 
BRANCH  20  21
ATOM     21  C   UNL     1       0.584  -0.096  23.199  0.00  0.00    +0.365 C 
ATOM     22  O   UNL     1       1.078   0.212  22.613  0.00  0.00    -0.246 OA
ATOM     23  O   UNL     1       0.821  -0.755  23.633  0.00  0.00    -0.246 OA
ENDBRANCH  20  21
ENDBRANCH  19  20
ENDBRANCH  13  14
TORSDOF 6
ENDMDL
MODEL 3
REMARK VINA RESULT:     -11.5      1.956      4.176
REMARK  Name = 
REMARK  6 active torsions:
REMARK  status: ('A' for Active; 'I' for Inactive)
REMARK    1  A    between atoms: C_2  and  C_5
REMARK    2  A    between atoms: C_12  and  C_13
REMARK    3  A    between atoms: C_13  and  C_14
REMARK    4  A    between atoms: N_16  and  S_24
REMARK    5  A    between atoms: C_19  and  C_20
REMARK    6  A    between atoms: C_20  and  C_21
REMARK                            x       y       z     vdW  Elec       q    Type
REMARK                         _______ _______ _______ _____ _____    ______ ____
ROOT
ATOM     13  C   UNL     1      -3.666   0.451  24.918  0.00  0.00    +0.047 C 
ENDROOT
BRANCH  13  12
ATOM      5  C   UNL     1      -3.168  -1.946  24.552  0.00  0.00    -0.023 A 
ATOM      6  C   UNL     1      -3.334  -1.147  24.674  0.00  0.00    -0.003 A 
ATOM      7  C   UNL     1      -2.757  -0.648  24.988  0.00  0.00    +0.009 A 
ATOM      8  C   UNL     1      -2.012  -0.950  25.181  0.00  0.00    -0.019 A 
ATOM      9  C   UNL     1      -1.435  -0.452  25.495  0.00  0.00    +0.053 C 
ATOM     10  C   UNL     1      -1.601   0.346  25.617  0.00  0.00    +0.130 C 
ATOM     11  N   UNL     1      -2.345   0.648  25.425  0.00  0.00    -0.274 NA
ATOM     12  C   UNL     1      -2.922   0.150  25.110  0.00  0.00    +0.053 C 
ATOM     28  C   UNL     1      -1.846  -1.749  25.059  0.00  0.00    -0.004 A 
ATOM     29  C   UNL     1      -2.424  -2.247  24.744  0.00  0.00    -0.005 A 
BRANCH   5   2
ATOM      1  C   UNL     1      -4.322  -2.942  23.923  0.00  0.00    +0.004 C 
ATOM      2  C   UNL     1      -3.745  -2.444  24.237  0.00  0.00    +0.019 C 
ATOM      3  C   UNL     1      -3.686  -2.931  24.902  0.00  0.00    +0.004 C 
ATOM      4  C   UNL     1      -3.804  -1.957  23.574  0.00  0.00    +0.004 C 
ENDBRANCH   5   2
ENDBRANCH  13  12
BRANCH  13  14
ATOM     14  C   UNL     1      -3.730   1.170  24.520  0.00  0.00    +0.024 C 
ATOM     15  C   UNL     1      -3.200   1.356  23.915  0.00  0.00    +0.096 C 
ATOM     16  N   UNL     1      -3.264   2.075  23.518  0.00  0.00    -0.159 NA
ATOM     17  C   UNL     1      -3.857   2.609  23.724  0.00  0.00    +0.095 C 
ATOM     18  C   UNL     1      -4.387   2.425  24.329  0.00  0.00    +0.020 C 
ATOM     19  C   UNL     1      -4.323   1.704  24.727  0.00  0.00    +0.014 C 
BRANCH  16  24
ATOM     24  S   UNL     1      -2.734   2.261  22.912  0.00  0.00    +0.046 S 
ATOM     25  C   UNL     1      -2.204   2.446  22.308  0.00  0.00    +0.196 C 
ATOM     26  O   UNL     1      -3.092   1.698  22.427  0.00  0.00    -0.157 OA
ATOM     27  O   UNL     1      -2.376   2.824  23.399  0.00  0.00    -0.157 OA
ENDBRANCH  16  24
BRANCH  19  20
ATOM     20  C   UNL     1      -4.853   1.520  25.331  0.00  0.00    +0.114 C 
BRANCH  20  21
ATOM     21  C   UNL     1      -5.521   1.989  25.450  0.00  0.00    +0.365 C 
ATOM     22  O   UNL     1      -5.498   2.607  25.996  0.00  0.00    -0.246 OA
ATOM     23  O   UNL     1      -6.210   1.840  25.024  0.00  0.00    -0.246 OA
ENDBRANCH  20  21
ENDBRANCH  19  20
ENDBRANCH  13  14
TORSDOF 6
ENDMDL
MODEL 4
REMARK VINA RESULT:     -11.4      2.050      4.507
REMARK  Name = 
REMARK  6 active torsions:
REMARK  status: ('A' for Active; 'I' for Inactive)
REMARK    1  A    between atoms: C_2  and  C_5
REMARK    2  A    between atoms: C_12  and  C_13
REMARK    3  A    between atoms: C_13  and  C_14
REMARK    4  A    between atoms: N_16  and  S_24
REMARK    5  A    between atoms: C_19  and  C_20
REMARK    6  A    between atoms: C_20  and  C_21
REMARK                            x       y       z     vdW  Elec       q    Type
REMARK                         _______ _______ _______ _____ _____    ______ ____
ROOT
ATOM     13  C   UNL     1      -3.128   0.462  24.326  0.00  0.00    +0.047 C 
ENDROOT
BRANCH  13  12
ATOM      5  C   UNL     1      -1.920  -1.617  24.913  0.00  0.00    -0.023 A 
ATOM      6  C   UNL     1      -2.323  -0.924  24.718  0.00  0.00    -0.003 A 
ATOM      7  C   UNL     1      -3.107  -0.960  24.462  0.00  0.00    +0.009 A 
ATOM      8  C   UNL     1      -3.488  -1.690  24.402  0.00  0.00    -0.019 A 
ATOM      9  C   UNL     1      -4.271  -1.726  24.146  0.00  0.00    +0.053 C 
ATOM     10  C   UNL     1      -4.674  -1.034  23.951  0.00  0.00    +0.130 C 
ATOM     11  N   UNL     1      -4.292  -0.304  24.011  0.00  0.00    -0.274 NA
ATOM     12  C   UNL     1      -3.509  -0.268  24.266  0.00  0.00    +0.053 C 
ATOM     28  C   UNL     1      -3.085  -2.383  24.598  0.00  0.00    -0.004 A 
ATOM     29  C   UNL     1      -2.301  -2.347  24.853  0.00  0.00    -0.005 A 
BRANCH   5   2
ATOM      1  C   UNL     1      -0.354  -1.545  25.424  0.00  0.00    +0.004 C 
ATOM      2  C   UNL     1      -1.137  -1.581  25.169  0.00  0.00    +0.019 C 
ATOM      3  C   UNL     1      -0.882  -1.816  24.419  0.00  0.00    +0.004 C 
ATOM      4  C   UNL     1      -1.392  -1.346  25.918  0.00  0.00    +0.004 C 
ENDBRANCH   5   2
ENDBRANCH  13  12
BRANCH  13  14
ATOM     14  C   UNL     1      -3.561   1.161  24.258  0.00  0.00    +0.024 C 
ATOM     15  C   UNL     1      -4.169   1.322  24.793  0.00  0.00    +0.096 C 
ATOM     16  N   UNL     1      -4.602   2.021  24.725  0.00  0.00    -0.159 NA
ATOM     17  C   UNL     1      -4.428   2.557  24.124  0.00  0.00    +0.095 C 
ATOM     18  C   UNL     1      -3.821   2.396  23.589  0.00  0.00    +0.020 C 
ATOM     19  C   UNL     1      -3.387   1.697  23.657  0.00  0.00    +0.014 C 
BRANCH  16  24
ATOM     24  S   UNL     1      -5.210   2.183  25.259  0.00  0.00    +0.046 S 
ATOM     25  C   UNL     1      -5.818   2.345  25.793  0.00  0.00    +0.196 C 
ATOM     26  O   UNL     1      -4.653   2.379  25.834  0.00  0.00    -0.157 OA
ATOM     27  O   UNL     1      -5.769   1.987  24.684  0.00  0.00    -0.157 OA
ENDBRANCH  16  24
BRANCH  19  20
ATOM     20  C   UNL     1      -2.780   1.536  23.123  0.00  0.00    +0.114 C 
BRANCH  20  21
ATOM     21  C   UNL     1      -2.433   2.151  22.697  0.00  0.00    +0.365 C 
ATOM     22  O   UNL     1      -2.674   2.302  21.922  0.00  0.00    -0.246 OA
ATOM     23  O   UNL     1      -1.846   2.614  23.044  0.00  0.00    -0.246 OA
ENDBRANCH  20  21
ENDBRANCH  19  20
ENDBRANCH  13  14
TORSDOF 6
ENDMDL
MODEL 5
REMARK VINA RESULT:     -11.2      1.441      2.926
REMARK  Name = 
REMARK  6 active torsions:
REMARK  status: ('A' for Active; 'I' for Inactive)
REMARK    1  A    between atoms: C_2  and  C_5
REMARK    2  A    between atoms: C_12  and  C_13
REMARK    3  A    between atoms: C_13  and  C_14
REMARK    4  A    between atoms: N_16  and  S_24
REMARK    5  A    between atoms: C_19  and  C_20
REMARK    6  A    between atoms: C_20  and  C_21
REMARK                            x       y       z     vdW  Elec       q    Type
REMARK                         _______ _______ _______ _____ _____    ______ ____
ROOT
ATOM     13  C   UNL     1      -2.205   1.957  25.039  0.00  0.00    +0.047 C 
ENDROOT
BRANCH  13  12
ATOM      5  C   UNL     1      -4.536   2.720  24.705  0.00  0.00    -0.023 A 
ATOM      6  C   UNL     1      -3.759   2.466  24.816  0.00  0.00    -0.003 A 
ATOM      7  C   UNL     1      -3.270   2.335  24.165  0.00  0.00    +0.009 A 
ATOM      8  C   UNL     1      -3.558   2.458  23.401  0.00  0.00    -0.019 A 
ATOM      9  C   UNL     1      -3.070   2.327  22.749  0.00  0.00    +0.053 C 
ATOM     10  C   UNL     1      -2.294   2.073  22.860  0.00  0.00    +0.130 C 
ATOM     11  N   UNL     1      -2.005   1.950  23.624  0.00  0.00    -0.274 NA
ATOM     12  C   UNL     1      -2.493   2.081  24.276  0.00  0.00    +0.053 C 
ATOM     28  C   UNL     1      -4.336   2.712  23.290  0.00  0.00    -0.004 A 
ATOM     29  C   UNL     1      -4.825   2.843  23.941  0.00  0.00    -0.005 A 
BRANCH   5   2
ATOM      1  C   UNL     1      -5.513   2.982  26.008  0.00  0.00    +0.004 C 
ATOM      2  C   UNL     1      -5.024   2.851  25.357  0.00  0.00    +0.019 C 
ATOM      3  C   UNL     1      -4.720   3.615  25.431  0.00  0.00    +0.004 C 
ATOM      4  C   UNL     1      -5.328   2.087  25.282  0.00  0.00    +0.004 C 
ENDBRANCH   5   2
ENDBRANCH  13  12
BRANCH  13  14
ATOM     14  C   UNL     1      -1.708   1.317  25.194  0.00  0.00    +0.024 C 
ATOM     15  C   UNL     1      -1.954   0.551  25.010  0.00  0.00    +0.096 C 
ATOM     16  N   UNL     1      -1.457  -0.089  25.166  0.00  0.00    -0.159 NA
ATOM     17  C   UNL     1      -0.717   0.036  25.504  0.00  0.00    +0.095 C 
ATOM     18  C   UNL     1      -0.471   0.802  25.688  0.00  0.00    +0.020 C 
ATOM     19  C   UNL     1      -0.967   1.443  25.533  0.00  0.00    +0.014 C 
BRANCH  16  24
ATOM     24  S   UNL     1      -1.703  -0.856  24.982  0.00  0.00    +0.046 S 
ATOM     25  C   UNL     1      -1.948  -1.621  24.798  0.00  0.00    +0.196 C 
ATOM     26  O   UNL     1      -2.278  -0.813  25.571  0.00  0.00    -0.157 OA
ATOM     27  O   UNL     1      -1.128  -0.899  24.391  0.00  0.00    -0.157 OA
ENDBRANCH  16  24
BRANCH  19  20
ATOM     20  C   UNL     1      -0.722   2.208  25.716  0.00  0.00    +0.114 C 
BRANCH  20  21
ATOM     21  C   UNL     1      -0.008   2.327  26.113  0.00  0.00    +0.365 C 
ATOM     22  O   UNL     1       0.003   2.377  26.937  0.00  0.00    -0.246 OA
ATOM     23  O   UNL     1       0.694   2.396  25.687  0.00  0.00    -0.246 OA
ENDBRANCH  20  21
ENDBRANCH  19  20
ENDBRANCH  13  14
TORSDOF 6
ENDMDL
MODEL 6
REMARK VINA RESULT:     -11.2      2.214      3.447
REMARK  Name = 
REMARK  6 active torsions:
REMARK  status: ('A' for Active; 'I' for Inactive)
REMARK    1  A    between atoms: C_2  and  C_5
REMARK    2  A    between atoms: C_12  and  C_13
REMARK    3  A    between atoms: C_13  and  C_14
REMARK    4  A    between atoms: N_16  and  S_24
REMARK    5  A    between atoms: C_19  and  C_20
REMARK    6  A    between atoms: C_20  and  C_21
REMARK                            x       y       z     vdW  Elec       q    Type
REMARK                         _______ _______ _______ _____ _____    ______ ____
ROOT
ATOM     13  C   UNL     1      -3.287   1.731  24.775  0.00  0.00    +0.047 C 
ENDROOT
BRANCH  13  12
ATOM      5  C   UNL     1      -0.926   2.435  25.004  0.00  0.00    -0.023 A 
ATOM      6  C   UNL     1      -1.713   2.200  24.927  0.00  0.00    -0.003 A 
ATOM      7  C   UNL     1      -2.037   2.078  24.178  0.00  0.00    +0.009 A 
ATOM      8  C   UNL     1      -1.573   2.191  23.504  0.00  0.00    -0.019 A 
ATOM      9  C   UNL     1      -1.896   2.069  22.756  0.00  0.00    +0.053 C 
ATOM     10  C   UNL     1      -2.683   1.834  22.680  0.00  0.00    +0.130 C 
ATOM     11  N   UNL     1      -3.147   1.721  23.354  0.00  0.00    -0.274 NA
ATOM     12  C   UNL     1      -2.824   1.843  24.102  0.00  0.00    +0.053 C 
ATOM     28  C   UNL     1      -0.786   2.426  23.581  0.00  0.00    -0.004 A 
ATOM     29  C   UNL     1      -0.461   2.548  24.330  0.00  0.00    -0.005 A 
BRANCH   5   2
ATOM      1  C   UNL     1      -0.279   2.680  26.500  0.00  0.00    +0.004 C 
ATOM      2  C   UNL     1      -0.602   2.557  25.752  0.00  0.00    +0.019 C 
ATOM      3  C   UNL     1      -0.898   3.328  25.753  0.00  0.00    +0.004 C 
ATOM      4  C   UNL     1      -0.307   1.787  25.750  0.00  0.00    +0.004 C 
ENDBRANCH   5   2
ENDBRANCH  13  12
BRANCH  13  14
ATOM     14  C   UNL     1      -3.797   1.084  24.822  0.00  0.00    +0.024 C 
ATOM     15  C   UNL     1      -3.503   0.319  24.714  0.00  0.00    +0.096 C 
ATOM     16  N   UNL     1      -4.013  -0.328  24.761  0.00  0.00    -0.159 NA
ATOM     17  C   UNL     1      -4.814  -0.212  24.916  0.00  0.00    +0.095 C 
ATOM     18  C   UNL     1      -5.107   0.551  25.024  0.00  0.00    +0.020 C 
ATOM     19  C   UNL     1      -4.598   1.200  24.977  0.00  0.00    +0.014 C 
BRANCH  16  24
ATOM     24  S   UNL     1      -3.719  -1.092  24.653  0.00  0.00    +0.046 S 
ATOM     25  C   UNL     1      -3.427  -1.855  24.544  0.00  0.00    +0.196 C 
ATOM     26  O   UNL     1      -3.331  -1.045  25.378  0.00  0.00    -0.157 OA
ATOM     27  O   UNL     1      -4.108  -1.138  23.926  0.00  0.00    -0.157 OA
ENDBRANCH  16  24
BRANCH  19  20
ATOM     20  C   UNL     1      -4.891   1.963  25.085  0.00  0.00    +0.114 C 
BRANCH  20  21
ATOM     21  C   UNL     1      -5.663   2.072  25.356  0.00  0.00    +0.365 C 
ATOM     22  O   UNL     1      -5.804   2.188  26.161  0.00  0.00    -0.246 OA
ATOM     23  O   UNL     1      -6.292   2.066  24.824  0.00  0.00    -0.246 OA
ENDBRANCH  20  21
ENDBRANCH  19  20
ENDBRANCH  13  14
TORSDOF 6
ENDMDL
MODEL 7
REMARK VINA RESULT:     -11.2      2.452      4.117
REMARK  Name = 
REMARK  6 active torsions:
REMARK  status: ('A' for Active; 'I' for Inactive)
REMARK    1  A    between atoms: C_2  and  C_5
REMARK    2  A    between atoms: C_12  and  C_13
REMARK    3  A    between atoms: C_13  and  C_14
REMARK    4  A    between atoms: N_16  and  S_24
REMARK    5  A    between atoms: C_19  and  C_20
REMARK    6  A    between atoms: C_20  and  C_21
REMARK                            x       y       z     vdW  Elec       q    Type
REMARK                         _______ _______ _______ _____ _____    ______ ____
ROOT
ATOM     13  C   UNL     1      -3.818   1.953  24.856  0.00  0.00    +0.047 C 
ENDROOT
BRANCH  13  12
ATOM      5  C   UNL     1      -3.174  -0.434  24.739  0.00  0.00    -0.023 A 
ATOM      6  C   UNL     1      -3.388   0.362  24.778  0.00  0.00    -0.003 A 
ATOM      7  C   UNL     1      -3.258   0.858  24.131  0.00  0.00    +0.009 A 
ATOM      8  C   UNL     1      -2.911   0.557  23.444  0.00  0.00    -0.019 A 
ATOM      9  C   UNL     1      -2.780   1.052  22.798  0.00  0.00    +0.053 C 
ATOM     10  C   UNL     1      -2.995   1.847  22.837  0.00  0.00    +0.130 C 
ATOM     11  N   UNL     1      -3.341   2.148  23.524  0.00  0.00    -0.274 NA
ATOM     12  C   UNL     1      -3.472   1.653  24.170  0.00  0.00    +0.053 C 
ATOM     28  C   UNL     1      -2.696  -0.239  23.406  0.00  0.00    -0.004 A 
ATOM     29  C   UNL     1      -2.827  -0.735  24.052  0.00  0.00    -0.005 A 
BRANCH   5   2
ATOM      1  C   UNL     1      -3.435  -1.424  26.031  0.00  0.00    +0.004 C 
ATOM      2  C   UNL     1      -3.304  -0.929  25.385  0.00  0.00    +0.019 C 
ATOM      3  C   UNL     1      -2.543  -0.769  25.662  0.00  0.00    +0.004 C 
ATOM      4  C   UNL     1      -4.065  -1.088  25.108  0.00  0.00    +0.004 C 
ENDBRANCH   5   2
ENDBRANCH  13  12
BRANCH  13  14
ATOM     14  C   UNL     1      -3.613   2.704  25.128  0.00  0.00    +0.024 C 
ATOM     15  C   UNL     1      -2.818   2.925  25.167  0.00  0.00    +0.096 C 
ATOM     16  N   UNL     1      -2.612   3.676  25.438  0.00  0.00    -0.159 NA
ATOM     17  C   UNL     1      -3.199   4.206  25.671  0.00  0.00    +0.095 C 
ATOM     18  C   UNL     1      -3.993   3.986  25.632  0.00  0.00    +0.020 C 
ATOM     19  C   UNL     1      -4.199   3.234  25.360  0.00  0.00    +0.014 C 
BRANCH  16  24
ATOM     24  S   UNL     1      -1.817   3.897  25.477  0.00  0.00    +0.046 S 
ATOM     25  C   UNL     1      -1.024   4.118  25.516  0.00  0.00    +0.196 C 
ATOM     26  O   UNL     1      -1.688   3.326  26.057  0.00  0.00    -0.157 OA
ATOM     27  O   UNL     1      -1.948   4.469  24.896  0.00  0.00    -0.157 OA
ENDBRANCH  16  24
BRANCH  19  20
ATOM     20  C   UNL     1      -4.993   3.014  25.321  0.00  0.00    +0.114 C 
BRANCH  20  21
ATOM     21  C   UNL     1      -5.540   3.354  25.837  0.00  0.00    +0.365 C 
ATOM     22  O   UNL     1      -5.729   2.975  26.546  0.00  0.00    -0.246 OA
ATOM     23  O   UNL     1      -5.897   4.071  25.645  0.00  0.00    -0.246 OA
ENDBRANCH  20  21
ENDBRANCH  19  20
ENDBRANCH  13  14
TORSDOF 6
ENDMDL
MODEL 8
REMARK VINA RESULT:     -11.1      2.275      3.462
REMARK  Name = 
REMARK  6 active torsions:
REMARK  status: ('A' for Active; 'I' for Inactive)
REMARK    1  A    between atoms: C_2  and  C_5
REMARK    2  A    between atoms: C_12  and  C_13
REMARK    3  A    between atoms: C_13  and  C_14
REMARK    4  A    between atoms: N_16  and  S_24
REMARK    5  A    between atoms: C_19  and  C_20
REMARK    6  A    between atoms: C_20  and  C_21
REMARK                            x       y       z     vdW  Elec       q    Type
REMARK                         _______ _______ _______ _____ _____    ______ ____
ROOT
ATOM     13  C   UNL     1      -2.755   0.961  24.726  0.00  0.00    +0.047 C 
ENDROOT
BRANCH  13  12
ATOM      5  C   UNL     1      -0.825   2.484  25.010  0.00  0.00    -0.023 A 
ATOM      6  C   UNL     1      -1.469   1.976  24.915  0.00  0.00    -0.003 A 
ATOM      7  C   UNL     1      -1.872   1.950  24.196  0.00  0.00    +0.009 A 
ATOM      8  C   UNL     1      -1.632   2.432  23.570  0.00  0.00    -0.019 A 
ATOM      9  C   UNL     1      -2.035   2.407  22.851  0.00  0.00    +0.053 C 
ATOM     10  C   UNL     1      -2.678   1.899  22.757  0.00  0.00    +0.130 C 
ATOM     11  N   UNL     1      -2.918   1.417  23.382  0.00  0.00    -0.274 NA
ATOM     12  C   UNL     1      -2.515   1.443  24.101  0.00  0.00    +0.053 C 
ATOM     28  C   UNL     1      -0.988   2.940  23.665  0.00  0.00    -0.004 A 
ATOM     29  C   UNL     1      -0.584   2.966  24.384  0.00  0.00    -0.005 A 
BRANCH   5   2
ATOM      1  C   UNL     1      -0.019   2.535  26.447  0.00  0.00    +0.004 C 
ATOM      2  C   UNL     1      -0.422   2.510  25.728  0.00  0.00    +0.019 C 
ATOM      3  C   UNL     1       0.089   1.917  25.463  0.00  0.00    +0.004 C 
ATOM      4  C   UNL     1      -0.933   3.101  25.993  0.00  0.00    +0.004 C 
ENDBRANCH   5   2
ENDBRANCH  13  12
BRANCH  13  14
ATOM     14  C   UNL     1      -3.558   0.862  24.887  0.00  0.00    +0.024 C 
ATOM     15  C   UNL     1      -4.044   1.523  24.982  0.00  0.00    +0.096 C 
ATOM     16  N   UNL     1      -4.847   1.424  25.143  0.00  0.00    -0.159 NA
ATOM     17  C   UNL     1      -5.164   0.667  25.208  0.00  0.00    +0.095 C 
ATOM     18  C   UNL     1      -4.680   0.006  25.113  0.00  0.00    +0.020 C 
ATOM     19  C   UNL     1      -3.876   0.104  24.952  0.00  0.00    +0.014 C 
BRANCH  16  24
ATOM     24  S   UNL     1      -5.332   2.086  25.238  0.00  0.00    +0.046 S 
ATOM     25  C   UNL     1      -5.817   2.746  25.334  0.00  0.00    +0.196 C 
ATOM     26  O   UNL     1      -5.790   1.841  24.597  0.00  0.00    -0.157 OA
ATOM     27  O   UNL     1      -4.873   2.330  25.880  0.00  0.00    -0.157 OA
ENDBRANCH  16  24
BRANCH  19  20
ATOM     20  C   UNL     1      -3.392  -0.556  24.857  0.00  0.00    +0.114 C 
BRANCH  20  21
ATOM     21  C   UNL     1      -3.674  -1.305  25.056  0.00  0.00    +0.365 C 
ATOM     22  O   UNL     1      -4.041  -1.773  24.483  0.00  0.00    -0.246 OA
ATOM     23  O   UNL     1      -3.590  -1.587  25.826  0.00  0.00    -0.246 OA
ENDBRANCH  20  21
ENDBRANCH  19  20
ENDBRANCH  13  14
TORSDOF 6
ENDMDL
MODEL 9
REMARK VINA RESULT:     -11.0      2.331      3.901
REMARK  Name = 
REMARK  6 active torsions:
REMARK  status: ('A' for Active; 'I' for Inactive)
REMARK    1  A    between atoms: C_2  and  C_5
REMARK    2  A    between atoms: C_12  and  C_13
REMARK    3  A    between atoms: C_13  and  C_14
REMARK    4  A    between atoms: N_16  and  S_24
REMARK    5  A    between atoms: C_19  and  C_20
REMARK    6  A    between atoms: C_20  and  C_21
REMARK                            x       y       z     vdW  Elec       q    Type
REMARK                         _______ _______ _______ _____ _____    ______ ____
ROOT
ATOM     13  C   UNL     1      -1.745   0.766  25.019  0.00  0.00    +0.047 C 
ENDROOT
BRANCH  13  12
ATOM      5  C   UNL     1      -3.419  -1.052  24.879  0.00  0.00    -0.023 A 
ATOM      6  C   UNL     1      -2.861  -0.445  24.925  0.00  0.00    -0.003 A 
ATOM      7  C   UNL     1      -2.927   0.216  24.436  0.00  0.00    +0.009 A 
ATOM      8  C   UNL     1      -3.552   0.271  23.899  0.00  0.00    -0.019 A 
ATOM      9  C   UNL     1      -3.618   0.931  23.410  0.00  0.00    +0.053 C 
ATOM     10  C   UNL     1      -3.060   1.537  23.457  0.00  0.00    +0.130 C 
ATOM     11  N   UNL     1      -2.435   1.481  23.994  0.00  0.00    -0.274 NA
ATOM     12  C   UNL     1      -2.369   0.821  24.483  0.00  0.00    +0.053 C 
ATOM     28  C   UNL     1      -4.110  -0.335  23.852  0.00  0.00    -0.004 A 
ATOM     29  C   UNL     1      -4.044  -0.996  24.342  0.00  0.00    -0.005 A 
BRANCH   5   2
ATOM      1  C   UNL     1      -3.288  -2.372  25.857  0.00  0.00    +0.004 C 
ATOM      2  C   UNL     1      -3.354  -1.712  25.368  0.00  0.00    +0.019 C 
ATOM      3  C   UNL     1      -3.098  -2.162  24.725  0.00  0.00    +0.004 C 
ATOM      4  C   UNL     1      -3.609  -1.261  26.010  0.00  0.00    +0.004 C 
ENDBRANCH   5   2
ENDBRANCH  13  12
BRANCH  13  14
ATOM     14  C   UNL     1      -0.975   0.933  24.776  0.00  0.00    +0.024 C 
ATOM     15  C   UNL     1      -0.622   0.479  24.183  0.00  0.00    +0.096 C 
ATOM     16  N   UNL     1       0.148   0.647  23.940  0.00  0.00    -0.159 NA
ATOM     17  C   UNL     1       0.565   1.267  24.287  0.00  0.00    +0.095 C 
ATOM     18  C   UNL     1       0.213   1.721  24.879  0.00  0.00    +0.020 C 
ATOM     19  C   UNL     1      -0.558   1.554  25.123  0.00  0.00    +0.014 C 
BRANCH  16  24
ATOM     24  S   UNL     1       0.501   0.192  23.347  0.00  0.00    +0.046 S 
ATOM     25  C   UNL     1       0.853  -0.261  22.755  0.00  0.00    +0.196 C 
ATOM     26  O   UNL     1       0.465  -0.471  23.835  0.00  0.00    -0.157 OA
ATOM     27  O   UNL     1       0.537   0.857  22.859  0.00  0.00    -0.157 OA
ENDBRANCH  16  24
BRANCH  19  20
ATOM     20  C   UNL     1      -0.910   2.008  25.715  0.00  0.00    +0.114 C 
BRANCH  20  21
ATOM     21  C   UNL     1      -0.475   2.596  26.096  0.00  0.00    +0.365 C 
ATOM     22  O   UNL     1      -0.495   3.372  25.814  0.00  0.00    -0.246 OA
ATOM     23  O   UNL     1      -0.019   2.409  26.757  0.00  0.00    -0.246 OA
ENDBRANCH  20  21
ENDBRANCH  19  20
ENDBRANCH  13  14
TORSDOF 6
ENDMDL
MODEL 10
REMARK VINA RESULT:     -11.0      2.540      4.366
REMARK  Name = 
REMARK  6 active torsions:
REMARK  status: ('A' for Active; 'I' for Inactive)
REMARK    1  A    between atoms: C_2  and  C_5
REMARK    2  A    between atoms: C_12  and  C_13
REMARK    3  A    between atoms: C_13  and  C_14
REMARK    4  A    between atoms: N_16  and  S_24
REMARK    5  A    between atoms: C_19  and  C_20
REMARK    6  A    between atoms: C_20  and  C_21
REMARK                            x       y       z     vdW  Elec       q    Type
REMARK                         _______ _______ _______ _____ _____    ______ ____
ROOT
ATOM     13  C   UNL     1      -2.188   1.529  24.942  0.00  0.00    +0.047 C 
ENDROOT
BRANCH  13  12
ATOM      5  C   UNL     1      -3.289  -0.687  24.876  0.00  0.00    -0.023 A 
ATOM      6  C   UNL     1      -2.922   0.052  24.898  0.00  0.00    -0.003 A 
ATOM      7  C   UNL     1      -2.919   0.532  24.227  0.00  0.00    +0.009 A 
ATOM      8  C   UNL     1      -3.283   0.272  23.532  0.00  0.00    -0.019 A 
ATOM      9  C   UNL     1      -3.280   0.752  22.862  0.00  0.00    +0.053 C 
ATOM     10  C   UNL     1      -2.913   1.490  22.884  0.00  0.00    +0.130 C 
ATOM     11  N   UNL     1      -2.549   1.749  23.578  0.00  0.00    -0.274 NA
ATOM     12  C   UNL     1      -2.552   1.270  24.249  0.00  0.00    +0.053 C 
ATOM     28  C   UNL     1      -3.650  -0.466  23.511  0.00  0.00    -0.004 A 
ATOM     29  C   UNL     1      -3.653  -0.946  24.182  0.00  0.00    -0.005 A 
BRANCH   5   2
ATOM      1  C   UNL     1      -3.295  -1.645  26.218  0.00  0.00    +0.004 C 
ATOM      2  C   UNL     1      -3.292  -1.166  25.547  0.00  0.00    +0.019 C 
ATOM      3  C   UNL     1      -2.581  -1.508  25.306  0.00  0.00    +0.004 C 
ATOM      4  C   UNL     1      -4.004  -0.824  25.788  0.00  0.00    +0.004 C 
ENDBRANCH   5   2
ENDBRANCH  13  12
BRANCH  13  14
ATOM     14  C   UNL     1      -2.300   2.304  25.203  0.00  0.00    +0.024 C 
ATOM     15  C   UNL     1      -3.056   2.635  25.200  0.00  0.00    +0.096 C 
ATOM     16  N   UNL     1      -3.168   3.409  25.460  0.00  0.00    -0.159 NA
ATOM     17  C   UNL     1      -2.525   3.853  25.723  0.00  0.00    +0.095 C 
ATOM     18  C   UNL     1      -1.769   3.523  25.725  0.00  0.00    +0.020 C 
ATOM     19  C   UNL     1      -1.657   2.747  25.465  0.00  0.00    +0.014 C 
BRANCH  16  24
ATOM     24  S   UNL     1      -3.924   3.740  25.458  0.00  0.00    +0.046 S 
ATOM     25  C   UNL     1      -4.680   4.071  25.455  0.00  0.00    +0.196 C 
ATOM     26  O   UNL     1      -4.116   3.305  26.132  0.00  0.00    -0.157 OA
ATOM     27  O   UNL     1      -3.732   4.176  24.783  0.00  0.00    -0.157 OA
ENDBRANCH  16  24
BRANCH  19  20
ATOM     20  C   UNL     1      -0.901   2.417  25.467  0.00  0.00    +0.114 C 
BRANCH  20  21
ATOM     21  C   UNL     1      -0.289   2.793  25.874  0.00  0.00    +0.365 C 
ATOM     22  O   UNL     1      -0.102   2.560  26.643  0.00  0.00    -0.246 OA
ATOM     23  O   UNL     1       0.134   3.401  25.513  0.00  0.00    -0.246 OA
ENDBRANCH  20  21
ENDBRANCH  19  20
ENDBRANCH  13  14
TORSDOF 6
ENDMDL
