MODEL 1
REMARK VINA RESULT:     -13.1      0.000      0.000
REMARK  Name = 
REMARK  5 active torsions:
REMARK  status: ('A' for Active; 'I' for Inactive)
REMARK    1  A    between atoms: C_2  and  C_5
REMARK    2  A    between atoms: C_8  and  O_9
REMARK    3  A    between atoms: O_9  and  C_10
REMARK    4  A    between atoms: C_17  and  C_19
REMARK    5  A    between atoms: C_22  and  C_25
REMARK                            x       y       z     vdW  Elec       q    Type
REMARK                         _______ _______ _______ _____ _____    ______ ____
ROOT
ATOM     10  C   UNL     1      -2.135   0.586  24.995  0.00  0.00    +0.215 C 
ATOM     11  C   UNL     1      -1.494   0.086  24.849  0.00  0.00    +0.187 C 
ATOM     12  O   UNL     1      -0.770   0.267  24.500  0.00  0.00    -0.348 OA
ATOM     13  C   UNL     1      -0.505   0.993  24.211  0.00  0.00    +0.164 C 
ATOM     14  C   UNL     1      -0.901   1.717  24.200  0.00  0.00    +0.126 C 
ATOM     15  N   UNL     1      -1.658   1.893  24.475  0.00  0.00    -0.270 N 
ATOM     16  C   UNL     1      -2.207   1.390  24.829  0.00  0.00    +0.140 C 
ATOM     17  C   UNL     1      -1.898   2.678  24.383  0.00  0.00    +0.249 C 
ATOM     18  O   UNL     1      -1.391   3.226  24.036  0.00  0.00    -0.270 OA
ENDROOT
BRANCH  17  19
ATOM     19  C   UNL     1      -2.646   2.912  24.640  0.00  0.00    +0.054 A 
ATOM     20  C   UNL     1      -3.282   2.911  24.113  0.00  0.00    +0.005 A 
ATOM     21  C   UNL     1      -4.030   3.146  24.370  0.00  0.00    +0.010 A 
ATOM     22  C   UNL     1      -4.143   3.381  25.153  0.00  0.00    +0.068 A 
ATOM     23  C   UNL     1      -3.508   3.381  25.679  0.00  0.00    +0.010 A 
ATOM     24  C   UNL     1      -2.760   3.147  25.422  0.00  0.00    +0.005 A 
BRANCH  22  25
ATOM     25  C   UNL     1      -4.891   3.615  25.409  0.00  0.00    +0.100 C 
ATOM     26  N   UNL     1      -5.640   3.849  25.665  0.00  0.00    -0.191 NA
ENDBRANCH  22  25
ENDBRANCH  17  19
BRANCH  10   9
ATOM      9  O   UNL     1      -2.788   0.234  25.356  0.00  0.00    -0.475 OA
BRANCH   9   8
ATOM      5  C   UNL     1      -3.807  -1.793  24.367  0.00  0.00    +0.072 A 
ATOM      6  C   UNL     1      -3.268  -1.863  24.988  0.00  0.00    +0.007 A 
ATOM      7  C   UNL     1      -2.929  -1.188  25.317  0.00  0.00    +0.037 A 
ATOM      8  C   UNL     1      -3.127  -0.442  25.026  0.00  0.00    +0.139 A 
ATOM     27  C   UNL     1      -3.666  -0.372  24.405  0.00  0.00    +0.037 A 
ATOM     28  C   UNL     1      -4.006  -1.047  24.076  0.00  0.00    +0.007 A 
BRANCH   5   2
ATOM      1  F   UNL     1      -4.486  -3.145  23.708  0.00  0.00    -0.166 F 
ATOM      2  C   UNL     1      -4.146  -2.469  24.037  0.00  0.00    +0.419 C 
ATOM      3  F   UNL     1      -4.466  -2.012  23.429  0.00  0.00    -0.166 F 
ATOM      4  F   UNL     1      -3.827  -2.926  24.646  0.00  0.00    -0.166 F 
ENDBRANCH   5   2
ENDBRANCH   9   8
ENDBRANCH  10   9
TORSDOF 5
ENDMDL
MODEL 2
REMARK VINA RESULT:     -12.9      1.611      2.844
REMARK  Name = 
REMARK  5 active torsions:
REMARK  status: ('A' for Active; 'I' for Inactive)
REMARK    1  A    between atoms: C_2  and  C_5
REMARK    2  A    between atoms: C_8  and  O_9
REMARK    3  A    between atoms: O_9  and  C_10
REMARK    4  A    between atoms: C_17  and  C_19
REMARK    5  A    between atoms: C_22  and  C_25
REMARK                            x       y       z     vdW  Elec       q    Type
REMARK                         _______ _______ _______ _____ _____    ______ ____
ROOT
ATOM     10  C   UNL     1      -4.453   1.440  24.721  0.00  0.00    +0.215 C 
ATOM     11  C   UNL     1      -5.176   1.041  24.708  0.00  0.00    +0.187 C 
ATOM     12  O   UNL     1      -5.918   1.313  24.946  0.00  0.00    -0.348 OA
ATOM     13  C   UNL     1      -6.120   2.050  25.257  0.00  0.00    +0.164 C 
ATOM     14  C   UNL     1      -5.630   2.697  25.405  0.00  0.00    +0.126 C 
ATOM     15  N   UNL     1      -4.818   2.767  25.280  0.00  0.00    -0.270 N 
ATOM     16  C   UNL     1      -4.295   2.207  24.976  0.00  0.00    +0.140 C 
ATOM     17  C   UNL     1      -4.485   3.493  25.488  0.00  0.00    +0.249 C 
ATOM     18  O   UNL     1      -4.961   4.091  25.797  0.00  0.00    -0.270 OA
ENDROOT
BRANCH  17  19
ATOM     19  C   UNL     1      -3.677   3.620  25.385  0.00  0.00    +0.054 A 
ATOM     20  C   UNL     1      -3.159   3.511  26.018  0.00  0.00    +0.005 A 
ATOM     21  C   UNL     1      -2.350   3.639  25.914  0.00  0.00    +0.010 A 
ATOM     22  C   UNL     1      -2.059   3.875  25.179  0.00  0.00    +0.068 A 
ATOM     23  C   UNL     1      -2.577   3.983  24.547  0.00  0.00    +0.010 A 
ATOM     24  C   UNL     1      -3.386   3.856  24.650  0.00  0.00    +0.005 A 
BRANCH  22  25
ATOM     25  C   UNL     1      -1.251   4.001  25.077  0.00  0.00    +0.100 C 
ATOM     26  N   UNL     1      -0.442   4.128  24.975  0.00  0.00    -0.191 NA
ENDBRANCH  22  25
ENDBRANCH  17  19
BRANCH  10   9
ATOM      9  O   UNL     1      -3.805   1.013  24.442  0.00  0.00    -0.475 OA
BRANCH   9   8
ATOM      5  C   UNL     1      -3.603  -1.403  24.944  0.00  0.00    +0.072 A 
ATOM      6  C   UNL     1      -3.352  -0.844  25.496  0.00  0.00    +0.007 A 
ATOM      7  C   UNL     1      -3.419  -0.040  25.329  0.00  0.00    +0.037 A 
ATOM      8  C   UNL     1      -3.738   0.207  24.610  0.00  0.00    +0.139 A 
ATOM     27  C   UNL     1      -3.990  -0.352  24.057  0.00  0.00    +0.037 A 
ATOM     28  C   UNL     1      -3.923  -1.156  24.224  0.00  0.00    +0.007 A 
BRANCH   5   2
ATOM      1  F   UNL     1      -3.469  -3.013  25.279  0.00  0.00    -0.166 F 
ATOM      2  C   UNL     1      -3.536  -2.208  25.111  0.00  0.00    +0.419 C 
ATOM      3  F   UNL     1      -3.426  -2.365  24.309  0.00  0.00    -0.166 F 
ATOM      4  F   UNL     1      -3.646  -2.050  25.914  0.00  0.00    -0.166 F 
ENDBRANCH   5   2
ENDBRANCH   9   8
ENDBRANCH  10   9
TORSDOF 5
ENDMDL
MODEL 3
REMARK VINA RESULT:     -12.1      2.885      4.807
REMARK  Name = 
REMARK  5 active torsions:
REMARK  status: ('A' for Active; 'I' for Inactive)
REMARK    1  A    between atoms: C_2  and  C_5
REMARK    2  A    between atoms: C_8  and  O_9
REMARK    3  A    between atoms: O_9  and  C_10
REMARK    4  A    between atoms: C_17  and  C_19
REMARK    5  A    between atoms: C_22  and  C_25
REMARK                            x       y       z     vdW  Elec       q    Type
REMARK                         _______ _______ _______ _____ _____    ______ ____
ROOT
ATOM     10  C   UNL     1      -3.019   2.051  24.379  0.00  0.00    +0.215 C 
ATOM     11  C   UNL     1      -3.119   2.870  24.369  0.00  0.00    +0.187 C 
ATOM     12  O   UNL     1      -3.806   3.306  24.503  0.00  0.00    -0.348 OA
ATOM     13  C   UNL     1      -4.564   3.031  24.681  0.00  0.00    +0.164 C 
ATOM     14  C   UNL     1      -4.820   2.252  24.767  0.00  0.00    +0.126 C 
ATOM     15  N   UNL     1      -4.383   1.555  24.698  0.00  0.00    -0.270 N 
ATOM     16  C   UNL     1      -3.581   1.467  24.525  0.00  0.00    +0.140 C 
ATOM     17  C   UNL     1      -4.803   0.855  24.818  0.00  0.00    +0.249 C 
ATOM     18  O   UNL     1      -5.608   0.883  24.994  0.00  0.00    -0.270 OA
ENDROOT
BRANCH  17  19
ATOM     19  C   UNL     1      -4.418   0.128  24.761  0.00  0.00    +0.054 A 
ATOM     20  C   UNL     1      -4.128  -0.238  25.442  0.00  0.00    +0.005 A 
ATOM     21  C   UNL     1      -3.742  -0.966  25.385  0.00  0.00    +0.010 A 
ATOM     22  C   UNL     1      -3.646  -1.326  24.649  0.00  0.00    +0.068 A 
ATOM     23  C   UNL     1      -3.935  -0.959  23.969  0.00  0.00    +0.010 A 
ATOM     24  C   UNL     1      -4.321  -0.232  24.026  0.00  0.00    +0.005 A 
BRANCH  22  25
ATOM     25  C   UNL     1      -3.260  -2.053  24.593  0.00  0.00    +0.100 C 
ATOM     26  N   UNL     1      -2.874  -2.780  24.537  0.00  0.00    -0.191 NA
ENDBRANCH  22  25
ENDBRANCH  17  19
BRANCH  10   9
ATOM      9  O   UNL     1      -2.255   1.783  24.221  0.00  0.00    -0.475 OA
BRANCH   9   8
ATOM      5  C   UNL     1      -0.403   2.335  25.767  0.00  0.00    +0.072 A 
ATOM      6  C   UNL     1      -0.693   2.908  25.249  0.00  0.00    +0.007 A 
ATOM      7  C   UNL     1      -1.310   2.724  24.734  0.00  0.00    +0.037 A 
ATOM      8  C   UNL     1      -1.638   1.967  24.736  0.00  0.00    +0.139 A 
ATOM     27  C   UNL     1      -1.348   1.393  25.255  0.00  0.00    +0.037 A 
ATOM     28  C   UNL     1      -0.731   1.577  25.770  0.00  0.00    +0.007 A 
BRANCH   5   2
ATOM      1  F   UNL     1       0.831   2.703  26.799  0.00  0.00    -0.166 F 
ATOM      2  C   UNL     1       0.214   2.519  26.283  0.00  0.00    +0.419 C 
ATOM      3  F   UNL     1      -0.334   2.724  26.865  0.00  0.00    -0.166 F 
ATOM      4  F   UNL     1       0.761   2.315  25.701  0.00  0.00    -0.166 F 
ENDBRANCH   5   2
ENDBRANCH   9   8
ENDBRANCH  10   9
TORSDOF 5
ENDMDL
MODEL 4
REMARK VINA RESULT:     -11.9      2.495      4.418
REMARK  Name = 
REMARK  5 active torsions:
REMARK  status: ('A' for Active; 'I' for Inactive)
REMARK    1  A    between atoms: C_2  and  C_5
REMARK    2  A    between atoms: C_8  and  O_9
REMARK    3  A    between atoms: O_9  and  C_10
REMARK    4  A    between atoms: C_17  and  C_19
REMARK    5  A    between atoms: C_22  and  C_25
REMARK                            x       y       z     vdW  Elec       q    Type
REMARK                         _______ _______ _______ _____ _____    ______ ____
ROOT
ATOM     10  C   UNL     1      -2.318   1.400  24.737  0.00  0.00    +0.215 C 
ATOM     11  C   UNL     1      -1.897   2.090  24.908  0.00  0.00    +0.187 C 
ATOM     12  O   UNL     1      -1.197   2.172  25.336  0.00  0.00    -0.348 OA
ATOM     13  C   UNL     1      -0.744   1.586  25.700  0.00  0.00    +0.164 C 
ATOM     14  C   UNL     1      -0.880   0.772  25.724  0.00  0.00    +0.126 C 
ATOM     15  N   UNL     1      -1.502   0.344  25.391  0.00  0.00    -0.270 N 
ATOM     16  C   UNL     1      -2.141   0.624  24.952  0.00  0.00    +0.140 C 
ATOM     17  C   UNL     1      -1.481  -0.472  25.514  0.00  0.00    +0.249 C 
ATOM     18  O   UNL     1      -0.864  -0.808  25.946  0.00  0.00    -0.270 OA
ENDROOT
BRANCH  17  19
ATOM     19  C   UNL     1      -2.077  -0.950  25.204  0.00  0.00    +0.054 A 
ATOM     20  C   UNL     1      -2.013  -1.242  24.435  0.00  0.00    +0.005 A 
ATOM     21  C   UNL     1      -2.610  -1.721  24.125  0.00  0.00    +0.010 A 
ATOM     22  C   UNL     1      -3.270  -1.907  24.584  0.00  0.00    +0.068 A 
ATOM     23  C   UNL     1      -3.333  -1.615  25.353  0.00  0.00    +0.010 A 
ATOM     24  C   UNL     1      -2.737  -1.137  25.662  0.00  0.00    +0.005 A 
BRANCH  22  25
ATOM     25  C   UNL     1      -3.866  -2.386  24.273  0.00  0.00    +0.100 C 
ATOM     26  N   UNL     1      -4.461  -2.864  23.963  0.00  0.00    -0.191 NA
ENDBRANCH  22  25
ENDBRANCH  17  19
BRANCH  10   9
ATOM      9  O   UNL     1      -3.005   1.502  24.293  0.00  0.00    -0.475 OA
BRANCH   9   8
ATOM      5  C   UNL     1      -4.787   3.019  25.097  0.00  0.00    +0.072 A 
ATOM      6  C   UNL     1      -4.200   3.303  24.592  0.00  0.00    +0.007 A 
ATOM      7  C   UNL     1      -3.606   2.798  24.325  0.00  0.00    +0.037 A 
ATOM      8  C   UNL     1      -3.599   2.008  24.561  0.00  0.00    +0.139 A 
ATOM     27  C   UNL     1      -4.187   1.723  25.066  0.00  0.00    +0.037 A 
ATOM     28  C   UNL     1      -4.780   2.228  25.333  0.00  0.00    +0.007 A 
BRANCH   5   2
ATOM      1  F   UNL     1      -5.976   4.031  25.633  0.00  0.00    -0.166 F 
ATOM      2  C   UNL     1      -5.382   3.525  25.365  0.00  0.00    +0.419 C 
ATOM      3  F   UNL     1      -4.810   4.040  25.662  0.00  0.00    -0.166 F 
ATOM      4  F   UNL     1      -5.954   3.010  25.068  0.00  0.00    -0.166 F 
ENDBRANCH   5   2
ENDBRANCH   9   8
ENDBRANCH  10   9
TORSDOF 5
ENDMDL
