MODEL 1
REMARK VINA RESULT:      -9.9      0.000      0.000
REMARK  Name = 
REMARK  8 active torsions:
REMARK  status: ('A' for Active; 'I' for Inactive)
REMARK    1  A    between atoms: C_2  and  O_3
REMARK    2  A    between atoms: O_3  and  C_4
REMARK    3  A    between atoms: C_4  and  C_6
REMARK    4  A    between atoms: C_6  and  C_7
REMARK    5  A    between atoms: C_9  and  C_10
REMARK    6  A    between atoms: C_13  and  C_14
REMARK    7  A    between atoms: C_14  and  N_15
REMARK    8  A    between atoms: C_16  and  C_18
REMARK                            x       y       z     vdW  Elec       q    Type
REMARK                         _______ _______ _______ _____ _____    ______ ____
ROOT
ATOM      7  C   UNL     1      -4.461   2.062  24.737  0.00  0.00    +0.029 C 
ATOM      8  C   UNL     1      -3.771   1.935  24.304  0.00  0.00    +0.005 C 
ATOM      9  C   UNL     1      -3.529   1.167  24.129  0.00  0.00    +0.006 C 
ATOM     13  C   UNL     1      -3.979   0.525  24.387  0.00  0.00    +0.043 C 
ATOM     24  C   UNL     1      -4.670   0.651  24.819  0.00  0.00    -0.033 C 
ATOM     25  C   UNL     1      -4.910   1.420  24.994  0.00  0.00    -0.048 C 
ATOM     26  C   UNL     1      -5.602   1.547  25.427  0.00  0.00    +0.026 C 
ENDROOT
BRANCH   9  10
ATOM     10  C   UNL     1      -2.838   1.039  23.697  0.00  0.00    +0.000 C 
ATOM     11  C   UNL     1      -2.111   0.988  24.083  0.00  0.00    +0.000 C 
ATOM     12  C   UNL     1      -2.874   0.962  22.876  0.00  0.00    +0.000 C 
ENDBRANCH   9  10
BRANCH   7   6
ATOM      6  C   UNL     1      -4.703   2.831  24.912  0.00  0.00    +0.114 C 
BRANCH   6   4
ATOM      4  C   UNL     1      -4.147   3.438  24.962  0.00  0.00    +0.317 C 
ATOM      5  O   UNL     1      -3.996   3.913  24.304  0.00  0.00    -0.250 OA
BRANCH   4   3
ATOM      3  O   UNL     1      -3.742   3.571  25.668  0.00  0.00    -0.448 OA
BRANCH   3   2
ATOM      1  C   UNL     1      -2.831   4.369  26.427  0.00  0.00    +0.051 C 
ATOM      2  C   UNL     1      -3.350   4.286  25.791  0.00  0.00    +0.209 C 
ENDBRANCH   3   2
ENDBRANCH   4   3
ENDBRANCH   6   4
ENDBRANCH   7   6
BRANCH  13  14
ATOM     14  C   UNL     1      -3.737  -0.245  24.211  0.00  0.00    +0.120 C 
BRANCH  14  15
ATOM     15  N   UNL     1      -4.274  -0.783  23.889  0.00  0.00    -0.201 NA
ATOM     16  C   UNL     1      -4.165  -1.594  24.003  0.00  0.00    +0.265 C 
ATOM     17  O   UNL     1      -4.701  -2.131  23.681  0.00  0.00    -0.268 OA
BRANCH  16  18
ATOM     18  C   UNL     1      -3.519  -1.865  24.438  0.00  0.00    +0.058 A 
ATOM     19  C   UNL     1      -3.559  -1.895  25.262  0.00  0.00    +0.025 A 
ATOM     20  C   UNL     1      -2.913  -2.167  25.697  0.00  0.00    +0.099 A 
ATOM     21  N   UNL     1      -2.226  -2.408  25.308  0.00  0.00    -0.242 NA
ATOM     22  C   UNL     1      -2.186  -2.378  24.485  0.00  0.00    +0.099 A 
ATOM     23  C   UNL     1      -2.833  -2.106  24.049  0.00  0.00    +0.025 A 
ENDBRANCH  16  18
ENDBRANCH  14  15
ENDBRANCH  13  14
TORSDOF 8
ENDMDL
MODEL 2
REMARK VINA RESULT:      -9.8      1.630      4.652
REMARK  Name = 
REMARK  8 active torsions:
REMARK  status: ('A' for Active; 'I' for Inactive)
REMARK    1  A    between atoms: C_2  and  O_3
REMARK    2  A    between atoms: O_3  and  C_4
REMARK    3  A    between atoms: C_4  and  C_6
REMARK    4  A    between atoms: C_6  and  C_7
REMARK    5  A    between atoms: C_9  and  C_10
REMARK    6  A    between atoms: C_13  and  C_14
REMARK    7  A    between atoms: C_14  and  N_15
REMARK    8  A    between atoms: C_16  and  C_18
REMARK                            x       y       z     vdW  Elec       q    Type
REMARK                         _______ _______ _______ _____ _____    ______ ____
ROOT
ATOM      7  C   UNL     1      -4.037   0.044  24.675  0.00  0.00    +0.029 C 
ATOM      8  C   UNL     1      -3.261   0.187  24.437  0.00  0.00    +0.005 C 
ATOM      9  C   UNL     1      -2.986   0.961  24.367  0.00  0.00    +0.006 C 
ATOM     13  C   UNL     1      -3.488   1.593  24.535  0.00  0.00    +0.043 C 
ATOM     24  C   UNL     1      -4.265   1.452  24.773  0.00  0.00    -0.033 C 
ATOM     25  C   UNL     1      -4.539   0.677  24.843  0.00  0.00    -0.048 C 
ATOM     26  C   UNL     1      -5.317   0.535  25.081  0.00  0.00    +0.026 C 
ENDROOT
BRANCH   9  10
ATOM     10  C   UNL     1      -2.209   1.104  24.129  0.00  0.00    +0.000 C 
ATOM     11  C   UNL     1      -2.046   1.301  23.344  0.00  0.00    +0.000 C 
ATOM     12  C   UNL     1      -1.594   1.049  24.676  0.00  0.00    +0.000 C 
ENDBRANCH   9  10
BRANCH   7   6
ATOM      6  C   UNL     1      -4.313  -0.730  24.745  0.00  0.00    +0.114 C 
BRANCH   6   4
ATOM      4  C   UNL     1      -4.021  -1.319  24.247  0.00  0.00    +0.317 C 
ATOM      5  O   UNL     1      -4.222  -1.320  23.447  0.00  0.00    -0.250 OA
BRANCH   4   3
ATOM      3  O   UNL     1      -3.527  -1.908  24.548  0.00  0.00    -0.448 OA
BRANCH   3   2
ATOM      1  C   UNL     1      -3.199  -3.291  24.694  0.00  0.00    +0.051 C 
ATOM      2  C   UNL     1      -3.659  -2.697  24.352  0.00  0.00    +0.209 C 
ENDBRANCH   3   2
ENDBRANCH   4   3
ENDBRANCH   6   4
ENDBRANCH   7   6
BRANCH  13  14
ATOM     14  C   UNL     1      -3.213   2.369  24.465  0.00  0.00    +0.120 C 
BRANCH  14  15
ATOM     15  N   UNL     1      -3.669   2.935  24.075  0.00  0.00    -0.201 NA
ATOM     16  C   UNL     1      -3.604   3.732  24.281  0.00  0.00    +0.265 C 
ATOM     17  O   UNL     1      -4.060   4.298  23.891  0.00  0.00    -0.268 OA
BRANCH  16  18
ATOM     18  C   UNL     1      -3.082   3.961  24.878  0.00  0.00    +0.058 A 
ATOM     19  C   UNL     1      -3.316   3.925  25.668  0.00  0.00    +0.025 A 
ATOM     20  C   UNL     1      -2.795   4.154  26.264  0.00  0.00    +0.099 A 
ATOM     21  N   UNL     1      -2.038   4.420  26.069  0.00  0.00    -0.242 NA
ATOM     22  C   UNL     1      -1.803   4.457  25.279  0.00  0.00    +0.099 A 
ATOM     23  C   UNL     1      -2.326   4.227  24.683  0.00  0.00    +0.025 A 
ENDBRANCH  16  18
ENDBRANCH  14  15
ENDBRANCH  13  14
TORSDOF 8
ENDMDL
MODEL 3
REMARK VINA RESULT:      -9.6      0.928      1.214
REMARK  Name = 
REMARK  8 active torsions:
REMARK  status: ('A' for Active; 'I' for Inactive)
REMARK    1  A    between atoms: C_2  and  O_3
REMARK    2  A    between atoms: O_3  and  C_4
REMARK    3  A    between atoms: C_4  and  C_6
REMARK    4  A    between atoms: C_6  and  C_7
REMARK    5  A    between atoms: C_9  and  C_10
REMARK    6  A    between atoms: C_13  and  C_14
REMARK    7  A    between atoms: C_14  and  N_15
REMARK    8  A    between atoms: C_16  and  C_18
REMARK                            x       y       z     vdW  Elec       q    Type
REMARK                         _______ _______ _______ _____ _____    ______ ____
ROOT
ATOM      7  C   UNL     1      -3.466   2.707  24.825  0.00  0.00    +0.029 C 
ATOM      8  C   UNL     1      -2.779   2.376  24.512  0.00  0.00    +0.005 C 
ATOM      9  C   UNL     1      -2.744   1.567  24.358  0.00  0.00    +0.006 C 
ATOM     13  C   UNL     1      -3.398   1.089  24.517  0.00  0.00    +0.043 C 
ATOM     24  C   UNL     1      -4.086   1.420  24.829  0.00  0.00    -0.033 C 
ATOM     25  C   UNL     1      -4.119   2.230  24.983  0.00  0.00    -0.048 C 
ATOM     26  C   UNL     1      -4.807   2.561  25.296  0.00  0.00    +0.026 C 
ENDROOT
BRANCH   9  10
ATOM     10  C   UNL     1      -2.057   1.234  24.046  0.00  0.00    +0.000 C 
ATOM     11  C   UNL     1      -1.977   1.140  23.230  0.00  0.00    +0.000 C 
ATOM     12  C   UNL     1      -1.449   0.995  24.549  0.00  0.00    +0.000 C 
ENDBRANCH   9  10
BRANCH   7   6
ATOM      6  C   UNL     1      -3.500   3.517  24.979  0.00  0.00    +0.114 C 
BRANCH   6   4
ATOM      4  C   UNL     1      -2.881   3.889  25.378  0.00  0.00    +0.317 C 
ATOM      5  O   UNL     1      -2.801   3.795  26.193  0.00  0.00    -0.250 OA
BRANCH   4   3
ATOM      3  O   UNL     1      -2.342   4.354  24.961  0.00  0.00    -0.448 OA
BRANCH   3   2
ATOM      1  C   UNL     1      -1.267   5.295  24.973  0.00  0.00    +0.051 C 
ATOM      2  C   UNL     1      -1.896   4.923  25.357  0.00  0.00    +0.209 C 
ENDBRANCH   3   2
ENDBRANCH   4   3
ENDBRANCH   6   4
ENDBRANCH   7   6
BRANCH  13  14
ATOM     14  C   UNL     1      -3.364   0.278  24.362  0.00  0.00    +0.120 C 
BRANCH  14  15
ATOM     15  N   UNL     1      -3.995  -0.097  23.987  0.00  0.00    -0.201 NA
ATOM     16  C   UNL     1      -4.122  -0.905  24.099  0.00  0.00    +0.265 C 
ATOM     17  O   UNL     1      -4.753  -1.280  23.724  0.00  0.00    -0.268 OA
BRANCH  16  18
ATOM     18  C   UNL     1      -3.617  -1.337  24.588  0.00  0.00    +0.058 A 
ATOM     19  C   UNL     1      -3.723  -1.325  25.406  0.00  0.00    +0.025 A 
ATOM     20  C   UNL     1      -3.218  -1.756  25.895  0.00  0.00    +0.099 A 
ATOM     21  N   UNL     1      -2.605  -2.200  25.564  0.00  0.00    -0.242 NA
ATOM     22  C   UNL     1      -2.498  -2.212  24.746  0.00  0.00    +0.099 A 
ATOM     23  C   UNL     1      -3.004  -1.780  24.258  0.00  0.00    +0.025 A 
ENDBRANCH  16  18
ENDBRANCH  14  15
ENDBRANCH  13  14
TORSDOF 8
ENDMDL
MODEL 4
REMARK VINA RESULT:      -9.3      2.189      4.538
REMARK  Name = 
REMARK  8 active torsions:
REMARK  status: ('A' for Active; 'I' for Inactive)
REMARK    1  A    between atoms: C_2  and  O_3
REMARK    2  A    between atoms: O_3  and  C_4
REMARK    3  A    between atoms: C_4  and  C_6
REMARK    4  A    between atoms: C_6  and  C_7
REMARK    5  A    between atoms: C_9  and  C_10
REMARK    6  A    between atoms: C_13  and  C_14
REMARK    7  A    between atoms: C_14  and  N_15
REMARK    8  A    between atoms: C_16  and  C_18
REMARK                            x       y       z     vdW  Elec       q    Type
REMARK                         _______ _______ _______ _____ _____    ______ ____
ROOT
ATOM      7  C   UNL     1      -1.391   0.650  24.948  0.00  0.00    +0.029 C 
ATOM      8  C   UNL     1      -2.033   0.152  24.806  0.00  0.00    +0.005 C 
ATOM      9  C   UNL     1      -2.786   0.469  24.700  0.00  0.00    +0.006 C 
ATOM     13  C   UNL     1      -2.898   1.286  24.736  0.00  0.00    +0.043 C 
ATOM     24  C   UNL     1      -2.257   1.785  24.878  0.00  0.00    -0.033 C 
ATOM     25  C   UNL     1      -1.503   1.466  24.984  0.00  0.00    -0.048 C 
ATOM     26  C   UNL     1      -0.861   1.965  25.126  0.00  0.00    +0.026 C 
ENDROOT
BRANCH   9  10
ATOM     10  C   UNL     1      -3.428  -0.029  24.558  0.00  0.00    +0.000 C 
ATOM     11  C   UNL     1      -3.668  -0.184  23.784  0.00  0.00    +0.000 C 
ATOM     12  C   UNL     1      -3.831  -0.372  25.190  0.00  0.00    +0.000 C 
ENDBRANCH   9  10
BRANCH   7   6
ATOM      6  C   UNL     1      -0.637   0.332  25.053  0.00  0.00    +0.114 C 
BRANCH   6   4
ATOM      4  C   UNL     1      -0.356  -0.245  24.537  0.00  0.00    +0.317 C 
ATOM      5  O   UNL     1      -0.437  -1.044  24.727  0.00  0.00    -0.250 OA
BRANCH   4   3
ATOM      3  O   UNL     1       0.008  -0.026  23.829  0.00  0.00    -0.448 OA
BRANCH   3   2
ATOM      1  C   UNL     1       1.030  -0.227  22.851  0.00  0.00    +0.051 C 
ATOM      2  C   UNL     1       0.618  -0.484  23.519  0.00  0.00    +0.209 C 
ENDBRANCH   3   2
ENDBRANCH   4   3
ENDBRANCH   6   4
ENDBRANCH   7   6
BRANCH  13  14
ATOM     14  C   UNL     1      -3.652   1.604  24.630  0.00  0.00    +0.120 C 
BRANCH  14  15
ATOM     15  N   UNL     1      -3.779   2.183  24.057  0.00  0.00    -0.201 NA
ATOM     16  C   UNL     1      -4.392   2.728  24.148  0.00  0.00    +0.265 C 
ATOM     17  O   UNL     1      -4.519   3.307  23.575  0.00  0.00    -0.268 OA
BRANCH  16  18
ATOM     18  C   UNL     1      -4.878   2.693  24.814  0.00  0.00    +0.058 A 
ATOM     19  C   UNL     1      -5.561   2.230  24.804  0.00  0.00    +0.025 A 
ATOM     20  C   UNL     1      -6.046   2.195  25.470  0.00  0.00    +0.099 A 
ATOM     21  N   UNL     1      -5.849   2.624  26.147  0.00  0.00    -0.242 NA
ATOM     22  C   UNL     1      -5.166   3.088  26.157  0.00  0.00    +0.099 A 
ATOM     23  C   UNL     1      -4.680   3.123  25.490  0.00  0.00    +0.025 A 
ENDBRANCH  16  18
ENDBRANCH  14  15
ENDBRANCH  13  14
TORSDOF 8
ENDMDL
MODEL 5
REMARK VINA RESULT:      -9.2      1.713      2.476
REMARK  Name = 
REMARK  8 active torsions:
REMARK  status: ('A' for Active; 'I' for Inactive)
REMARK    1  A    between atoms: C_2  and  O_3
REMARK    2  A    between atoms: O_3  and  C_4
REMARK    3  A    between atoms: C_4  and  C_6
REMARK    4  A    between atoms: C_6  and  C_7
REMARK    5  A    between atoms: C_9  and  C_10
REMARK    6  A    between atoms: C_13  and  C_14
REMARK    7  A    between atoms: C_14  and  N_15
REMARK    8  A    between atoms: C_16  and  C_18
REMARK                            x       y       z     vdW  Elec       q    Type
REMARK                         _______ _______ _______ _____ _____    ______ ____
ROOT
ATOM      7  C   UNL     1      -1.258   1.891  24.893  0.00  0.00    +0.029 C 
ATOM      8  C   UNL     1      -1.935   1.930  24.423  0.00  0.00    +0.005 C 
ATOM      9  C   UNL     1      -2.481   1.313  24.436  0.00  0.00    +0.006 C 
ATOM     13  C   UNL     1      -2.351   0.657  24.920  0.00  0.00    +0.043 C 
ATOM     24  C   UNL     1      -1.675   0.618  25.390  0.00  0.00    -0.033 C 
ATOM     25  C   UNL     1      -1.128   1.235  25.376  0.00  0.00    -0.048 C 
ATOM     26  C   UNL     1      -0.450   1.197  25.846  0.00  0.00    +0.026 C 
ENDROOT
BRANCH   9  10
ATOM     10  C   UNL     1      -3.159   1.351  23.967  0.00  0.00    +0.000 C 
ATOM     11  C   UNL     1      -3.865   1.641  24.281  0.00  0.00    +0.000 C 
ATOM     12  C   UNL     1      -3.130   1.099  23.182  0.00  0.00    +0.000 C 
ENDBRANCH   9  10
BRANCH   7   6
ATOM      6  C   UNL     1      -0.710   2.508  24.880  0.00  0.00    +0.114 C 
BRANCH   6   4
ATOM      4  C   UNL     1      -0.911   3.232  24.538  0.00  0.00    +0.317 C 
ATOM      5  O   UNL     1      -0.803   3.350  23.729  0.00  0.00    -0.250 OA
BRANCH   4   3
ATOM      3  O   UNL     1      -1.220   3.837  25.006  0.00  0.00    -0.448 OA
BRANCH   3   2
ATOM      1  C   UNL     1      -1.443   5.238  25.183  0.00  0.00    +0.051 C 
ATOM      2  C   UNL     1      -0.996   4.619  24.870  0.00  0.00    +0.209 C 
ENDBRANCH   3   2
ENDBRANCH   4   3
ENDBRANCH   6   4
ENDBRANCH   7   6
BRANCH  13  14
ATOM     14  C   UNL     1      -2.899   0.039  24.933  0.00  0.00    +0.120 C 
BRANCH  14  15
ATOM     15  N   UNL     1      -3.204  -0.226  25.652  0.00  0.00    -0.201 NA
ATOM     16  C   UNL     1      -3.469  -1.005  25.727  0.00  0.00    +0.265 C 
ATOM     17  O   UNL     1      -3.774  -1.270  26.446  0.00  0.00    -0.268 OA
BRANCH  16  18
ATOM     18  C   UNL     1      -3.427  -1.517  25.082  0.00  0.00    +0.058 A 
ATOM     19  C   UNL     1      -2.741  -1.956  24.946  0.00  0.00    +0.025 A 
ATOM     20  C   UNL     1      -2.700  -2.468  24.301  0.00  0.00    +0.099 A 
ATOM     21  N   UNL     1      -3.345  -2.542  23.791  0.00  0.00    -0.242 NA
ATOM     22  C   UNL     1      -4.030  -2.103  23.927  0.00  0.00    +0.099 A 
ATOM     23  C   UNL     1      -4.072  -1.591  24.573  0.00  0.00    +0.025 A 
ENDBRANCH  16  18
ENDBRANCH  14  15
ENDBRANCH  13  14
TORSDOF 8
ENDMDL
MODEL 6
REMARK VINA RESULT:      -9.1      2.091      5.004
REMARK  Name = 
REMARK  8 active torsions:
REMARK  status: ('A' for Active; 'I' for Inactive)
REMARK    1  A    between atoms: C_2  and  O_3
REMARK    2  A    between atoms: O_3  and  C_4
REMARK    3  A    between atoms: C_4  and  C_6
REMARK    4  A    between atoms: C_6  and  C_7
REMARK    5  A    between atoms: C_9  and  C_10
REMARK    6  A    between atoms: C_13  and  C_14
REMARK    7  A    between atoms: C_14  and  N_15
REMARK    8  A    between atoms: C_16  and  C_18
REMARK                            x       y       z     vdW  Elec       q    Type
REMARK                         _______ _______ _______ _____ _____    ______ ____
ROOT
ATOM      7  C   UNL     1      -2.279  -0.521  25.032  0.00  0.00    +0.029 C 
ATOM      8  C   UNL     1      -2.848  -0.094  24.616  0.00  0.00    +0.005 C 
ATOM      9  C   UNL     1      -2.758   0.718  24.508  0.00  0.00    +0.006 C 
ATOM     13  C   UNL     1      -2.098   1.104  24.817  0.00  0.00    +0.043 C 
ATOM     24  C   UNL     1      -1.527   0.678  25.233  0.00  0.00    -0.033 C 
ATOM     25  C   UNL     1      -1.618  -0.135  25.341  0.00  0.00    -0.048 C 
ATOM     26  C   UNL     1      -1.048  -0.562  25.757  0.00  0.00    +0.026 C 
ENDROOT
BRANCH   9  10
ATOM     10  C   UNL     1      -3.328   1.146  24.092  0.00  0.00    +0.000 C 
ATOM     11  C   UNL     1      -3.221   1.306  23.289  0.00  0.00    +0.000 C 
ATOM     12  C   UNL     1      -4.006   1.413  24.478  0.00  0.00    +0.000 C 
ENDBRANCH   9  10
BRANCH   7   6
ATOM      6  C   UNL     1      -2.369  -1.334  25.140  0.00  0.00    +0.114 C 
BRANCH   6   4
ATOM      4  C   UNL     1      -3.120  -1.673  25.122  0.00  0.00    +0.317 C 
ATOM      5  O   UNL     1      -3.600  -1.650  25.793  0.00  0.00    -0.250 OA
BRANCH   4   3
ATOM      3  O   UNL     1      -3.394  -2.034  24.432  0.00  0.00    -0.448 OA
BRANCH   3   2
ATOM      1  C   UNL     1      -4.122  -3.093  23.808  0.00  0.00    +0.051 C 
ATOM      2  C   UNL     1      -3.731  -2.786  24.466  0.00  0.00    +0.209 C 
ENDBRANCH   3   2
ENDBRANCH   4   3
ENDBRANCH   6   4
ENDBRANCH   7   6
BRANCH  13  14
ATOM     14  C   UNL     1      -2.007   1.918  24.709  0.00  0.00    +0.120 C 
BRANCH  14  15
ATOM     15  N   UNL     1      -1.286   2.221  24.445  0.00  0.00    -0.201 NA
ATOM     16  C   UNL     1      -1.073   2.997  24.629  0.00  0.00    +0.265 C 
ATOM     17  O   UNL     1      -0.353   3.301  24.366  0.00  0.00    -0.268 OA
BRANCH  16  18
ATOM     18  C   UNL     1      -1.581   3.469  25.077  0.00  0.00    +0.058 A 
ATOM     19  C   UNL     1      -1.589   3.401  25.899  0.00  0.00    +0.025 A 
ATOM     20  C   UNL     1      -2.097   3.872  26.347  0.00  0.00    +0.099 A 
ATOM     21  N   UNL     1      -2.597   4.412  25.972  0.00  0.00    -0.242 NA
ATOM     22  C   UNL     1      -2.588   4.479  25.149  0.00  0.00    +0.099 A 
ATOM     23  C   UNL     1      -2.080   4.007  24.702  0.00  0.00    +0.025 A 
ENDBRANCH  16  18
ENDBRANCH  14  15
ENDBRANCH  13  14
TORSDOF 8
ENDMDL
