MODEL 1
REMARK VINA RESULT:      -7.1      0.000      0.000
REMARK  Name = 
REMARK  4 active torsions:
REMARK  status: ('A' for Active; 'I' for Inactive)
REMARK    1  A    between atoms: C_2  and  N_4
REMARK    2  A    between atoms: N_7  and  C_8
REMARK    3  A    between atoms: C_8  and  C_9
REMARK    4  A    between atoms: C_12  and  N_15
REMARK                            x       y       z     vdW  Elec       q    Type
REMARK                         _______ _______ _______ _____ _____    ______ ____
ROOT
ATOM      9  C   UNL     1      -3.980   1.364  24.682  0.00  0.00    +0.169 C 
ATOM     10  O   UNL     1      -4.786   1.516  24.768  0.00  0.00    -0.350 OA
ATOM     11  C   UNL     1      -4.880   2.323  24.912  0.00  0.00    +0.161 C 
ATOM     12  C   UNL     1      -4.131   2.669  24.914  0.00  0.00    +0.121 C 
ATOM     13  C   UNL     1      -3.575   2.077  24.772  0.00  0.00    +0.198 C 
ATOM     14  O   UNL     1      -2.757   2.180  24.728  0.00  0.00    -0.219 OA
ENDROOT
BRANCH  12  15
ATOM     15  N   UNL     1      -3.968   3.469  25.037  0.00  0.00    -0.267 NA
ATOM     16  C   UNL     1      -3.866   3.974  24.392  0.00  0.00    +0.090 C 
ATOM     17  C   UNL     1      -3.906   3.764  25.805  0.00  0.00    +0.090 C 
ENDBRANCH  12  15
BRANCH   9   8
ATOM      8  C   UNL     1      -3.638   0.628  24.531  0.00  0.00    +0.149 C 
BRANCH   8   7
ATOM      4  N   UNL     1      -4.158  -1.488  24.659  0.00  0.00    -0.189 NA
ATOM      5  C   UNL     1      -3.736  -0.797  24.500  0.00  0.00    +0.339 C 
ATOM      6  O   UNL     1      -2.989  -0.841  24.152  0.00  0.00    -0.249 OA
ATOM      7  N   UNL     1      -4.061  -0.062  24.690  0.00  0.00    -0.185 NA
BRANCH   4   2
ATOM      1  C   UNL     1      -3.323  -2.596  24.998  0.00  0.00    +0.023 C 
ATOM      2  C   UNL     1      -3.833  -2.223  24.469  0.00  0.00    +0.097 C 
ATOM      3  C   UNL     1      -4.019  -2.583  23.750  0.00  0.00    +0.023 C 
ENDBRANCH   4   2
ENDBRANCH   8   7
ENDBRANCH   9   8
TORSDOF 4
ENDMDL
MODEL 2
REMARK VINA RESULT:      -7.0      1.043      4.457
REMARK  Name = 
REMARK  4 active torsions:
REMARK  status: ('A' for Active; 'I' for Inactive)
REMARK    1  A    between atoms: C_2  and  N_4
REMARK    2  A    between atoms: N_7  and  C_8
REMARK    3  A    between atoms: C_8  and  C_9
REMARK    4  A    between atoms: C_12  and  N_15
REMARK                            x       y       z     vdW  Elec       q    Type
REMARK                         _______ _______ _______ _____ _____    ______ ____
ROOT
ATOM      9  C   UNL     1      -4.017  -0.354  24.976  0.00  0.00    +0.169 C 
ATOM     10  O   UNL     1      -3.797  -0.594  25.733  0.00  0.00    -0.350 OA
ATOM     11  C   UNL     1      -3.466  -1.348  25.676  0.00  0.00    +0.161 C 
ATOM     12  C   UNL     1      -3.481  -1.572  24.882  0.00  0.00    +0.121 C 
ATOM     13  C   UNL     1      -3.822  -0.957  24.449  0.00  0.00    +0.198 C 
ATOM     14  O   UNL     1      -3.945  -0.949  23.633  0.00  0.00    -0.219 OA
ENDROOT
BRANCH  12  15
ATOM     15  N   UNL     1      -3.204  -2.286  24.574  0.00  0.00    -0.267 NA
ATOM     16  C   UNL     1      -3.734  -2.888  24.385  0.00  0.00    +0.090 C 
ATOM     17  C   UNL     1      -2.395  -2.397  24.456  0.00  0.00    +0.090 C 
ENDBRANCH  12  15
BRANCH   9   8
ATOM      8  C   UNL     1      -4.371   0.366  24.779  0.00  0.00    +0.149 C 
BRANCH   8   7
ATOM      4  N   UNL     1      -4.327   2.453  25.414  0.00  0.00    -0.189 NA
ATOM      5  C   UNL     1      -4.534   1.767  25.006  0.00  0.00    +0.339 C 
ATOM      6  O   UNL     1      -5.112   1.795  24.417  0.00  0.00    -0.249 OA
ATOM      7  N   UNL     1      -4.164   1.052  25.187  0.00  0.00    -0.185 NA
BRANCH   4   2
ATOM      1  C   UNL     1      -4.346   3.691  24.701  0.00  0.00    +0.023 C 
ATOM      2  C   UNL     1      -4.698   3.168  25.233  0.00  0.00    +0.097 C 
ATOM      3  C   UNL     1      -5.420   3.359  25.584  0.00  0.00    +0.023 C 
ENDBRANCH   4   2
ENDBRANCH   8   7
ENDBRANCH   9   8
TORSDOF 4
ENDMDL
MODEL 3
REMARK VINA RESULT:      -6.6      2.222      2.673
REMARK  Name = 
REMARK  4 active torsions:
REMARK  status: ('A' for Active; 'I' for Inactive)
REMARK    1  A    between atoms: C_2  and  N_4
REMARK    2  A    between atoms: N_7  and  C_8
REMARK    3  A    between atoms: C_8  and  C_9
REMARK    4  A    between atoms: C_12  and  N_15
REMARK                            x       y       z     vdW  Elec       q    Type
REMARK                         _______ _______ _______ _____ _____    ______ ____
ROOT
ATOM      9  C   UNL     1      -1.531   0.762  24.951  0.00  0.00    +0.169 C 
ATOM     10  O   UNL     1      -0.774   0.522  24.727  0.00  0.00    -0.350 OA
ATOM     11  C   UNL     1      -0.282   1.184  24.745  0.00  0.00    +0.161 C 
ATOM     12  C   UNL     1      -0.736   1.832  24.979  0.00  0.00    +0.121 C 
ATOM     13  C   UNL     1      -1.508   1.571  25.106  0.00  0.00    +0.198 C 
ATOM     14  O   UNL     1      -2.144   2.038  25.347  0.00  0.00    -0.219 OA
ENDROOT
BRANCH  12  15
ATOM     15  N   UNL     1      -0.464   2.607  25.070  0.00  0.00    -0.267 NA
ATOM     16  C   UNL     1      -0.168   2.857  25.798  0.00  0.00    +0.090 C 
ATOM     17  C   UNL     1      -0.488   3.129  24.433  0.00  0.00    +0.090 C 
ENDBRANCH  12  15
BRANCH   9   8
ATOM      8  C   UNL     1      -2.197   0.276  25.008  0.00  0.00    +0.149 C 
BRANCH   8   7
ATOM      4  N   UNL     1      -2.899  -1.650  24.261  0.00  0.00    -0.189 NA
ATOM      5  C   UNL     1      -2.868  -0.943  24.684  0.00  0.00    +0.339 C 
ATOM      6  O   UNL     1      -3.476  -0.746  25.206  0.00  0.00    -0.249 OA
ATOM      7  N   UNL     1      -2.228  -0.431  24.585  0.00  0.00    -0.185 NA
BRANCH   4   2
ATOM      1  C   UNL     1      -4.215  -2.072  23.894  0.00  0.00    +0.023 C 
ATOM      2  C   UNL     1      -3.540  -2.162  24.360  0.00  0.00    +0.097 C 
ATOM      3  C   UNL     1      -3.505  -2.762  24.925  0.00  0.00    +0.023 C 
ENDBRANCH   4   2
ENDBRANCH   8   7
ENDBRANCH   9   8
TORSDOF 4
ENDMDL
MODEL 4
REMARK VINA RESULT:      -6.6      2.763      5.277
REMARK  Name = 
REMARK  4 active torsions:
REMARK  status: ('A' for Active; 'I' for Inactive)
REMARK    1  A    between atoms: C_2  and  N_4
REMARK    2  A    between atoms: N_7  and  C_8
REMARK    3  A    between atoms: C_8  and  C_9
REMARK    4  A    between atoms: C_12  and  N_15
REMARK                            x       y       z     vdW  Elec       q    Type
REMARK                         _______ _______ _______ _____ _____    ______ ____
ROOT
ATOM      9  C   UNL     1      -0.838   0.707  25.006  0.00  0.00    +0.169 C 
ATOM     10  O   UNL     1      -0.493   0.581  24.268  0.00  0.00    -0.350 OA
ATOM     11  C   UNL     1      -0.475  -0.232  24.130  0.00  0.00    +0.161 C 
ATOM     12  C   UNL     1      -0.809  -0.608  24.784  0.00  0.00    +0.121 C 
ATOM     13  C   UNL     1      -1.033  -0.028  25.326  0.00  0.00    +0.198 C 
ATOM     14  O   UNL     1      -1.390  -0.160  26.058  0.00  0.00    -0.219 OA
ENDROOT
BRANCH  12  15
ATOM     15  N   UNL     1      -0.901  -1.423  24.880  0.00  0.00    -0.267 NA
ATOM     16  C   UNL     1      -1.559  -1.804  24.561  0.00  0.00    +0.090 C 
ATOM     17  C   UNL     1      -0.334  -1.856  25.295  0.00  0.00    +0.090 C 
ENDBRANCH  12  15
BRANCH   9   8
ATOM      8  C   UNL     1      -0.966   1.440  25.363  0.00  0.00    +0.149 C 
BRANCH   8   7
ATOM      4  N   UNL     1      -1.475   3.484  24.790  0.00  0.00    -0.189 NA
ATOM      5  C   UNL     1      -1.251   2.836  25.249  0.00  0.00    +0.339 C 
ATOM      6  O   UNL     1      -1.086   2.935  26.051  0.00  0.00    -0.249 OA
ATOM      7  N   UNL     1      -1.191   2.088  24.904  0.00  0.00    -0.185 NA
BRANCH   4   2
ATOM      1  C   UNL     1      -0.934   4.786  25.023  0.00  0.00    +0.023 C 
ATOM      2  C   UNL     1      -1.535   4.232  25.135  0.00  0.00    +0.097 C 
ATOM      3  C   UNL     1      -2.195   4.425  25.590  0.00  0.00    +0.023 C 
ENDBRANCH   4   2
ENDBRANCH   8   7
ENDBRANCH   9   8
TORSDOF 4
ENDMDL
MODEL 5
REMARK VINA RESULT:      -6.5      1.572      4.570
REMARK  Name = 
REMARK  4 active torsions:
REMARK  status: ('A' for Active; 'I' for Inactive)
REMARK    1  A    between atoms: C_2  and  N_4
REMARK    2  A    between atoms: N_7  and  C_8
REMARK    3  A    between atoms: C_8  and  C_9
REMARK    4  A    between atoms: C_12  and  N_15
REMARK                            x       y       z     vdW  Elec       q    Type
REMARK                         _______ _______ _______ _____ _____    ______ ____
ROOT
ATOM      9  C   UNL     1      -2.780   0.735  24.624  0.00  0.00    +0.169 C 
ATOM     10  O   UNL     1      -2.101   0.270  24.577  0.00  0.00    -0.350 OA
ATOM     11  C   UNL     1      -2.332  -0.522  24.594  0.00  0.00    +0.161 C 
ATOM     12  C   UNL     1      -3.155  -0.545  24.651  0.00  0.00    +0.121 C 
ATOM     13  C   UNL     1      -3.431   0.232  24.670  0.00  0.00    +0.198 C 
ATOM     14  O   UNL     1      -4.221   0.464  24.725  0.00  0.00    -0.219 OA
ENDROOT
BRANCH  12  15
ATOM     15  N   UNL     1      -3.620  -1.226  24.684  0.00  0.00    -0.267 NA
ATOM     16  C   UNL     1      -4.070  -1.450  24.031  0.00  0.00    +0.090 C 
ATOM     17  C   UNL     1      -3.632  -1.683  25.371  0.00  0.00    +0.090 C 
ENDBRANCH  12  15
BRANCH   9   8
ATOM      8  C   UNL     1      -2.803   1.561  24.626  0.00  0.00    +0.149 C 
BRANCH   8   7
ATOM      4  N   UNL     1      -1.645   3.239  25.403  0.00  0.00    -0.189 NA
ATOM      5  C   UNL     1      -2.213   2.811  24.985  0.00  0.00    +0.339 C 
ATOM      6  O   UNL     1      -2.760   3.206  24.510  0.00  0.00    -0.249 OA
ATOM      7  N   UNL     1      -2.235   1.988  25.043  0.00  0.00    -0.185 NA
BRANCH   4   2
ATOM      1  C   UNL     1      -1.022   4.429  24.915  0.00  0.00    +0.023 C 
ATOM      2  C   UNL     1      -1.623   4.062  25.345  0.00  0.00    +0.097 C 
ATOM      3  C   UNL     1      -2.203   4.517  25.716  0.00  0.00    +0.023 C 
ENDBRANCH   4   2
ENDBRANCH   8   7
ENDBRANCH   9   8
TORSDOF 4
ENDMDL
