MODEL 1
REMARK VINA RESULT:     -11.3      0.000      0.000
REMARK  Name = 
REMARK  8 active torsions:
REMARK  status: ('A' for Active; 'I' for Inactive)
REMARK    1  A    between atoms: O_2  and  C_3
REMARK    2  A    between atoms: C_4  and  C_9
REMARK    3  A    between atoms: N_11  and  C_12
REMARK    4  A    between atoms: C_12  and  C_13
REMARK    5  A    between atoms: C_17  and  C_18
REMARK    6  A    between atoms: C_18  and  C_19
REMARK    7  A    between atoms: N_21  and  C_22
REMARK    8  A    between atoms: C_28  and  C_29
REMARK                            x       y       z     vdW  Elec       q    Type
REMARK                         _______ _______ _______ _____ _____    ______ ____
ROOT
ATOM     13  C   UNL     1      -3.723   2.016  24.629  0.00  0.00    +0.043 C 
ATOM     14  C   UNL     1      -3.105   1.761  24.145  0.00  0.00    -0.033 C 
ATOM     15  C   UNL     1      -3.161   1.037  23.753  0.00  0.00    -0.048 C 
ATOM     16  C   UNL     1      -2.543   0.782  23.269  0.00  0.00    +0.026 C 
ATOM     17  C   UNL     1      -3.834   0.569  23.845  0.00  0.00    +0.027 C 
ATOM     27  C   UNL     1      -4.451   0.825  24.328  0.00  0.00    +0.005 C 
ATOM     28  C   UNL     1      -4.396   1.548  24.721  0.00  0.00    +0.006 C 
ENDROOT
BRANCH  28  29
ATOM     29  C   UNL     1      -5.013   1.804  25.205  0.00  0.00    +0.000 C 
ATOM     30  C   UNL     1      -5.049   1.559  25.992  0.00  0.00    +0.000 C 
ATOM     31  C   UNL     1      -5.594   2.305  24.902  0.00  0.00    +0.000 C 
ENDBRANCH  28  29
BRANCH  13  12
ATOM     12  C   UNL     1      -3.666   2.740  25.021  0.00  0.00    +0.120 C 
BRANCH  12  11
ATOM      9  C   UNL     1      -2.749   3.748  25.450  0.00  0.00    +0.268 C 
ATOM     10  O   UNL     1      -3.093   3.742  26.200  0.00  0.00    -0.268 OA
ATOM     11  N   UNL     1      -3.035   3.248  24.860  0.00  0.00    -0.201 NA
BRANCH   9   4
ATOM      3  C   UNL     1      -1.347   4.022  25.465  0.00  0.00    +0.143 A 
ATOM      4  C   UNL     1      -2.118   4.256  25.290  0.00  0.00    +0.089 A 
ATOM      5  C   UNL     1      -2.259   4.996  24.954  0.00  0.00    +0.008 A 
ATOM      6  C   UNL     1      -1.629   5.503  24.794  0.00  0.00    +0.000 A 
ATOM      7  C   UNL     1      -0.857   5.270  24.969  0.00  0.00    +0.003 A 
ATOM      8  C   UNL     1      -0.716   4.530  25.304  0.00  0.00    +0.037 A 
BRANCH   3   2
ATOM      1  C   UNL     1      -0.431   3.036  25.945  0.00  0.00    +0.252 C 
ATOM      2  O   UNL     1      -1.206   3.281  25.800  0.00  0.00    -0.471 OA
ENDBRANCH   3   2
ENDBRANCH   9   4
ENDBRANCH  12  11
ENDBRANCH  13  12
BRANCH  17  18
ATOM     18  C   UNL     1      -3.889  -0.155  23.452  0.00  0.00    +0.091 C 
BRANCH  18  19
ATOM     19  C   UNL     1      -3.960  -0.854  23.885  0.00  0.00    +0.242 C 
ATOM     20  O   UNL     1      -4.699  -1.092  24.167  0.00  0.00    -0.273 OA
ATOM     21  N   UNL     1      -3.293  -1.315  24.036  0.00  0.00    -0.207 NA
BRANCH  21  22
ATOM     22  C   UNL     1      -3.364  -2.014  24.469  0.00  0.00    +0.095 C 
ATOM     23  C   UNL     1      -3.614  -2.743  24.174  0.00  0.00    +0.022 C 
ATOM     24  C   UNL     1      -3.602  -3.286  24.795  0.00  0.00    +0.002 C 
ATOM     25  C   UNL     1      -3.343  -2.892  25.472  0.00  0.00    +0.002 C 
ATOM     26  C   UNL     1      -3.196  -2.107  25.271  0.00  0.00    +0.022 C 
ENDBRANCH  21  22
ENDBRANCH  18  19
ENDBRANCH  17  18
TORSDOF 8
ENDMDL
MODEL 2
REMARK VINA RESULT:     -11.0      1.124      2.036
REMARK  Name = 
REMARK  8 active torsions:
REMARK  status: ('A' for Active; 'I' for Inactive)
REMARK    1  A    between atoms: O_2  and  C_3
REMARK    2  A    between atoms: C_4  and  C_9
REMARK    3  A    between atoms: N_11  and  C_12
REMARK    4  A    between atoms: C_12  and  C_13
REMARK    5  A    between atoms: C_17  and  C_18
REMARK    6  A    between atoms: C_18  and  C_19
REMARK    7  A    between atoms: N_21  and  C_22
REMARK    8  A    between atoms: C_28  and  C_29
REMARK                            x       y       z     vdW  Elec       q    Type
REMARK                         _______ _______ _______ _____ _____    ______ ____
ROOT
ATOM     13  C   UNL     1      -2.135   1.464  24.898  0.00  0.00    +0.043 C 
ATOM     14  C   UNL     1      -2.898   1.739  24.747  0.00  0.00    -0.033 C 
ATOM     15  C   UNL     1      -3.465   1.230  24.431  0.00  0.00    -0.048 C 
ATOM     16  C   UNL     1      -4.229   1.505  24.281  0.00  0.00    +0.026 C 
ATOM     17  C   UNL     1      -3.269   0.446  24.265  0.00  0.00    +0.027 C 
ATOM     27  C   UNL     1      -2.506   0.171  24.415  0.00  0.00    +0.005 C 
ATOM     28  C   UNL     1      -1.938   0.680  24.731  0.00  0.00    +0.006 C 
ENDROOT
BRANCH  28  29
ATOM     29  C   UNL     1      -1.176   0.405  24.881  0.00  0.00    +0.000 C 
ATOM     30  C   UNL     1      -0.606   0.420  24.284  0.00  0.00    +0.000 C 
ATOM     31  C   UNL     1      -0.981   0.115  25.629  0.00  0.00    +0.000 C 
ENDBRANCH  28  29
BRANCH  13  12
ATOM     12  C   UNL     1      -1.568   1.973  25.214  0.00  0.00    +0.120 C 
BRANCH  12  11
ATOM      9  C   UNL     1      -1.234   3.334  25.496  0.00  0.00    +0.268 C 
ATOM     10  O   UNL     1      -0.920   3.106  26.224  0.00  0.00    -0.268 OA
ATOM     11  N   UNL     1      -1.558   2.768  24.990  0.00  0.00    -0.201 NA
BRANCH   9   4
ATOM      3  C   UNL     1      -1.824   4.635  25.524  0.00  0.00    +0.143 A 
ATOM      4  C   UNL     1      -1.223   4.128  25.272  0.00  0.00    +0.089 A 
ATOM      5  C   UNL     1      -0.613   4.415  24.796  0.00  0.00    +0.008 A 
ATOM      6  C   UNL     1      -0.603   5.209  24.573  0.00  0.00    +0.000 A 
ATOM      7  C   UNL     1      -1.203   5.717  24.825  0.00  0.00    +0.003 A 
ATOM      8  C   UNL     1      -1.813   5.430  25.301  0.00  0.00    +0.037 A 
BRANCH   3   2
ATOM      1  C   UNL     1      -3.074   4.834  26.187  0.00  0.00    +0.252 C 
ATOM      2  O   UNL     1      -2.434   4.348  26.000  0.00  0.00    -0.471 OA
ENDBRANCH   3   2
ENDBRANCH   9   4
ENDBRANCH  12  11
ENDBRANCH  13  12
BRANCH  17  18
ATOM     18  C   UNL     1      -3.836  -0.063  23.948  0.00  0.00    +0.091 C 
BRANCH  18  19
ATOM     19  C   UNL     1      -3.890  -0.840  24.220  0.00  0.00    +0.242 C 
ATOM     20  O   UNL     1      -4.162  -0.993  24.984  0.00  0.00    -0.273 OA
ATOM     21  N   UNL     1      -3.671  -1.465  23.728  0.00  0.00    -0.207 NA
BRANCH  21  22
ATOM     22  C   UNL     1      -3.725  -2.243  23.999  0.00  0.00    +0.095 C 
ATOM     23  C   UNL     1      -4.344  -2.767  23.849  0.00  0.00    +0.022 C 
ATOM     24  C   UNL     1      -4.171  -3.480  24.225  0.00  0.00    +0.002 C 
ATOM     25  C   UNL     1      -3.444  -3.397  24.607  0.00  0.00    +0.002 C 
ATOM     26  C   UNL     1      -3.169  -2.632  24.467  0.00  0.00    +0.022 C 
ENDBRANCH  21  22
ENDBRANCH  18  19
ENDBRANCH  17  18
TORSDOF 8
ENDMDL
MODEL 3
REMARK VINA RESULT:     -11.0      1.132      5.279
REMARK  Name = 
REMARK  8 active torsions:
REMARK  status: ('A' for Active; 'I' for Inactive)
REMARK    1  A    between atoms: O_2  and  C_3
REMARK    2  A    between atoms: C_4  and  C_9
REMARK    3  A    between atoms: N_11  and  C_12
REMARK    4  A    between atoms: C_12  and  C_13
REMARK    5  A    between atoms: C_17  and  C_18
REMARK    6  A    between atoms: C_18  and  C_19
REMARK    7  A    between atoms: N_21  and  C_22
REMARK    8  A    between atoms: C_28  and  C_29
REMARK                            x       y       z     vdW  Elec       q    Type
REMARK                         _______ _______ _______ _____ _____    ______ ____
ROOT
ATOM     13  C   UNL     1      -4.191   0.972  24.446  0.00  0.00    +0.043 C 
ATOM     14  C   UNL     1      -3.549   0.995  23.927  0.00  0.00    -0.033 C 
ATOM     15  C   UNL     1      -3.304   1.714  23.605  0.00  0.00    -0.048 C 
ATOM     16  C   UNL     1      -2.663   1.736  23.086  0.00  0.00    +0.026 C 
ATOM     17  C   UNL     1      -3.700   2.410  23.803  0.00  0.00    +0.027 C 
ATOM     27  C   UNL     1      -4.340   2.388  24.322  0.00  0.00    +0.005 C 
ATOM     28  C   UNL     1      -4.586   1.669  24.644  0.00  0.00    +0.006 C 
ENDROOT
BRANCH  28  29
ATOM     29  C   UNL     1      -5.226   1.647  25.163  0.00  0.00    +0.000 C 
ATOM     30  C   UNL     1      -5.106   1.753  25.972  0.00  0.00    +0.000 C 
ATOM     31  C   UNL     1      -5.988   1.517  24.873  0.00  0.00    +0.000 C 
ENDBRANCH  28  29
BRANCH  13  12
ATOM     12  C   UNL     1      -4.436   0.253  24.768  0.00  0.00    +0.120 C 
BRANCH  12  11
ATOM      9  C   UNL     1      -3.971  -1.084  24.963  0.00  0.00    +0.268 C 
ATOM     10  O   UNL     1      -4.083  -1.004  25.777  0.00  0.00    -0.268 OA
ATOM     11  N   UNL     1      -4.147  -0.456  24.458  0.00  0.00    -0.201 NA
BRANCH   9   4
ATOM      3  C   UNL     1      -2.904  -2.020  24.803  0.00  0.00    +0.143 A 
ATOM      4  C   UNL     1      -3.683  -1.793  24.654  0.00  0.00    +0.089 A 
ATOM      5  C   UNL     1      -4.173  -2.274  24.197  0.00  0.00    +0.008 A 
ATOM      6  C   UNL     1      -3.885  -2.982  23.888  0.00  0.00    +0.000 A 
ATOM      7  C   UNL     1      -3.106  -3.210  24.036  0.00  0.00    +0.003 A 
ATOM      8  C   UNL     1      -2.615  -2.729  24.493  0.00  0.00    +0.037 A 
BRANCH   3   2
ATOM      1  C   UNL     1      -1.605  -1.701  25.306  0.00  0.00    +0.252 C 
ATOM      2  O   UNL     1      -2.413  -1.540  25.260  0.00  0.00    -0.471 OA
ENDBRANCH   3   2
ENDBRANCH   9   4
ENDBRANCH  12  11
ENDBRANCH  13  12
BRANCH  17  18
ATOM     18  C   UNL     1      -3.454   3.129  23.481  0.00  0.00    +0.091 C 
BRANCH  18  19
ATOM     19  C   UNL     1      -3.172   3.727  23.975  0.00  0.00    +0.242 C 
ATOM     20  O   UNL     1      -3.677   4.330  24.224  0.00  0.00    -0.273 OA
ATOM     21  N   UNL     1      -2.384   3.722  24.220  0.00  0.00    -0.207 NA
BRANCH  21  22
ATOM     22  C   UNL     1      -2.102   4.320  24.714  0.00  0.00    +0.095 C 
ATOM     23  C   UNL     1      -2.257   4.395  25.522  0.00  0.00    +0.022 C 
ATOM     24  C   UNL     1      -1.866   5.068  25.794  0.00  0.00    +0.002 C 
ATOM     25  C   UNL     1      -1.471   5.409  25.155  0.00  0.00    +0.002 C 
ATOM     26  C   UNL     1      -1.616   4.947  24.488  0.00  0.00    +0.022 C 
ENDBRANCH  21  22
ENDBRANCH  18  19
ENDBRANCH  17  18
TORSDOF 8
ENDMDL
MODEL 4
REMARK VINA RESULT:     -10.8      0.992      5.633
REMARK  Name = 
REMARK  8 active torsions:
REMARK  status: ('A' for Active; 'I' for Inactive)
REMARK    1  A    between atoms: O_2  and  C_3
REMARK    2  A    between atoms: C_4  and  C_9
REMARK    3  A    between atoms: N_11  and  C_12
REMARK    4  A    between atoms: C_12  and  C_13
REMARK    5  A    between atoms: C_17  and  C_18
REMARK    6  A    between atoms: C_18  and  C_19
REMARK    7  A    between atoms: N_21  and  C_22
REMARK    8  A    between atoms: C_28  and  C_29
REMARK                            x       y       z     vdW  Elec       q    Type
REMARK                         _______ _______ _______ _____ _____    ______ ____
ROOT
ATOM     13  C   UNL     1      -3.866   1.373  24.209  0.00  0.00    +0.043 C 
ATOM     14  C   UNL     1      -4.337   1.617  24.841  0.00  0.00    -0.033 C 
ATOM     15  C   UNL     1      -4.295   2.396  25.109  0.00  0.00    -0.048 C 
ATOM     16  C   UNL     1      -4.766   2.640  25.742  0.00  0.00    +0.026 C 
ATOM     17  C   UNL     1      -3.783   2.931  24.745  0.00  0.00    +0.027 C 
ATOM     27  C   UNL     1      -3.313   2.687  24.114  0.00  0.00    +0.005 C 
ATOM     28  C   UNL     1      -3.354   1.908  23.845  0.00  0.00    +0.006 C 
ENDROOT
BRANCH  28  29
ATOM     29  C   UNL     1      -2.884   1.664  23.213  0.00  0.00    +0.000 C 
ATOM     30  C   UNL     1      -2.126   1.367  23.353  0.00  0.00    +0.000 C 
ATOM     31  C   UNL     1      -3.170   1.716  22.442  0.00  0.00    +0.000 C 
ENDBRANCH  28  29
BRANCH  13  12
ATOM     12  C   UNL     1      -3.908   0.594  23.941  0.00  0.00    +0.120 C 
BRANCH  12  11
ATOM      9  C   UNL     1      -4.007  -0.758  24.394  0.00  0.00    +0.268 C 
ATOM     10  O   UNL     1      -4.649  -0.879  23.890  0.00  0.00    -0.268 OA
ATOM     11  N   UNL     1      -3.636  -0.022  24.420  0.00  0.00    -0.201 NA
BRANCH   9   4
ATOM      3  C   UNL     1      -3.700  -2.142  24.575  0.00  0.00    +0.143 A 
ATOM      4  C   UNL     1      -3.736  -1.373  24.873  0.00  0.00    +0.089 A 
ATOM      5  C   UNL     1      -3.501  -1.220  25.649  0.00  0.00    +0.008 A 
ATOM      6  C   UNL     1      -3.231  -1.835  26.127  0.00  0.00    +0.000 A 
ATOM      7  C   UNL     1      -3.194  -2.604  25.830  0.00  0.00    +0.003 A 
ATOM      8  C   UNL     1      -3.429  -2.757  25.054  0.00  0.00    +0.037 A 
BRANCH   3   2
ATOM      1  C   UNL     1      -3.943  -3.071  23.517  0.00  0.00    +0.252 C 
ATOM      2  O   UNL     1      -3.935  -2.295  23.799  0.00  0.00    -0.471 OA
ENDBRANCH   3   2
ENDBRANCH   9   4
ENDBRANCH  12  11
ENDBRANCH  13  12
BRANCH  17  18
ATOM     18  C   UNL     1      -3.742   3.710  25.014  0.00  0.00    +0.091 C 
BRANCH  18  19
ATOM     19  C   UNL     1      -3.078   4.169  24.846  0.00  0.00    +0.242 C 
ATOM     20  O   UNL     1      -3.032   4.583  24.133  0.00  0.00    -0.273 OA
ATOM     21  N   UNL     1      -2.460   4.216  25.390  0.00  0.00    -0.207 NA
BRANCH  21  22
ATOM     22  C   UNL     1      -1.795   4.675  25.222  0.00  0.00    +0.095 C 
ATOM     23  C   UNL     1      -1.779   5.498  25.155  0.00  0.00    +0.022 C 
ATOM     24  C   UNL     1      -1.005   5.723  24.983  0.00  0.00    +0.002 C 
ATOM     25  C   UNL     1      -0.543   5.041  24.944  0.00  0.00    +0.002 C 
ATOM     26  C   UNL     1      -1.031   4.394  25.092  0.00  0.00    +0.022 C 
ENDBRANCH  21  22
ENDBRANCH  18  19
ENDBRANCH  17  18
TORSDOF 8
ENDMDL
MODEL 5
REMARK VINA RESULT:     -10.7      1.967      2.955
REMARK  Name = 
REMARK  8 active torsions:
REMARK  status: ('A' for Active; 'I' for Inactive)
REMARK    1  A    between atoms: O_2  and  C_3
REMARK    2  A    between atoms: C_4  and  C_9
REMARK    3  A    between atoms: N_11  and  C_12
REMARK    4  A    between atoms: C_12  and  C_13
REMARK    5  A    between atoms: C_17  and  C_18
REMARK    6  A    between atoms: C_18  and  C_19
REMARK    7  A    between atoms: N_21  and  C_22
REMARK    8  A    between atoms: C_28  and  C_29
REMARK                            x       y       z     vdW  Elec       q    Type
REMARK                         _______ _______ _______ _____ _____    ______ ____
ROOT
ATOM     13  C   UNL     1      -0.688   0.772  25.104  0.00  0.00    +0.043 C 
ATOM     14  C   UNL     1      -0.980   0.464  25.813  0.00  0.00    -0.033 C 
ATOM     15  C   UNL     1      -1.202  -0.329  25.856  0.00  0.00    -0.048 C 
ATOM     16  C   UNL     1      -1.494  -0.637  26.565  0.00  0.00    +0.026 C 
ATOM     17  C   UNL     1      -1.131  -0.815  25.193  0.00  0.00    +0.027 C 
ATOM     27  C   UNL     1      -0.839  -0.507  24.486  0.00  0.00    +0.005 C 
ATOM     28  C   UNL     1      -0.618   0.286  24.441  0.00  0.00    +0.006 C 
ENDROOT
BRANCH  28  29
ATOM     29  C   UNL     1      -0.326   0.594  23.734  0.00  0.00    +0.000 C 
ATOM     30  C   UNL     1       0.483   0.571  23.576  0.00  0.00    +0.000 C 
ATOM     31  C   UNL     1      -0.844   0.926  23.184  0.00  0.00    +0.000 C 
ENDBRANCH  28  29
BRANCH  13  12
ATOM     12  C   UNL     1      -0.467   1.566  25.061  0.00  0.00    +0.120 C 
BRANCH  12  11
ATOM      9  C   UNL     1      -0.818   2.882  25.491  0.00  0.00    +0.268 C 
ATOM     10  O   UNL     1      -0.036   3.016  25.718  0.00  0.00    -0.268 OA
ATOM     11  N   UNL     1      -1.034   2.157  25.163  0.00  0.00    -0.201 NA
BRANCH   9   4
ATOM      3  C   UNL     1      -1.285   4.206  25.226  0.00  0.00    +0.143 A 
ATOM      4  C   UNL     1      -1.384   3.474  25.593  0.00  0.00    +0.089 A 
ATOM      5  C   UNL     1      -2.049   3.333  26.062  0.00  0.00    +0.008 A 
ATOM      6  C   UNL     1      -2.614   3.924  26.163  0.00  0.00    +0.000 A 
ATOM      7  C   UNL     1      -2.516   4.657  25.797  0.00  0.00    +0.003 A 
ATOM      8  C   UNL     1      -1.852   4.798  25.328  0.00  0.00    +0.037 A 
BRANCH   3   2
ATOM      1  C   UNL     1      -0.507   5.090  24.417  0.00  0.00    +0.252 C 
ATOM      2  O   UNL     1      -0.621   4.348  24.758  0.00  0.00    -0.471 OA
ENDBRANCH   3   2
ENDBRANCH   9   4
ENDBRANCH  12  11
ENDBRANCH  13  12
BRANCH  17  18
ATOM     18  C   UNL     1      -1.352  -1.609  25.238  0.00  0.00    +0.091 C 
BRANCH  18  19
ATOM     19  C   UNL     1      -1.956  -1.896  24.755  0.00  0.00    +0.242 C 
ATOM     20  O   UNL     1      -1.777  -2.207  24.012  0.00  0.00    -0.273 OA
ATOM     21  N   UNL     1      -2.739  -1.872  25.014  0.00  0.00    -0.207 NA
BRANCH  21  22
ATOM     22  C   UNL     1      -3.343  -2.159  24.531  0.00  0.00    +0.095 C 
ATOM     23  C   UNL     1      -3.864  -1.703  24.083  0.00  0.00    +0.022 C 
ATOM     24  C   UNL     1      -4.375  -2.214  23.686  0.00  0.00    +0.002 C 
ATOM     25  C   UNL     1      -4.169  -2.987  23.889  0.00  0.00    +0.002 C 
ATOM     26  C   UNL     1      -3.532  -2.953  24.411  0.00  0.00    +0.022 C 
ENDBRANCH  21  22
ENDBRANCH  18  19
ENDBRANCH  17  18
TORSDOF 8
ENDMDL
MODEL 6
REMARK VINA RESULT:      -9.5      2.451      4.077
REMARK  Name = 
REMARK  8 active torsions:
REMARK  status: ('A' for Active; 'I' for Inactive)
REMARK    1  A    between atoms: O_2  and  C_3
REMARK    2  A    between atoms: C_4  and  C_9
REMARK    3  A    between atoms: N_11  and  C_12
REMARK    4  A    between atoms: C_12  and  C_13
REMARK    5  A    between atoms: C_17  and  C_18
REMARK    6  A    between atoms: C_18  and  C_19
REMARK    7  A    between atoms: N_21  and  C_22
REMARK    8  A    between atoms: C_28  and  C_29
REMARK                            x       y       z     vdW  Elec       q    Type
REMARK                         _______ _______ _______ _____ _____    ______ ____
ROOT
ATOM     13  C   UNL     1      -2.978   0.250  24.895  0.00  0.00    +0.043 C 
ATOM     14  C   UNL     1      -2.418   0.771  25.205  0.00  0.00    -0.033 C 
ATOM     15  C   UNL     1      -1.626   0.546  25.249  0.00  0.00    -0.048 C 
ATOM     16  C   UNL     1      -1.066   1.067  25.559  0.00  0.00    +0.026 C 
ATOM     17  C   UNL     1      -1.393  -0.199  24.983  0.00  0.00    +0.027 C 
ATOM     27  C   UNL     1      -1.952  -0.720  24.673  0.00  0.00    +0.005 C 
ATOM     28  C   UNL     1      -2.745  -0.496  24.629  0.00  0.00    +0.006 C 
ENDROOT
BRANCH  28  29
ATOM     29  C   UNL     1      -3.305  -1.016  24.320  0.00  0.00    +0.000 C 
ATOM     30  C   UNL     1      -3.527  -0.960  23.527  0.00  0.00    +0.000 C 
ATOM     31  C   UNL     1      -3.643  -1.593  24.803  0.00  0.00    +0.000 C 
ENDBRANCH  28  29
BRANCH  13  12
ATOM     12  C   UNL     1      -3.771   0.475  24.851  0.00  0.00    +0.120 C 
BRANCH  12  11
ATOM      9  C   UNL     1      -4.766   1.499  24.908  0.00  0.00    +0.268 C 
ATOM     10  O   UNL     1      -5.323   0.975  24.599  0.00  0.00    -0.268 OA
ATOM     11  N   UNL     1      -3.990   1.250  25.035  0.00  0.00    -0.201 NA
BRANCH   9   4
ATOM      3  C   UNL     1      -5.563   2.414  25.663  0.00  0.00    +0.143 A 
ATOM      4  C   UNL     1      -4.985   2.274  25.092  0.00  0.00    +0.089 A 
ATOM      5  C   UNL     1      -4.625   2.907  24.704  0.00  0.00    +0.008 A 
ATOM      6  C   UNL     1      -4.844   3.680  24.887  0.00  0.00    +0.000 A 
ATOM      7  C   UNL     1      -5.423   3.822  25.458  0.00  0.00    +0.003 A 
ATOM      8  C   UNL     1      -5.782   3.188  25.846  0.00  0.00    +0.037 A 
BRANCH   3   2
ATOM      1  C   UNL     1      -6.491   1.923  26.632  0.00  0.00    +0.252 C 
ATOM      2  O   UNL     1      -5.922   1.781  26.051  0.00  0.00    -0.471 OA
ENDBRANCH   3   2
ENDBRANCH   9   4
ENDBRANCH  12  11
ENDBRANCH  13  12
BRANCH  17  18
ATOM     18  C   UNL     1      -0.600  -0.423  25.027  0.00  0.00    +0.091 C 
BRANCH  18  19
ATOM     19  C   UNL     1      -0.172  -0.561  24.336  0.00  0.00    +0.242 C 
ATOM     20  O   UNL     1      -0.199  -1.303  23.974  0.00  0.00    -0.273 OA
ATOM     21  N   UNL     1       0.284   0.041  24.005  0.00  0.00    -0.207 NA
BRANCH  21  22
ATOM     22  C   UNL     1       0.712  -0.097  23.313  0.00  0.00    +0.095 C 
ATOM     23  C   UNL     1       1.535  -0.108  23.247  0.00  0.00    +0.022 C 
ATOM     24  C   UNL     1       1.724  -0.266  22.460  0.00  0.00    +0.002 C 
ATOM     25  C   UNL     1       1.019  -0.352  22.040  0.00  0.00    +0.002 C 
ATOM     26  C   UNL     1       0.394  -0.247  22.568  0.00  0.00    +0.022 C 
ENDBRANCH  21  22
ENDBRANCH  18  19
ENDBRANCH  17  18
TORSDOF 8
ENDMDL
MODEL 7
REMARK VINA RESULT:      -9.4      2.255      4.345
REMARK  Name = 
REMARK  8 active torsions:
REMARK  status: ('A' for Active; 'I' for Inactive)
REMARK    1  A    between atoms: O_2  and  C_3
REMARK    2  A    between atoms: C_4  and  C_9
REMARK    3  A    between atoms: N_11  and  C_12
REMARK    4  A    between atoms: C_12  and  C_13
REMARK    5  A    between atoms: C_17  and  C_18
REMARK    6  A    between atoms: C_18  and  C_19
REMARK    7  A    between atoms: N_21  and  C_22
REMARK    8  A    between atoms: C_28  and  C_29
REMARK                            x       y       z     vdW  Elec       q    Type
REMARK                         _______ _______ _______ _____ _____    ______ ____
ROOT
ATOM     13  C   UNL     1      -1.618   2.616  24.229  0.00  0.00    +0.043 C 
ATOM     14  C   UNL     1      -2.051   2.278  23.612  0.00  0.00    -0.033 C 
ATOM     15  C   UNL     1      -2.837   2.499  23.491  0.00  0.00    -0.048 C 
ATOM     16  C   UNL     1      -3.270   2.161  22.875  0.00  0.00    +0.026 C 
ATOM     17  C   UNL     1      -3.190   3.057  23.986  0.00  0.00    +0.027 C 
ATOM     27  C   UNL     1      -2.757   3.394  24.602  0.00  0.00    +0.005 C 
ATOM     28  C   UNL     1      -1.971   3.173  24.724  0.00  0.00    +0.006 C 
ENDROOT
BRANCH  28  29
ATOM     29  C   UNL     1      -1.539   3.510  25.339  0.00  0.00    +0.000 C 
ATOM     30  C   UNL     1      -1.114   4.207  25.214  0.00  0.00    +0.000 C 
ATOM     31  C   UNL     1      -1.530   3.151  26.082  0.00  0.00    +0.000 C 
ENDBRANCH  28  29
BRANCH  13  12
ATOM     12  C   UNL     1      -0.833   2.395  24.350  0.00  0.00    +0.120 C 
BRANCH  12  11
ATOM      9  C   UNL     1       0.182   1.401  24.194  0.00  0.00    +0.268 C 
ATOM     10  O   UNL     1       0.565   1.686  24.867  0.00  0.00    -0.268 OA
ATOM     11  N   UNL     1      -0.516   1.755  23.935  0.00  0.00    -0.201 NA
BRANCH   9   4
ATOM      3  C   UNL     1       0.276  -0.008  23.976  0.00  0.00    +0.143 A 
ATOM      4  C   UNL     1       0.499   0.761  23.779  0.00  0.00    +0.089 A 
ATOM      5  C   UNL     1       1.038   0.891  23.168  0.00  0.00    +0.008 A 
ATOM      6  C   UNL     1       1.354   0.252  22.754  0.00  0.00    +0.000 A 
ATOM      7  C   UNL     1       1.131  -0.518  22.950  0.00  0.00    +0.003 A 
ATOM      8  C   UNL     1       0.592  -0.648  23.561  0.00  0.00    +0.037 A 
BRANCH   3   2
ATOM      1  C   UNL     1      -0.495  -0.908  24.774  0.00  0.00    +0.252 C 
ATOM      2  O   UNL     1      -0.264  -0.138  24.586  0.00  0.00    -0.471 OA
ENDBRANCH   3   2
ENDBRANCH   9   4
ENDBRANCH  12  11
ENDBRANCH  13  12
BRANCH  17  18
ATOM     18  C   UNL     1      -3.975   3.277  23.864  0.00  0.00    +0.091 C 
BRANCH  18  19
ATOM     19  C   UNL     1      -4.535   3.154  24.458  0.00  0.00    +0.242 C 
ATOM     20  O   UNL     1      -4.716   3.761  24.987  0.00  0.00    -0.273 OA
ATOM     21  N   UNL     1      -4.913   2.423  24.524  0.00  0.00    -0.207 NA
BRANCH  21  22
ATOM     22  C   UNL     1      -5.472   2.300  25.118  0.00  0.00    +0.095 C 
ATOM     23  C   UNL     1      -6.191   1.903  25.032  0.00  0.00    +0.022 C 
ATOM     24  C   UNL     1      -6.573   1.909  25.763  0.00  0.00    +0.002 C 
ATOM     25  C   UNL     1      -6.092   2.310  26.300  0.00  0.00    +0.002 C 
ATOM     26  C   UNL     1      -5.411   2.551  25.901  0.00  0.00    +0.022 C 
ENDBRANCH  21  22
ENDBRANCH  18  19
ENDBRANCH  17  18
TORSDOF 8
ENDMDL
MODEL 8
REMARK VINA RESULT:      -9.2      2.694      4.496
REMARK  Name = 
REMARK  8 active torsions:
REMARK  status: ('A' for Active; 'I' for Inactive)
REMARK    1  A    between atoms: O_2  and  C_3
REMARK    2  A    between atoms: C_4  and  C_9
REMARK    3  A    between atoms: N_11  and  C_12
REMARK    4  A    between atoms: C_12  and  C_13
REMARK    5  A    between atoms: C_17  and  C_18
REMARK    6  A    between atoms: C_18  and  C_19
REMARK    7  A    between atoms: N_21  and  C_22
REMARK    8  A    between atoms: C_28  and  C_29
REMARK                            x       y       z     vdW  Elec       q    Type
REMARK                         _______ _______ _______ _____ _____    ______ ____
ROOT
ATOM     13  C   UNL     1      -1.834   1.762  24.459  0.00  0.00    +0.043 C 
ATOM     14  C   UNL     1      -2.057   0.983  24.302  0.00  0.00    -0.033 C 
ATOM     15  C   UNL     1      -1.480   0.403  24.195  0.00  0.00    -0.048 C 
ATOM     16  C   UNL     1      -1.703  -0.376  24.038  0.00  0.00    +0.026 C 
ATOM     17  C   UNL     1      -0.681   0.602  24.245  0.00  0.00    +0.027 C 
ATOM     27  C   UNL     1      -0.458   1.380  24.402  0.00  0.00    +0.005 C 
ATOM     28  C   UNL     1      -1.034   1.961  24.509  0.00  0.00    +0.006 C 
ENDROOT
BRANCH  28  29
ATOM     29  C   UNL     1      -0.812   2.739  24.666  0.00  0.00    +0.000 C 
ATOM     30  C   UNL     1      -0.714   2.992  25.445  0.00  0.00    +0.000 C 
ATOM     31  C   UNL     1      -0.687   3.265  24.043  0.00  0.00    +0.000 C 
ENDBRANCH  28  29
BRANCH  13  12
ATOM     12  C   UNL     1      -2.411   2.342  24.566  0.00  0.00    +0.120 C 
BRANCH  12  11
ATOM      9  C   UNL     1      -3.817   2.589  24.605  0.00  0.00    +0.268 C 
ATOM     10  O   UNL     1      -3.712   3.262  24.139  0.00  0.00    -0.268 OA
ATOM     11  N   UNL     1      -3.167   2.129  24.819  0.00  0.00    -0.201 NA
BRANCH   9   4
ATOM      3  C   UNL     1      -5.015   2.897  25.321  0.00  0.00    +0.143 A 
ATOM      4  C   UNL     1      -4.574   2.376  24.858  0.00  0.00    +0.089 A 
ATOM      5  C   UNL     1      -4.888   1.643  24.648  0.00  0.00    +0.008 A 
ATOM      6  C   UNL     1      -5.644   1.431  24.900  0.00  0.00    +0.000 A 
ATOM      7  C   UNL     1      -6.086   1.951  25.363  0.00  0.00    +0.003 A 
ATOM      8  C   UNL     1      -5.772   2.684  25.573  0.00  0.00    +0.037 A 
BRANCH   3   2
ATOM      1  C   UNL     1      -5.182   4.197  25.890  0.00  0.00    +0.252 C 
ATOM      2  O   UNL     1      -4.701   3.631  25.531  0.00  0.00    -0.471 OA
ENDBRANCH   3   2
ENDBRANCH   9   4
ENDBRANCH  12  11
ENDBRANCH  13  12
BRANCH  17  18
ATOM     18  C   UNL     1      -0.105   0.020  24.138  0.00  0.00    +0.091 C 
BRANCH  18  19
ATOM     19  C   UNL     1       0.455   0.101  23.538  0.00  0.00    +0.242 C 
ATOM     20  O   UNL     1       0.213   0.284  22.769  0.00  0.00    -0.273 OA
ATOM     21  N   UNL     1       1.257  -0.000  23.704  0.00  0.00    -0.207 NA
BRANCH  21  22
ATOM     22  C   UNL     1       1.816   0.081  23.103  0.00  0.00    +0.095 C 
ATOM     23  C   UNL     1       2.493   0.553  23.131  0.00  0.00    +0.022 C 
ATOM     24  C   UNL     1       2.893   0.467  22.415  0.00  0.00    +0.002 C 
ATOM     25  C   UNL     1       2.463  -0.057  21.944  0.00  0.00    +0.002 C 
ATOM     26  C   UNL     1       1.799  -0.296  22.370  0.00  0.00    +0.022 C 
ENDBRANCH  21  22
ENDBRANCH  18  19
ENDBRANCH  17  18
TORSDOF 8
ENDMDL
