MODEL 1
REMARK VINA RESULT:     -12.0      0.000      0.000
REMARK  Name = 
REMARK  4 active torsions:
REMARK  status: ('A' for Active; 'I' for Inactive)
REMARK    1  A    between atoms: C_7  and  C_8
REMARK    2  A    between atoms: C_15  and  O_17
REMARK    3  A    between atoms: O_17  and  C_18
REMARK    4  A    between atoms: C_21  and  C_24
REMARK                            x       y       z     vdW  Elec       q    Type
REMARK                         _______ _______ _______ _____ _____    ______ ____
ROOT
ATOM      8  C   UNL     1      -1.715   2.445  24.364  0.00  0.00    +0.267 C 
ATOM      9  O   UNL     1      -1.206   2.030  23.866  0.00  0.00    -0.268 OA
ATOM     10  N   UNL     1      -2.487   2.178  24.482  0.00  0.00    -0.268 N 
ATOM     11  C   UNL     1      -2.950   2.634  24.991  0.00  0.00    +0.126 C 
ATOM     12  C   UNL     1      -3.734   2.514  25.218  0.00  0.00    +0.164 C 
ATOM     13  O   UNL     1      -4.249   1.909  24.993  0.00  0.00    -0.348 OA
ATOM     14  C   UNL     1      -4.106   1.275  24.484  0.00  0.00    +0.187 C 
ATOM     15  C   UNL     1      -3.414   1.089  24.076  0.00  0.00    +0.217 C 
ATOM     16  C   UNL     1      -2.693   1.491  24.075  0.00  0.00    +0.140 C 
ENDROOT
BRANCH   8   7
ATOM      1  C   UNL     1      -0.492   2.517  25.676  0.00  0.00    +0.154 C 
ATOM      2  N   UNL     1      -0.891   3.161  25.349  0.00  0.00    -0.245 N 
ATOM      3  N   UNL     1      -0.797   3.952  25.567  0.00  0.00    -0.173 NA
ATOM      4  C   UNL     1      -1.301   4.407  25.099  0.00  0.00    +0.081 A 
ATOM      5  C   UNL     1      -1.385   5.227  25.133  0.00  0.00    +0.054 C 
ATOM      6  C   UNL     1      -1.707   3.898  24.592  0.00  0.00    +0.040 A 
ATOM      7  C   UNL     1      -1.453   3.128  24.746  0.00  0.00    +0.132 A 
ENDBRANCH   8   7
BRANCH  15  17
ATOM     17  O   UNL     1      -3.446   0.412  23.607  0.00  0.00    -0.460 OA
BRANCH  17  18
ATOM     18  C   UNL     1      -3.471  -0.334  23.959  0.00  0.00    +0.225 A 
ATOM     19  C   UNL     1      -4.170  -0.773  23.949  0.00  0.00    +0.058 A 
ATOM     20  C   UNL     1      -4.194  -1.518  24.301  0.00  0.00    +0.010 A 
ATOM     21  C   UNL     1      -3.519  -1.825  24.663  0.00  0.00    +0.091 A 
ATOM     22  C   UNL     1      -2.821  -1.387  24.673  0.00  0.00    +0.106 A 
ATOM     23  N   UNL     1      -2.797  -0.642  24.321  0.00  0.00    -0.210 NA
BRANCH  21  24
ATOM     24  C   UNL     1      -3.544  -2.571  25.016  0.00  0.00    +0.420 C 
ATOM     25  F   UNL     1      -3.568  -3.316  25.368  0.00  0.00    -0.166 F 
ATOM     26  F   UNL     1      -3.493  -2.924  24.272  0.00  0.00    -0.166 F 
ATOM     27  F   UNL     1      -3.594  -2.218  25.760  0.00  0.00    -0.166 F 
ENDBRANCH  21  24
ENDBRANCH  17  18
ENDBRANCH  15  17
TORSDOF 4
ENDMDL
MODEL 2
REMARK VINA RESULT:     -11.3      2.842      5.245
REMARK  Name = 
REMARK  4 active torsions:
REMARK  status: ('A' for Active; 'I' for Inactive)
REMARK    1  A    between atoms: C_7  and  C_8
REMARK    2  A    between atoms: C_15  and  O_17
REMARK    3  A    between atoms: O_17  and  C_18
REMARK    4  A    between atoms: C_21  and  C_24
REMARK                            x       y       z     vdW  Elec       q    Type
REMARK                         _______ _______ _______ _____ _____    ______ ____
ROOT
ATOM      8  C   UNL     1      -2.761  -0.329  25.284  0.00  0.00    +0.267 C 
ATOM      9  O   UNL     1      -2.522  -0.259  26.071  0.00  0.00    -0.268 OA
ATOM     10  N   UNL     1      -2.984   0.341  24.859  0.00  0.00    -0.268 N 
ATOM     11  C   UNL     1      -3.213   0.209  24.078  0.00  0.00    +0.126 C 
ATOM     12  C   UNL     1      -3.464   0.759  23.515  0.00  0.00    +0.164 C 
ATOM     13  O   UNL     1      -3.546   1.577  23.596  0.00  0.00    -0.348 OA
ATOM     14  C   UNL     1      -3.399   2.046  24.259  0.00  0.00    +0.187 C 
ATOM     15  C   UNL     1      -3.132   1.814  25.004  0.00  0.00    +0.217 C 
ATOM     16  C   UNL     1      -2.948   1.055  25.272  0.00  0.00    +0.140 C 
ENDROOT
BRANCH   8   7
ATOM      1  C   UNL     1      -1.330  -1.293  24.789  0.00  0.00    +0.154 C 
ATOM      2  N   UNL     1      -2.120  -1.514  24.696  0.00  0.00    -0.245 N 
ATOM      3  N   UNL     1      -2.390  -2.217  24.358  0.00  0.00    -0.173 NA
ATOM      4  C   UNL     1      -3.215  -2.208  24.377  0.00  0.00    +0.081 A 
ATOM      5  C   UNL     1      -3.712  -2.803  24.096  0.00  0.00    +0.054 C 
ATOM      6  C   UNL     1      -3.454  -1.500  24.726  0.00  0.00    +0.040 A 
ATOM      7  C   UNL     1      -2.777  -1.071  24.923  0.00  0.00    +0.132 A 
ENDBRANCH   8   7
BRANCH  15  17
ATOM     17  O   UNL     1      -3.038   2.419  25.556  0.00  0.00    -0.460 OA
BRANCH  17  18
ATOM     18  C   UNL     1      -2.509   3.035  25.407  0.00  0.00    +0.225 A 
ATOM     19  C   UNL     1      -2.792   3.783  25.204  0.00  0.00    +0.058 A 
ATOM     20  C   UNL     1      -2.264   4.398  25.055  0.00  0.00    +0.010 A 
ATOM     21  C   UNL     1      -1.451   4.265  25.109  0.00  0.00    +0.091 A 
ATOM     22  C   UNL     1      -1.168   3.517  25.312  0.00  0.00    +0.106 A 
ATOM     23  N   UNL     1      -1.697   2.903  25.460  0.00  0.00    -0.210 NA
BRANCH  21  24
ATOM     24  C   UNL     1      -0.921   4.880  24.960  0.00  0.00    +0.420 C 
ATOM     25  F   UNL     1      -0.393   5.495  24.811  0.00  0.00    -0.166 F 
ATOM     26  F   UNL     1      -0.471   4.378  24.486  0.00  0.00    -0.166 F 
ATOM     27  F   UNL     1      -1.372   5.383  25.435  0.00  0.00    -0.166 F 
ENDBRANCH  21  24
ENDBRANCH  17  18
ENDBRANCH  15  17
TORSDOF 4
ENDMDL
MODEL 3
REMARK VINA RESULT:     -11.1      1.297      1.938
REMARK  Name = 
REMARK  4 active torsions:
REMARK  status: ('A' for Active; 'I' for Inactive)
REMARK    1  A    between atoms: C_7  and  C_8
REMARK    2  A    between atoms: C_15  and  O_17
REMARK    3  A    between atoms: O_17  and  C_18
REMARK    4  A    between atoms: C_21  and  C_24
REMARK                            x       y       z     vdW  Elec       q    Type
REMARK                         _______ _______ _______ _____ _____    ______ ____
ROOT
ATOM      8  C   UNL     1      -2.233   2.464  25.407  0.00  0.00    +0.267 C 
ATOM      9  O   UNL     1      -2.818   2.309  25.967  0.00  0.00    -0.268 OA
ATOM     10  N   UNL     1      -1.787   1.846  25.092  0.00  0.00    -0.268 N 
ATOM     11  C   UNL     1      -1.218   2.062  24.536  0.00  0.00    +0.126 C 
ATOM     12  C   UNL     1      -0.689   1.578  24.126  0.00  0.00    +0.164 C 
ATOM     13  O   UNL     1      -0.601   0.759  24.171  0.00  0.00    -0.348 OA
ATOM     14  C   UNL     1      -1.018   0.221  24.637  0.00  0.00    +0.187 C 
ATOM     15  C   UNL     1      -1.627   0.370  25.174  0.00  0.00    +0.217 C 
ATOM     16  C   UNL     1      -1.970   1.093  25.376  0.00  0.00    +0.140 C 
ENDROOT
BRANCH   8   7
ATOM      1  C   UNL     1      -3.346   3.473  24.423  0.00  0.00    +0.154 C 
ATOM      2  N   UNL     1      -2.606   3.703  24.708  0.00  0.00    -0.245 N 
ATOM      3  N   UNL     1      -2.248   4.437  24.590  0.00  0.00    -0.173 NA
ATOM      4  C   UNL     1      -1.516   4.427  24.970  0.00  0.00    +0.081 A 
ATOM      5  C   UNL     1      -0.974   5.049  24.993  0.00  0.00    +0.054 C 
ATOM      6  C   UNL     1      -1.421   3.687  25.322  0.00  0.00    +0.040 A 
ATOM      7  C   UNL     1      -2.095   3.240  25.160  0.00  0.00    +0.132 A 
ENDBRANCH   8   7
BRANCH  15  17
ATOM     17  O   UNL     1      -1.935  -0.291  25.559  0.00  0.00    -0.460 OA
BRANCH  17  18
ATOM     18  C   UNL     1      -2.466  -0.787  25.167  0.00  0.00    +0.225 A 
ATOM     19  C   UNL     1      -3.279  -0.681  25.266  0.00  0.00    +0.058 A 
ATOM     20  C   UNL     1      -3.809  -1.176  24.875  0.00  0.00    +0.010 A 
ATOM     21  C   UNL     1      -3.528  -1.778  24.385  0.00  0.00    +0.091 A 
ATOM     22  C   UNL     1      -2.716  -1.883  24.286  0.00  0.00    +0.106 A 
ATOM     23  N   UNL     1      -2.186  -1.388  24.677  0.00  0.00    -0.210 NA
BRANCH  21  24
ATOM     24  C   UNL     1      -4.059  -2.273  23.993  0.00  0.00    +0.420 C 
ATOM     25  F   UNL     1      -4.590  -2.768  23.602  0.00  0.00    -0.166 F 
ATOM     26  F   UNL     1      -4.263  -1.656  23.487  0.00  0.00    -0.166 F 
ATOM     27  F   UNL     1      -3.856  -2.892  24.500  0.00  0.00    -0.166 F 
ENDBRANCH  21  24
ENDBRANCH  17  18
ENDBRANCH  15  17
TORSDOF 4
ENDMDL
