MODEL 1
REMARK VINA RESULT:     -11.7      0.000      0.000
REMARK  Name = 
REMARK  2 active torsions:
REMARK  status: ('A' for Active; 'I' for Inactive)
REMARK    1  A    between atoms: C_12  and  C_13
REMARK    2  A    between atoms: C_13  and  C_15
REMARK                            x       y       z     vdW  Elec       q    Type
REMARK                         _______ _______ _______ _____ _____    ______ ____
ROOT
ATOM      1  C   UNL     1      -0.917   5.557  25.003  0.00  0.00    +0.138 C 
ATOM      2  N   UNL     1      -1.676   5.286  25.177  0.00  0.00    -0.213 NA
ATOM      3  C   UNL     1      -1.864   4.489  25.076  0.00  0.00    +0.179 A 
ATOM      4  N   UNL     1      -2.597   4.141  25.227  0.00  0.00    -0.228 NA
ATOM      5  C   UNL     1      -2.537   3.337  25.051  0.00  0.00    +0.063 A 
ATOM      6  C   UNL     1      -1.768   3.189  24.792  0.00  0.00    +0.023 A 
ATOM      7  C   UNL     1      -1.547   2.424  24.575  0.00  0.00    +0.034 C 
ATOM      8  C   UNL     1      -2.093   1.808  24.617  0.00  0.00    +0.007 C 
ATOM      9  C   UNL     1      -1.324   1.660  24.358  0.00  0.00    +0.000 C 
ATOM     10  C   UNL     1      -1.871   1.044  24.400  0.00  0.00    +0.001 C 
ATOM     11  C   UNL     1      -2.418   0.428  24.443  0.00  0.00    +0.003 C 
ATOM     12  C   UNL     1      -3.187   0.576  24.702  0.00  0.00    +0.039 C 
ATOM     23  C   UNL     1      -3.409   1.341  24.919  0.00  0.00    +0.153 C 
ATOM     24  O   UNL     1      -4.177   1.489  25.178  0.00  0.00    -0.223 OA
ATOM     25  C   UNL     1      -2.862   1.956  24.876  0.00  0.00    +0.036 C 
ATOM     26  C   UNL     1      -3.085   2.720  25.093  0.00  0.00    +0.043 C 
ATOM     27  C   UNL     1      -3.853   2.868  25.352  0.00  0.00    +0.006 C 
ATOM     28  S   UNL     1      -1.352   3.902  24.807  0.00  0.00    -0.055 S 
ENDROOT
BRANCH  12  13
ATOM     13  C   UNL     1      -3.734  -0.041  24.744  0.00  0.00    +0.079 C 
ATOM     14  C   UNL     1      -4.470   0.036  24.381  0.00  0.00    +0.010 C 
BRANCH  13  15
ATOM     15  C   UNL     1      -3.544  -0.733  25.151  0.00  0.00    +0.225 C 
ATOM     16  O   UNL     1      -3.231  -0.692  25.913  0.00  0.00    -0.275 OA
ATOM     17  N   UNL     1      -3.668  -1.466  24.794  0.00  0.00    -0.278 N 
ATOM     18  C   UNL     1      -3.477  -2.160  25.200  0.00  0.00    +0.105 C 
ATOM     19  C   UNL     1      -3.601  -2.893  24.844  0.00  0.00    +0.079 C 
ATOM     20  S   UNL     1      -3.914  -2.934  24.082  0.00  0.00    -0.137 S 
ATOM     21  C   UNL     1      -4.104  -2.242  23.676  0.00  0.00    +0.079 C 
ATOM     22  C   UNL     1      -3.981  -1.507  24.033  0.00  0.00    +0.105 C 
ENDBRANCH  13  15
ENDBRANCH  12  13
TORSDOF 2
ENDMDL
MODEL 2
REMARK VINA RESULT:     -10.9      1.149      5.254
REMARK  Name = 
REMARK  2 active torsions:
REMARK  status: ('A' for Active; 'I' for Inactive)
REMARK    1  A    between atoms: C_12  and  C_13
REMARK    2  A    between atoms: C_13  and  C_15
REMARK                            x       y       z     vdW  Elec       q    Type
REMARK                         _______ _______ _______ _____ _____    ______ ____
ROOT
ATOM      1  C   UNL     1      -3.979  -3.283  24.231  0.00  0.00    +0.138 C 
ATOM      2  N   UNL     1      -3.359  -2.988  24.689  0.00  0.00    -0.213 NA
ATOM      3  C   UNL     1      -3.183  -2.182  24.677  0.00  0.00    +0.179 A 
ATOM      4  N   UNL     1      -2.583  -1.811  25.104  0.00  0.00    -0.228 NA
ATOM      5  C   UNL     1      -2.606  -1.005  24.928  0.00  0.00    +0.063 A 
ATOM      6  C   UNL     1      -3.221  -0.879  24.392  0.00  0.00    +0.023 A 
ATOM      7  C   UNL     1      -3.376  -0.118  24.115  0.00  0.00    +0.034 C 
ATOM      8  C   UNL     1      -2.917   0.517  24.372  0.00  0.00    +0.007 C 
ATOM      9  C   UNL     1      -3.532   0.643  23.837  0.00  0.00    +0.000 C 
ATOM     10  C   UNL     1      -3.073   1.278  24.095  0.00  0.00    +0.001 C 
ATOM     11  C   UNL     1      -2.614   1.913  24.353  0.00  0.00    +0.003 C 
ATOM     12  C   UNL     1      -1.999   1.787  24.888  0.00  0.00    +0.039 C 
ATOM     23  C   UNL     1      -1.843   1.026  25.166  0.00  0.00    +0.153 C 
ATOM     24  O   UNL     1      -1.229   0.900  25.701  0.00  0.00    -0.223 OA
ATOM     25  C   UNL     1      -2.303   0.391  24.908  0.00  0.00    +0.036 C 
ATOM     26  C   UNL     1      -2.146  -0.370  25.186  0.00  0.00    +0.043 C 
ATOM     27  C   UNL     1      -1.532  -0.496  25.721  0.00  0.00    +0.006 C 
ATOM     28  S   UNL     1      -3.578  -1.607  24.238  0.00  0.00    -0.055 S 
ENDROOT
BRANCH  12  13
ATOM     13  C   UNL     1      -1.539   2.423  25.146  0.00  0.00    +0.079 C 
ATOM     14  C   UNL     1      -0.717   2.368  25.135  0.00  0.00    +0.010 C 
BRANCH  13  15
ATOM     15  C   UNL     1      -1.904   3.112  25.415  0.00  0.00    +0.225 C 
ATOM     16  O   UNL     1      -2.581   3.065  25.885  0.00  0.00    -0.275 OA
ATOM     17  N   UNL     1      -1.591   3.848  25.214  0.00  0.00    -0.278 N 
ATOM     18  C   UNL     1      -1.955   4.539  25.483  0.00  0.00    +0.105 C 
ATOM     19  C   UNL     1      -1.642   5.275  25.282  0.00  0.00    +0.079 C 
ATOM     20  S   UNL     1      -0.966   5.321  24.813  0.00  0.00    -0.137 S 
ATOM     21  C   UNL     1      -0.602   4.632  24.544  0.00  0.00    +0.079 C 
ATOM     22  C   UNL     1      -0.915   3.895  24.745  0.00  0.00    +0.105 C 
ENDBRANCH  13  15
ENDBRANCH  12  13
TORSDOF 2
ENDMDL
MODEL 3
REMARK VINA RESULT:      -9.7      2.085      4.500
REMARK  Name = 
REMARK  2 active torsions:
REMARK  status: ('A' for Active; 'I' for Inactive)
REMARK    1  A    between atoms: C_12  and  C_13
REMARK    2  A    between atoms: C_13  and  C_15
REMARK                            x       y       z     vdW  Elec       q    Type
REMARK                         _______ _______ _______ _____ _____    ______ ____
ROOT
ATOM      1  C   UNL     1       0.136  -2.671  25.408  0.00  0.00    +0.138 C 
ATOM      2  N   UNL     1       0.147  -1.891  25.140  0.00  0.00    -0.213 NA
ATOM      3  C   UNL     1      -0.560  -1.474  25.051  0.00  0.00    +0.179 A 
ATOM      4  N   UNL     1      -0.634  -0.695  24.790  0.00  0.00    -0.228 NA
ATOM      5  C   UNL     1      -1.436  -0.503  24.786  0.00  0.00    +0.063 A 
ATOM      6  C   UNL     1      -1.858  -1.164  25.045  0.00  0.00    +0.023 A 
ATOM      7  C   UNL     1      -2.681  -1.133  25.098  0.00  0.00    +0.034 C 
ATOM      8  C   UNL     1      -3.082  -0.443  24.892  0.00  0.00    +0.007 C 
ATOM      9  C   UNL     1      -3.503  -1.103  25.151  0.00  0.00    +0.000 C 
ATOM     10  C   UNL     1      -3.904  -0.412  24.945  0.00  0.00    +0.001 C 
ATOM     11  C   UNL     1      -4.306   0.279  24.739  0.00  0.00    +0.003 C 
ATOM     12  C   UNL     1      -3.885   0.939  24.480  0.00  0.00    +0.039 C 
ATOM     23  C   UNL     1      -3.061   0.909  24.427  0.00  0.00    +0.153 C 
ATOM     24  O   UNL     1      -2.641   1.568  24.168  0.00  0.00    -0.223 OA
ATOM     25  C   UNL     1      -2.661   0.218  24.633  0.00  0.00    +0.036 C 
ATOM     26  C   UNL     1      -1.838   0.188  24.580  0.00  0.00    +0.043 C 
ATOM     27  C   UNL     1      -1.417   0.848  24.321  0.00  0.00    +0.006 C 
ATOM     28  S   UNL     1      -1.315  -1.764  25.209  0.00  0.00    -0.055 S 
ENDROOT
BRANCH  12  13
ATOM     13  C   UNL     1      -4.286   1.630  24.274  0.00  0.00    +0.079 C 
ATOM     14  C   UNL     1      -4.020   2.089  23.644  0.00  0.00    +0.010 C 
BRANCH  13  15
ATOM     15  C   UNL     1      -4.954   1.861  24.700  0.00  0.00    +0.225 C 
ATOM     16  O   UNL     1      -5.583   1.336  24.798  0.00  0.00    -0.275 OA
ATOM     17  N   UNL     1      -4.992   2.617  25.027  0.00  0.00    -0.278 N 
ATOM     18  C   UNL     1      -5.661   2.848  25.453  0.00  0.00    +0.105 C 
ATOM     19  C   UNL     1      -5.699   3.605  25.781  0.00  0.00    +0.079 C 
ATOM     20  S   UNL     1      -5.070   4.129  25.683  0.00  0.00    -0.137 S 
ATOM     21  C   UNL     1      -4.403   3.898  25.257  0.00  0.00    +0.079 C 
ATOM     22  C   UNL     1      -4.364   3.141  24.929  0.00  0.00    +0.105 C 
ENDBRANCH  13  15
ENDBRANCH  12  13
TORSDOF 2
ENDMDL
MODEL 4
REMARK VINA RESULT:      -9.5      1.993      2.421
REMARK  Name = 
REMARK  2 active torsions:
REMARK  status: ('A' for Active; 'I' for Inactive)
REMARK    1  A    between atoms: C_12  and  C_13
REMARK    2  A    between atoms: C_13  and  C_15
REMARK                            x       y       z     vdW  Elec       q    Type
REMARK                         _______ _______ _______ _____ _____    ______ ____
ROOT
ATOM      1  C   UNL     1      -6.021   5.220  25.458  0.00  0.00    +0.138 C 
ATOM      2  N   UNL     1      -6.185   4.463  25.742  0.00  0.00    -0.213 NA
ATOM      3  C   UNL     1      -5.717   3.825  25.511  0.00  0.00    +0.179 A 
ATOM      4  N   UNL     1      -5.815   3.041  25.749  0.00  0.00    -0.228 NA
ATOM      5  C   UNL     1      -5.227   2.589  25.386  0.00  0.00    +0.063 A 
ATOM      6  C   UNL     1      -4.766   3.095  24.924  0.00  0.00    +0.023 A 
ATOM      7  C   UNL     1      -4.130   2.794  24.493  0.00  0.00    +0.034 C 
ATOM      8  C   UNL     1      -3.955   1.989  24.524  0.00  0.00    +0.007 C 
ATOM      9  C   UNL     1      -3.494   2.494  24.062  0.00  0.00    +0.000 C 
ATOM     10  C   UNL     1      -3.319   1.688  24.093  0.00  0.00    +0.001 C 
ATOM     11  C   UNL     1      -3.143   0.883  24.123  0.00  0.00    +0.003 C 
ATOM     12  C   UNL     1      -3.604   0.378  24.585  0.00  0.00    +0.039 C 
ATOM     23  C   UNL     1      -4.241   0.678  25.016  0.00  0.00    +0.153 C 
ATOM     24  O   UNL     1      -4.701   0.173  25.477  0.00  0.00    -0.223 OA
ATOM     25  C   UNL     1      -4.415   1.484  24.985  0.00  0.00    +0.036 C 
ATOM     26  C   UNL     1      -5.051   1.783  25.417  0.00  0.00    +0.043 C 
ATOM     27  C   UNL     1      -5.511   1.279  25.878  0.00  0.00    +0.006 C 
ATOM     28  S   UNL     1      -5.069   3.858  25.002  0.00  0.00    -0.055 S 
ENDROOT
BRANCH  12  13
ATOM     13  C   UNL     1      -3.429  -0.429  24.615  0.00  0.00    +0.079 C 
ATOM     14  C   UNL     1      -3.968  -0.979  24.325  0.00  0.00    +0.010 C 
BRANCH  13  15
ATOM     15  C   UNL     1      -2.713  -0.682  24.937  0.00  0.00    +0.225 C 
ATOM     16  O   UNL     1      -2.299  -0.196  25.460  0.00  0.00    -0.275 OA
ATOM     17  N   UNL     1      -2.411  -1.423  24.736  0.00  0.00    -0.278 N 
ATOM     18  C   UNL     1      -1.694  -1.677  25.057  0.00  0.00    +0.105 C 
ATOM     19  C   UNL     1      -1.392  -2.418  24.856  0.00  0.00    +0.079 C 
ATOM     20  S   UNL     1      -1.805  -2.904  24.334  0.00  0.00    -0.137 S 
ATOM     21  C   UNL     1      -2.521  -2.650  24.012  0.00  0.00    +0.079 C 
ATOM     22  C   UNL     1      -2.824  -1.909  24.214  0.00  0.00    +0.105 C 
ENDBRANCH  13  15
ENDBRANCH  12  13
TORSDOF 2
ENDMDL
MODEL 5
REMARK VINA RESULT:      -9.3      2.633      4.084
REMARK  Name = 
REMARK  2 active torsions:
REMARK  status: ('A' for Active; 'I' for Inactive)
REMARK    1  A    between atoms: C_12  and  C_13
REMARK    2  A    between atoms: C_13  and  C_15
REMARK                            x       y       z     vdW  Elec       q    Type
REMARK                         _______ _______ _______ _____ _____    ______ ____
ROOT
ATOM      1  C   UNL     1      -6.384   2.217  25.087  0.00  0.00    +0.138 C 
ATOM      2  N   UNL     1      -5.915   1.593  25.355  0.00  0.00    -0.213 NA
ATOM      3  C   UNL     1      -5.144   1.506  25.075  0.00  0.00    +0.179 A 
ATOM      4  N   UNL     1      -4.614   0.913  25.293  0.00  0.00    -0.228 NA
ATOM      5  C   UNL     1      -3.910   1.037  24.880  0.00  0.00    +0.063 A 
ATOM      6  C   UNL     1      -4.006   1.707  24.408  0.00  0.00    +0.023 A 
ATOM      7  C   UNL     1      -3.386   1.966  23.930  0.00  0.00    +0.034 C 
ATOM      8  C   UNL     1      -2.670   1.557  23.923  0.00  0.00    +0.007 C 
ATOM      9  C   UNL     1      -2.766   2.226  23.451  0.00  0.00    +0.000 C 
ATOM     10  C   UNL     1      -2.051   1.816  23.445  0.00  0.00    +0.001 C 
ATOM     11  C   UNL     1      -1.335   1.406  23.438  0.00  0.00    +0.003 C 
ATOM     12  C   UNL     1      -1.239   0.736  23.910  0.00  0.00    +0.039 C 
ATOM     23  C   UNL     1      -1.859   0.476  24.389  0.00  0.00    +0.153 C 
ATOM     24  O   UNL     1      -1.763  -0.193  24.861  0.00  0.00    -0.223 OA
ATOM     25  C   UNL     1      -2.574   0.887  24.395  0.00  0.00    +0.036 C 
ATOM     26  C   UNL     1      -3.194   0.627  24.874  0.00  0.00    +0.043 C 
ATOM     27  C   UNL     1      -3.098  -0.042  25.346  0.00  0.00    +0.006 C 
ATOM     28  S   UNL     1      -4.769   1.997  24.529  0.00  0.00    -0.055 S 
ENDROOT
BRANCH  12  13
ATOM     13  C   UNL     1      -0.522   0.326  23.904  0.00  0.00    +0.079 C 
ATOM     14  C   UNL     1      -0.518  -0.494  23.821  0.00  0.00    +0.010 C 
BRANCH  13  15
ATOM     15  C   UNL     1       0.188   0.737  23.980  0.00  0.00    +0.225 C 
ATOM     16  O   UNL     1       0.253   1.353  24.525  0.00  0.00    -0.275 OA
ATOM     17  N   UNL     1       0.835   0.532  23.510  0.00  0.00    -0.278 N 
ATOM     18  C   UNL     1       1.547   0.943  23.586  0.00  0.00    +0.105 C 
ATOM     19  C   UNL     1       2.193   0.738  23.117  0.00  0.00    +0.079 C 
ATOM     20  S   UNL     1       2.128   0.123  22.572  0.00  0.00    -0.137 S 
ATOM     21  C   UNL     1       1.417  -0.289  22.496  0.00  0.00    +0.079 C 
ATOM     22  C   UNL     1       0.770  -0.083  22.966  0.00  0.00    +0.105 C 
ENDBRANCH  13  15
ENDBRANCH  12  13
TORSDOF 2
ENDMDL
MODEL 6
REMARK VINA RESULT:      -9.0      2.500      3.878
REMARK  Name = 
REMARK  2 active torsions:
REMARK  status: ('A' for Active; 'I' for Inactive)
REMARK    1  A    between atoms: C_12  and  C_13
REMARK    2  A    between atoms: C_13  and  C_15
REMARK                            x       y       z     vdW  Elec       q    Type
REMARK                         _______ _______ _______ _____ _____    ______ ____
ROOT
ATOM      1  C   UNL     1       1.938  -0.194  22.762  0.00  0.00    +0.138 C 
ATOM      2  N   UNL     1       1.446  -0.516  23.341  0.00  0.00    -0.213 NA
ATOM      3  C   UNL     1       0.706  -0.181  23.487  0.00  0.00    +0.179 A 
ATOM      4  N   UNL     1       0.159  -0.442  24.046  0.00  0.00    -0.228 NA
ATOM      5  C   UNL     1      -0.501   0.052  24.005  0.00  0.00    +0.063 A 
ATOM      6  C   UNL     1      -0.361   0.618  23.422  0.00  0.00    +0.023 A 
ATOM      7  C   UNL     1      -0.931   1.191  23.258  0.00  0.00    +0.034 C 
ATOM      8  C   UNL     1      -1.641   1.198  23.676  0.00  0.00    +0.007 C 
ATOM      9  C   UNL     1      -1.500   1.765  23.093  0.00  0.00    +0.000 C 
ATOM     10  C   UNL     1      -2.211   1.771  23.512  0.00  0.00    +0.001 C 
ATOM     11  C   UNL     1      -2.922   1.779  23.931  0.00  0.00    +0.003 C 
ATOM     12  C   UNL     1      -3.063   1.213  24.514  0.00  0.00    +0.039 C 
ATOM     23  C   UNL     1      -2.493   0.639  24.679  0.00  0.00    +0.153 C 
ATOM     24  O   UNL     1      -2.633   0.074  25.261  0.00  0.00    -0.223 OA
ATOM     25  C   UNL     1      -1.782   0.632  24.260  0.00  0.00    +0.036 C 
ATOM     26  C   UNL     1      -1.213   0.059  24.425  0.00  0.00    +0.043 C 
ATOM     27  C   UNL     1      -1.353  -0.507  25.007  0.00  0.00    +0.006 C 
ATOM     28  S   UNL     1       0.387   0.474  23.102  0.00  0.00    -0.055 S 
ENDROOT
BRANCH  12  13
ATOM     13  C   UNL     1      -3.774   1.220  24.933  0.00  0.00    +0.079 C 
ATOM     14  C   UNL     1      -4.241   0.542  24.965  0.00  0.00    +0.010 C 
BRANCH  13  15
ATOM     15  C   UNL     1      -4.017   1.907  25.320  0.00  0.00    +0.225 C 
ATOM     16  O   UNL     1      -3.461   2.392  25.689  0.00  0.00    -0.275 OA
ATOM     17  N   UNL     1      -4.817   2.108  25.338  0.00  0.00    -0.278 N 
ATOM     18  C   UNL     1      -5.061   2.795  25.725  0.00  0.00    +0.105 C 
ATOM     19  C   UNL     1      -5.861   2.996  25.742  0.00  0.00    +0.079 C 
ATOM     20  S   UNL     1      -6.416   2.512  25.374  0.00  0.00    -0.137 S 
ATOM     21  C   UNL     1      -6.173   1.825  24.987  0.00  0.00    +0.079 C 
ATOM     22  C   UNL     1      -5.372   1.623  24.969  0.00  0.00    +0.105 C 
ENDBRANCH  13  15
ENDBRANCH  12  13
TORSDOF 2
ENDMDL
