MODEL 1
REMARK VINA RESULT:      -9.8      0.000      0.000
REMARK  Name = 
REMARK  6 active torsions:
REMARK  status: ('A' for Active; 'I' for Inactive)
REMARK    1  A    between atoms: O_2  and  C_3
REMARK    2  A    between atoms: C_6  and  C_9
REMARK    3  A    between atoms: C_15  and  C_18
REMARK    4  A    between atoms: C_21  and  C_23
REMARK    5  A    between atoms: N_27  and  C_28
REMARK    6  A    between atoms: C_28  and  C_29
REMARK                            x       y       z     vdW  Elec       q    Type
REMARK                         _______ _______ _______ _____ _____    ______ ____
ROOT
ATOM      9  C   UNL     1       2.135   0.486  23.087  0.00  0.00    +0.270 C 
ATOM     10  O   UNL     1       1.660   0.012  22.607  0.00  0.00    -0.268 OA
ATOM     11  N   UNL     1       1.789   1.030  23.602  0.00  0.00    -0.157 NA
ATOM     12  C   UNL     1       0.968   1.099  23.637  0.00  0.00    +0.155 A 
ATOM     13  N   UNL     1       0.621   1.643  24.152  0.00  0.00    -0.227 NA
ATOM     14  C   UNL     1      -0.200   1.712  24.187  0.00  0.00    +0.103 A 
ATOM     15  C   UNL     1      -0.675   1.239  23.708  0.00  0.00    +0.058 A 
ATOM     16  C   UNL     1      -0.329   0.695  23.193  0.00  0.00    +0.008 A 
ATOM     17  C   UNL     1       0.492   0.625  23.157  0.00  0.00    +0.036 A 
ENDROOT
BRANCH   9   6
ATOM      3  C   UNL     1       4.599   0.277  22.981  0.00  0.00    +0.139 A 
ATOM      4  C   UNL     1       4.234   0.975  22.736  0.00  0.00    +0.037 A 
ATOM      5  C   UNL     1       3.412   1.045  22.771  0.00  0.00    +0.008 A 
ATOM      6  C   UNL     1       2.956   0.416  23.052  0.00  0.00    +0.056 A 
ATOM      7  C   UNL     1       3.322  -0.281  23.296  0.00  0.00    +0.008 A 
ATOM      8  C   UNL     1       4.144  -0.351  23.261  0.00  0.00    +0.037 A 
BRANCH   3   2
ATOM      1  C   UNL     1       5.846  -0.003  23.620  0.00  0.00    +0.252 C 
ATOM      2  O   UNL     1       5.420   0.208  22.946  0.00  0.00    -0.471 OA
ENDBRANCH   3   2
ENDBRANCH   9   6
BRANCH  15  18
ATOM     18  C   UNL     1      -1.496   1.308  23.743  0.00  0.00    +0.205 A 
ATOM     19  N   UNL     1      -1.960   1.815  23.285  0.00  0.00    -0.056 NA
ATOM     20  O   UNL     1      -2.749   1.703  23.502  0.00  0.00    -0.336 OA
ATOM     21  C   UNL     1      -2.772   1.128  24.093  0.00  0.00    +0.251 A 
ATOM     22  N   UNL     1      -1.998   0.884  24.242  0.00  0.00    -0.190 NA
BRANCH  21  23
ATOM     23  C   UNL     1      -3.450   0.846  24.469  0.00  0.00    +0.138 C 
ATOM     24  C   UNL     1      -3.949   1.283  24.960  0.00  0.00    +0.027 C 
ATOM     25  C   UNL     1      -4.555   0.785  25.215  0.00  0.00    +0.019 C 
ATOM     26  C   UNL     1      -4.431   0.041  24.881  0.00  0.00    +0.073 C 
ATOM     27  N   UNL     1      -3.748   0.078  24.420  0.00  0.00    -0.263 NA
BRANCH  27  28
ATOM     28  C   UNL     1      -3.421  -0.542  23.986  0.00  0.00    +0.101 C 
BRANCH  28  29
ATOM     29  C   UNL     1      -3.592  -1.323  24.190  0.00  0.00    +0.013 A 
ATOM     30  C   UNL     1      -4.156  -1.747  23.764  0.00  0.00    +0.000 A 
ATOM     31  C   UNL     1      -4.327  -2.528  23.968  0.00  0.00    +0.020 A 
ATOM     32  C   UNL     1      -3.933  -2.885  24.598  0.00  0.00    +0.099 A 
ATOM     33  N   UNL     1      -3.368  -2.461  25.025  0.00  0.00    -0.243 NA
ATOM     34  C   UNL     1      -3.197  -1.681  24.821  0.00  0.00    +0.096 A 
ENDBRANCH  28  29
ENDBRANCH  27  28
ENDBRANCH  21  23
ENDBRANCH  15  18
TORSDOF 6
ENDMDL
MODEL 2
REMARK VINA RESULT:      -9.4      1.088      2.422
REMARK  Name = 
REMARK  6 active torsions:
REMARK  status: ('A' for Active; 'I' for Inactive)
REMARK    1  A    between atoms: O_2  and  C_3
REMARK    2  A    between atoms: C_6  and  C_9
REMARK    3  A    between atoms: C_15  and  C_18
REMARK    4  A    between atoms: C_21  and  C_23
REMARK    5  A    between atoms: N_27  and  C_28
REMARK    6  A    between atoms: C_28  and  C_29
REMARK                            x       y       z     vdW  Elec       q    Type
REMARK                         _______ _______ _______ _____ _____    ______ ____
ROOT
ATOM      9  C   UNL     1       2.213   0.327  23.049  0.00  0.00    +0.270 C 
ATOM     10  O   UNL     1       1.774  -0.206  22.598  0.00  0.00    -0.268 OA
ATOM     11  N   UNL     1       1.829   0.879  23.527  0.00  0.00    -0.157 NA
ATOM     12  C   UNL     1       1.004   0.898  23.554  0.00  0.00    +0.155 A 
ATOM     13  N   UNL     1       0.619   1.449  24.031  0.00  0.00    -0.227 NA
ATOM     14  C   UNL     1      -0.205   1.468  24.058  0.00  0.00    +0.103 A 
ATOM     15  C   UNL     1      -0.644   0.935  23.607  0.00  0.00    +0.058 A 
ATOM     16  C   UNL     1      -0.260   0.383  23.129  0.00  0.00    +0.008 A 
ATOM     17  C   UNL     1       0.564   0.364  23.103  0.00  0.00    +0.036 A 
ENDROOT
BRANCH   9   6
ATOM      3  C   UNL     1       4.686   0.271  22.968  0.00  0.00    +0.139 A 
ATOM      4  C   UNL     1       4.271  -0.351  23.318  0.00  0.00    +0.037 A 
ATOM      5  C   UNL     1       3.446  -0.332  23.345  0.00  0.00    +0.008 A 
ATOM      6  C   UNL     1       3.037   0.308  23.022  0.00  0.00    +0.056 A 
ATOM      7  C   UNL     1       3.453   0.929  22.673  0.00  0.00    +0.008 A 
ATOM      8  C   UNL     1       4.278   0.910  22.646  0.00  0.00    +0.037 A 
BRANCH   3   2
ATOM      1  C   UNL     1       5.942   0.080  23.623  0.00  0.00    +0.252 C 
ATOM      2  O   UNL     1       5.510   0.252  22.942  0.00  0.00    -0.471 OA
ENDBRANCH   3   2
ENDBRANCH   9   6
BRANCH  15  18
ATOM     18  C   UNL     1      -1.469   0.954  23.634  0.00  0.00    +0.205 A 
ATOM     19  N   UNL     1      -1.966   1.266  23.054  0.00  0.00    -0.056 NA
ATOM     20  O   UNL     1      -2.746   1.169  23.307  0.00  0.00    -0.336 OA
ATOM     21  C   UNL     1      -2.730   0.797  24.043  0.00  0.00    +0.251 A 
ATOM     22  N   UNL     1      -1.941   0.664  24.245  0.00  0.00    -0.190 NA
BRANCH  21  23
ATOM     23  C   UNL     1      -3.387   0.593  24.498  0.00  0.00    +0.138 C 
ATOM     24  C   UNL     1      -3.532  -0.145  24.838  0.00  0.00    +0.027 C 
ATOM     25  C   UNL     1      -4.250  -0.103  25.243  0.00  0.00    +0.019 C 
ATOM     26  C   UNL     1      -4.549   0.661  25.153  0.00  0.00    +0.073 C 
ATOM     27  N   UNL     1      -4.016   1.091  24.692  0.00  0.00    -0.263 NA
BRANCH  27  28
ATOM     28  C   UNL     1      -4.097   1.881  24.467  0.00  0.00    +0.101 C 
BRANCH  28  29
ATOM     29  C   UNL     1      -4.575   2.388  24.907  0.00  0.00    +0.013 A 
ATOM     30  C   UNL     1      -4.233   2.980  25.369  0.00  0.00    +0.000 A 
ATOM     31  C   UNL     1      -4.711   3.488  25.810  0.00  0.00    +0.020 A 
ATOM     32  C   UNL     1      -5.532   3.404  25.787  0.00  0.00    +0.099 A 
ATOM     33  N   UNL     1      -5.874   2.813  25.325  0.00  0.00    -0.243 NA
ATOM     34  C   UNL     1      -5.396   2.305  24.885  0.00  0.00    +0.096 A 
ENDBRANCH  28  29
ENDBRANCH  27  28
ENDBRANCH  21  23
ENDBRANCH  15  18
TORSDOF 6
ENDMDL
MODEL 3
REMARK VINA RESULT:      -8.5      2.127      7.045
REMARK  Name = 
REMARK  6 active torsions:
REMARK  status: ('A' for Active; 'I' for Inactive)
REMARK    1  A    between atoms: O_2  and  C_3
REMARK    2  A    between atoms: C_6  and  C_9
REMARK    3  A    between atoms: C_15  and  C_18
REMARK    4  A    between atoms: C_21  and  C_23
REMARK    5  A    between atoms: N_27  and  C_28
REMARK    6  A    between atoms: C_28  and  C_29
REMARK                            x       y       z     vdW  Elec       q    Type
REMARK                         _______ _______ _______ _____ _____    ______ ____
ROOT
ATOM      9  C   UNL     1      -3.354   2.117  24.612  0.00  0.00    +0.270 C 
ATOM     10  O   UNL     1      -3.409   1.785  23.859  0.00  0.00    -0.268 OA
ATOM     11  N   UNL     1      -2.671   2.010  25.062  0.00  0.00    -0.157 NA
ATOM     12  C   UNL     1      -2.042   1.570  24.759  0.00  0.00    +0.155 A 
ATOM     13  N   UNL     1      -1.359   1.463  25.208  0.00  0.00    -0.227 NA
ATOM     14  C   UNL     1      -0.730   1.023  24.905  0.00  0.00    +0.103 A 
ATOM     15  C   UNL     1      -0.785   0.691  24.152  0.00  0.00    +0.058 A 
ATOM     16  C   UNL     1      -1.468   0.798  23.702  0.00  0.00    +0.008 A 
ATOM     17  C   UNL     1      -2.097   1.238  24.005  0.00  0.00    +0.036 A 
ENDROOT
BRANCH   9   6
ATOM      3  C   UNL     1      -5.241   3.435  25.522  0.00  0.00    +0.139 A 
ATOM      4  C   UNL     1      -4.517   3.802  25.371  0.00  0.00    +0.037 A 
ATOM      5  C   UNL     1      -3.888   3.362  25.068  0.00  0.00    +0.008 A 
ATOM      6  C   UNL     1      -3.983   2.556  24.915  0.00  0.00    +0.056 A 
ATOM      7  C   UNL     1      -4.707   2.191  25.067  0.00  0.00    +0.008 A 
ATOM      8  C   UNL     1      -5.336   2.631  25.370  0.00  0.00    +0.037 A 
BRANCH   3   2
ATOM      1  C   UNL     1      -6.020   4.633  25.538  0.00  0.00    +0.252 C 
ATOM      2  O   UNL     1      -5.870   3.875  25.826  0.00  0.00    -0.471 OA
ENDBRANCH   3   2
ENDBRANCH   9   6
BRANCH  15  18
ATOM     18  C   UNL     1      -0.156   0.252  23.849  0.00  0.00    +0.205 A 
ATOM     19  N   UNL     1       0.164  -0.432  24.183  0.00  0.00    -0.056 NA
ATOM     20  O   UNL     1       0.781  -0.688  23.699  0.00  0.00    -0.336 OA
ATOM     21  C   UNL     1       0.842  -0.163  23.065  0.00  0.00    +0.251 A 
ATOM     22  N   UNL     1       0.263   0.418  23.158  0.00  0.00    -0.190 NA
BRANCH  21  23
ATOM     23  C   UNL     1       1.387  -0.209  22.447  0.00  0.00    +0.138 C 
ATOM     24  C   UNL     1       1.227  -0.464  21.678  0.00  0.00    +0.027 C 
ATOM     25  C   UNL     1       1.927  -0.422  21.245  0.00  0.00    +0.019 C 
ATOM     26  C   UNL     1       2.521  -0.142  21.746  0.00  0.00    +0.073 C 
ATOM     27  N   UNL     1       2.186  -0.010  22.489  0.00  0.00    -0.263 NA
BRANCH  27  28
ATOM     28  C   UNL     1       2.582   0.271  23.156  0.00  0.00    +0.101 C 
BRANCH  28  29
ATOM     29  C   UNL     1       3.406   0.302  23.164  0.00  0.00    +0.013 A 
ATOM     30  C   UNL     1       3.840  -0.313  23.500  0.00  0.00    +0.000 A 
ATOM     31  C   UNL     1       4.664  -0.281  23.508  0.00  0.00    +0.020 A 
ATOM     32  C   UNL     1       5.055   0.367  23.179  0.00  0.00    +0.099 A 
ATOM     33  N   UNL     1       4.621   0.983  22.842  0.00  0.00    -0.243 NA
ATOM     34  C   UNL     1       3.797   0.951  22.834  0.00  0.00    +0.096 A 
ENDBRANCH  28  29
ENDBRANCH  27  28
ENDBRANCH  21  23
ENDBRANCH  15  18
TORSDOF 6
ENDMDL
MODEL 4
REMARK VINA RESULT:      -5.9     15.917     18.386
REMARK  Name = 
REMARK  6 active torsions:
REMARK  status: ('A' for Active; 'I' for Inactive)
REMARK    1  A    between atoms: O_2  and  C_3
REMARK    2  A    between atoms: C_6  and  C_9
REMARK    3  A    between atoms: C_15  and  C_18
REMARK    4  A    between atoms: C_21  and  C_23
REMARK    5  A    between atoms: N_27  and  C_28
REMARK    6  A    between atoms: C_28  and  C_29
REMARK                            x       y       z     vdW  Elec       q    Type
REMARK                         _______ _______ _______ _____ _____    ______ ____
ROOT
ATOM      9  C   UNL     1      10.826  -7.801  31.993  0.00  0.00    +0.270 C 
ATOM     10  O   UNL     1      10.920  -7.036  32.284  0.00  0.00    -0.268 OA
ATOM     11  N   UNL     1      11.389  -8.121  31.481  0.00  0.00    -0.157 NA
ATOM     12  C   UNL     1      12.047  -7.674  31.261  0.00  0.00    +0.155 A 
ATOM     13  N   UNL     1      12.610  -7.993  30.750  0.00  0.00    -0.227 NA
ATOM     14  C   UNL     1      13.268  -7.545  30.530  0.00  0.00    +0.103 A 
ATOM     15  C   UNL     1      13.362  -6.780  30.821  0.00  0.00    +0.058 A 
ATOM     16  C   UNL     1      12.799  -6.460  31.333  0.00  0.00    +0.008 A 
ATOM     17  C   UNL     1      12.141  -6.907  31.553  0.00  0.00    +0.036 A 
ENDROOT
BRANCH   9   6
ATOM      3  C   UNL     1       8.853  -9.142  32.653  0.00  0.00    +0.139 A 
ATOM      4  C   UNL     1       9.604  -9.485  32.654  0.00  0.00    +0.037 A 
ATOM      5  C   UNL     1      10.261  -9.038  32.434  0.00  0.00    +0.008 A 
ATOM      6  C   UNL     1      10.168  -8.248  32.213  0.00  0.00    +0.056 A 
ATOM      7  C   UNL     1       9.418  -7.907  32.212  0.00  0.00    +0.008 A 
ATOM      8  C   UNL     1       8.760  -8.354  32.432  0.00  0.00    +0.037 A 
BRANCH   3   2
ATOM      1  C   UNL     1       7.972 -10.244  32.424  0.00  0.00    +0.252 C 
ATOM      2  O   UNL     1       8.196  -9.589  32.873  0.00  0.00    -0.471 OA
ENDBRANCH   3   2
ENDBRANCH   9   6
BRANCH  15  18
ATOM     18  C   UNL     1      14.019  -6.333  30.601  0.00  0.00    +0.205 A 
ATOM     19  N   UNL     1      14.140  -5.977  29.866  0.00  0.00    -0.056 NA
ATOM     20  O   UNL     1      14.867  -5.587  29.888  0.00  0.00    -0.336 OA
ATOM     21  C   UNL     1      15.196  -5.702  30.636  0.00  0.00    +0.251 A 
ATOM     22  N   UNL     1      14.671  -6.163  31.077  0.00  0.00    -0.190 NA
BRANCH  21  23
ATOM     23  C   UNL     1      15.920  -5.408  30.898  0.00  0.00    +0.138 C 
ATOM     24  C   UNL     1      16.578  -5.859  31.111  0.00  0.00    +0.027 C 
ATOM     25  C   UNL     1      17.179  -5.342  31.338  0.00  0.00    +0.019 C 
ATOM     26  C   UNL     1      16.893  -4.571  31.265  0.00  0.00    +0.073 C 
ATOM     27  N   UNL     1      16.115  -4.612  30.994  0.00  0.00    -0.263 NA
BRANCH  27  28
ATOM     28  C   UNL     1      15.619  -3.970  30.844  0.00  0.00    +0.101 C 
BRANCH  28  29
ATOM     29  C   UNL     1      15.856  -3.209  31.053  0.00  0.00    +0.013 A 
ATOM     30  C   UNL     1      16.229  -2.726  30.497  0.00  0.00    +0.000 A 
ATOM     31  C   UNL     1      16.466  -1.963  30.706  0.00  0.00    +0.020 A 
ATOM     32  C   UNL     1      16.330  -1.684  31.470  0.00  0.00    +0.099 A 
ATOM     33  N   UNL     1      15.958  -2.167  32.026  0.00  0.00    -0.243 NA
ATOM     34  C   UNL     1      15.721  -2.929  31.817  0.00  0.00    +0.096 A 
ENDBRANCH  28  29
ENDBRANCH  27  28
ENDBRANCH  21  23
ENDBRANCH  15  18
TORSDOF 6
ENDMDL
