MODEL 1
REMARK VINA RESULT:      -8.7      0.000      0.000
REMARK  Name = 
REMARK  6 active torsions:
REMARK  status: ('A' for Active; 'I' for Inactive)
REMARK    1  A    between atoms: C_2  and  C_4
REMARK    2  A    between atoms: C_7  and  N_8
REMARK    3  A    between atoms: C_9  and  O_11
REMARK    4  A    between atoms: O_11  and  C_12
REMARK    5  A    between atoms: C_16  and  N_20
REMARK    6  A    between atoms: C_23  and  C_27
REMARK                            x       y       z     vdW  Elec       q    Type
REMARK                         _______ _______ _______ _____ _____    ______ ____
ROOT
ATOM     12  C   UNL     1       0.410   0.862  23.474  0.00  0.00    +0.229 C 
ATOM     13  C   UNL     1       0.535   1.600  23.820  0.00  0.00    +0.188 C 
ATOM     14  O   UNL     1      -0.145   1.803  24.240  0.00  0.00    -0.348 OA
ATOM     15  C   UNL     1      -0.690   1.191  24.154  0.00  0.00    +0.168 C 
ATOM     16  C   UNL     1      -1.448   0.937  24.360  0.00  0.00    +0.155 C 
ATOM     17  C   UNL     1      -1.573   0.199  24.015  0.00  0.00    +0.166 C 
ATOM     18  O   UNL     1      -0.893  -0.004  23.595  0.00  0.00    -0.348 OA
ATOM     19  C   UNL     1      -0.347   0.609  23.681  0.00  0.00    +0.186 C 
ENDROOT
BRANCH  16  20
ATOM     20  N   UNL     1      -1.986   1.350  24.830  0.00  0.00    -0.200 NA
ATOM     21  C   UNL     1      -2.711   1.588  24.516  0.00  0.00    +0.237 A 
ATOM     22  N   UNL     1      -3.249   2.001  24.985  0.00  0.00    -0.209 NA
ATOM     23  C   UNL     1      -3.973   2.239  24.671  0.00  0.00    +0.120 A 
ATOM     24  C   UNL     1      -4.160   2.064  23.887  0.00  0.00    +0.043 A 
ATOM     25  C   UNL     1      -3.622   1.651  23.417  0.00  0.00    +0.104 A 
ATOM     26  N   UNL     1      -2.897   1.413  23.732  0.00  0.00    -0.211 NA
BRANCH  23  27
ATOM     27  C   UNL     1      -4.511   2.652  25.140  0.00  0.00    +0.163 A 
ATOM     28  C   UNL     1      -5.178   2.333  25.509  0.00  0.00    +0.042 A 
ATOM     29  C   UNL     1      -5.556   2.940  25.920  0.00  0.00    +0.044 A 
ATOM     30  C   UNL     1      -5.124   3.633  25.805  0.00  0.00    +0.180 A 
ATOM     31  O   UNL     1      -4.479   3.455  25.323  0.00  0.00    -0.449 OA
ENDBRANCH  23  27
ENDBRANCH  16  20
BRANCH  12  11
ATOM     11  O   UNL     1       0.948   0.449  23.004  0.00  0.00    -0.432 OA
BRANCH  11   9
ATOM      8  N   UNL     1       2.291   0.050  22.720  0.00  0.00    -0.142 NA
ATOM      9  C   UNL     1       1.755   0.477  23.178  0.00  0.00    +0.425 C 
ATOM     10  O   UNL     1       2.024   0.934  23.811  0.00  0.00    -0.224 OA
BRANCH   8   7
ATOM      4  C   UNL     1       4.709   0.133  23.241  0.00  0.00    +0.035 A 
ATOM      5  C   UNL     1       4.259  -0.518  23.474  0.00  0.00    +0.004 A 
ATOM      6  C   UNL     1       3.453  -0.545  23.300  0.00  0.00    +0.017 A 
ATOM      7  C   UNL     1       3.097   0.078  22.893  0.00  0.00    +0.077 A 
ATOM     32  C   UNL     1       3.547   0.728  22.660  0.00  0.00    +0.017 A 
ATOM     33  C   UNL     1       4.353   0.757  22.834  0.00  0.00    +0.004 A 
BRANCH   4   2
ATOM      1  C   UNL     1       5.778   0.559  24.088  0.00  0.00    +0.077 C 
ATOM      2  C   UNL     1       5.515   0.161  23.415  0.00  0.00    +0.173 C 
ATOM      3  O   UNL     1       6.057  -0.210  22.916  0.00  0.00    -0.291 OA
ENDBRANCH   4   2
ENDBRANCH   8   7
ENDBRANCH  11   9
ENDBRANCH  12  11
TORSDOF 6
ENDMDL
MODEL 2
REMARK VINA RESULT:      -8.5      0.937      7.503
REMARK  Name = 
REMARK  6 active torsions:
REMARK  status: ('A' for Active; 'I' for Inactive)
REMARK    1  A    between atoms: C_2  and  C_4
REMARK    2  A    between atoms: C_7  and  N_8
REMARK    3  A    between atoms: C_9  and  O_11
REMARK    4  A    between atoms: O_11  and  C_12
REMARK    5  A    between atoms: C_16  and  N_20
REMARK    6  A    between atoms: C_23  and  C_27
REMARK                            x       y       z     vdW  Elec       q    Type
REMARK                         _______ _______ _______ _____ _____    ______ ____
ROOT
ATOM     12  C   UNL     1      -1.189   1.401  23.628  0.00  0.00    +0.229 C 
ATOM     13  C   UNL     1      -0.845   2.001  24.077  0.00  0.00    +0.188 C 
ATOM     14  O   UNL     1      -0.046   1.822  24.172  0.00  0.00    -0.348 OA
ATOM     15  C   UNL     1       0.105   1.111  23.782  0.00  0.00    +0.168 C 
ATOM     16  C   UNL     1       0.691   0.560  23.599  0.00  0.00    +0.155 C 
ATOM     17  C   UNL     1       0.347  -0.040  23.150  0.00  0.00    +0.166 C 
ATOM     18  O   UNL     1      -0.452   0.139  23.056  0.00  0.00    -0.348 OA
ATOM     19  C   UNL     1      -0.602   0.851  23.446  0.00  0.00    +0.186 C 
ENDROOT
BRANCH  16  20
ATOM     20  N   UNL     1       1.484   0.603  23.826  0.00  0.00    -0.200 NA
ATOM     21  C   UNL     1       2.079   0.426  23.282  0.00  0.00    +0.237 A 
ATOM     22  N   UNL     1       2.870   0.469  23.508  0.00  0.00    -0.209 NA
ATOM     23  C   UNL     1       3.466   0.292  22.965  0.00  0.00    +0.120 A 
ATOM     24  C   UNL     1       3.268   0.072  22.195  0.00  0.00    +0.043 A 
ATOM     25  C   UNL     1       2.476   0.029  21.968  0.00  0.00    +0.104 A 
ATOM     26  N   UNL     1       1.881   0.206  22.512  0.00  0.00    -0.211 NA
BRANCH  23  27
ATOM     27  C   UNL     1       4.257   0.334  23.191  0.00  0.00    +0.163 A 
ATOM     28  C   UNL     1       4.756  -0.307  23.333  0.00  0.00    +0.042 A 
ATOM     29  C   UNL     1       5.497  -0.012  23.545  0.00  0.00    +0.044 A 
ATOM     30  C   UNL     1       5.456   0.811  23.534  0.00  0.00    +0.180 A 
ATOM     31  O   UNL     1       4.690   1.025  23.315  0.00  0.00    -0.449 OA
ENDBRANCH  23  27
ENDBRANCH  16  20
BRANCH  12  11
ATOM     11  O   UNL     1      -1.981   1.358  23.402  0.00  0.00    -0.432 OA
BRANCH  11   9
ATOM      8  N   UNL     1      -3.263   1.946  23.631  0.00  0.00    -0.142 NA
ATOM      9  C   UNL     1      -2.573   1.601  23.923  0.00  0.00    +0.425 C 
ATOM     10  O   UNL     1      -2.474   1.498  24.736  0.00  0.00    -0.224 OA
BRANCH   8   7
ATOM      4  C   UNL     1      -5.039   2.675  25.194  0.00  0.00    +0.035 A 
ATOM      5  C   UNL     1      -4.503   3.225  24.893  0.00  0.00    +0.004 A 
ATOM      6  C   UNL     1      -3.911   2.982  24.372  0.00  0.00    +0.017 A 
ATOM      7  C   UNL     1      -3.855   2.188  24.152  0.00  0.00    +0.077 A 
ATOM     32  C   UNL     1      -4.391   1.639  24.453  0.00  0.00    +0.017 A 
ATOM     33  C   UNL     1      -4.983   1.882  24.974  0.00  0.00    +0.004 A 
BRANCH   4   2
ATOM      1  C   UNL     1      -6.081   2.357  26.118  0.00  0.00    +0.077 C 
ATOM      2  C   UNL     1      -5.631   2.918  25.714  0.00  0.00    +0.173 C 
ATOM      3  O   UNL     1      -5.772   3.723  25.832  0.00  0.00    -0.291 OA
ENDBRANCH   4   2
ENDBRANCH   8   7
ENDBRANCH  11   9
ENDBRANCH  12  11
TORSDOF 6
ENDMDL
MODEL 3
REMARK VINA RESULT:      -6.4      1.777      7.335
REMARK  Name = 
REMARK  6 active torsions:
REMARK  status: ('A' for Active; 'I' for Inactive)
REMARK    1  A    between atoms: C_2  and  C_4
REMARK    2  A    between atoms: C_7  and  N_8
REMARK    3  A    between atoms: C_9  and  O_11
REMARK    4  A    between atoms: O_11  and  C_12
REMARK    5  A    between atoms: C_16  and  N_20
REMARK    6  A    between atoms: C_23  and  C_27
REMARK                            x       y       z     vdW  Elec       q    Type
REMARK                         _______ _______ _______ _____ _____    ______ ____
ROOT
ATOM     12  C   UNL     1      -3.325  -0.310  24.606  0.00  0.00    +0.229 C 
ATOM     13  C   UNL     1      -3.314  -0.474  23.798  0.00  0.00    +0.188 C 
ATOM     14  O   UNL     1      -2.529  -0.595  23.574  0.00  0.00    -0.348 OA
ATOM     15  C   UNL     1      -2.056  -0.507  24.243  0.00  0.00    +0.168 C 
ATOM     16  C   UNL     1      -1.279  -0.528  24.519  0.00  0.00    +0.155 C 
ATOM     17  C   UNL     1      -1.290  -0.364  25.328  0.00  0.00    +0.166 C 
ATOM     18  O   UNL     1      -2.075  -0.242  25.551  0.00  0.00    -0.348 OA
ATOM     19  C   UNL     1      -2.548  -0.331  24.881  0.00  0.00    +0.186 C 
ENDROOT
BRANCH  16  20
ATOM     20  N   UNL     1      -0.607  -0.685  24.066  0.00  0.00    -0.200 NA
ATOM     21  C   UNL     1      -0.070  -0.080  23.900  0.00  0.00    +0.237 A 
ATOM     22  N   UNL     1       0.600  -0.237  23.447  0.00  0.00    -0.209 NA
ATOM     23  C   UNL     1       1.137   0.368  23.282  0.00  0.00    +0.120 A 
ATOM     24  C   UNL     1       1.003   1.129  23.570  0.00  0.00    +0.043 A 
ATOM     25  C   UNL     1       0.331   1.286  24.024  0.00  0.00    +0.104 A 
ATOM     26  N   UNL     1      -0.205   0.681  24.189  0.00  0.00    -0.211 NA
BRANCH  23  27
ATOM     27  C   UNL     1       1.808   0.211  22.829  0.00  0.00    +0.163 A 
ATOM     28  C   UNL     1       2.588   0.376  23.044  0.00  0.00    +0.042 A 
ATOM     29  C   UNL     1       3.079   0.129  22.429  0.00  0.00    +0.044 A 
ATOM     30  C   UNL     1       2.604  -0.188  21.835  0.00  0.00    +0.180 A 
ATOM     31  O   UNL     1       1.818  -0.138  22.082  0.00  0.00    -0.449 OA
ENDBRANCH  23  27
ENDBRANCH  16  20
BRANCH  12  11
ATOM     11  O   UNL     1      -3.997  -0.153  25.059  0.00  0.00    -0.432 OA
BRANCH  11   9
ATOM      8  N   UNL     1      -4.337   1.095  25.666  0.00  0.00    -0.142 NA
ATOM      9  C   UNL     1      -4.360   0.587  25.017  0.00  0.00    +0.425 C 
ATOM     10  O   UNL     1      -4.745   0.818  24.325  0.00  0.00    -0.224 OA
BRANCH   8   7
ATOM      4  C   UNL     1      -5.425   3.314  25.540  0.00  0.00    +0.035 A 
ATOM      5  C   UNL     1      -4.609   3.249  25.441  0.00  0.00    +0.004 A 
ATOM      6  C   UNL     1      -4.247   2.509  25.483  0.00  0.00    +0.017 A 
ATOM      7  C   UNL     1      -4.700   1.834  25.624  0.00  0.00    +0.077 A 
ATOM     32  C   UNL     1      -5.516   1.900  25.724  0.00  0.00    +0.017 A 
ATOM     33  C   UNL     1      -5.879   2.640  25.682  0.00  0.00    +0.004 A 
BRANCH   4   2
ATOM      1  C   UNL     1      -5.401   4.682  25.126  0.00  0.00    +0.077 C 
ATOM      2  C   UNL     1      -5.787   4.054  25.498  0.00  0.00    +0.173 C 
ATOM      3  O   UNL     1      -6.535   4.168  25.828  0.00  0.00    -0.291 OA
ENDBRANCH   4   2
ENDBRANCH   8   7
ENDBRANCH  11   9
ENDBRANCH  12  11
TORSDOF 6
ENDMDL
MODEL 4
REMARK VINA RESULT:      -6.2     15.299     16.410
REMARK  Name = 
REMARK  6 active torsions:
REMARK  status: ('A' for Active; 'I' for Inactive)
REMARK    1  A    between atoms: C_2  and  C_4
REMARK    2  A    between atoms: C_7  and  N_8
REMARK    3  A    between atoms: C_9  and  O_11
REMARK    4  A    between atoms: O_11  and  C_12
REMARK    5  A    between atoms: C_16  and  N_20
REMARK    6  A    between atoms: C_23  and  C_27
REMARK                            x       y       z     vdW  Elec       q    Type
REMARK                         _______ _______ _______ _____ _____    ______ ____
ROOT
ATOM     12  C   UNL     1      -5.708 -10.304  13.922  0.00  0.00    +0.229 C 
ATOM     13  C   UNL     1      -6.450 -10.539  13.649  0.00  0.00    +0.188 C 
ATOM     14  O   UNL     1      -6.986 -10.463  14.271  0.00  0.00    -0.348 OA
ATOM     15  C   UNL     1      -6.576 -10.181  14.929  0.00  0.00    +0.168 C 
ATOM     16  C   UNL     1      -6.653  -9.960  15.720  0.00  0.00    +0.155 C 
ATOM     17  C   UNL     1      -5.911  -9.724  15.993  0.00  0.00    +0.166 C 
ATOM     18  O   UNL     1      -5.375  -9.800  15.370  0.00  0.00    -0.348 OA
ATOM     19  C   UNL     1      -5.786 -10.083  14.712  0.00  0.00    +0.186 C 
ENDROOT
BRANCH  16  20
ATOM     20  N   UNL     1      -7.351  -9.972  16.161  0.00  0.00    -0.200 NA
ATOM     21  C   UNL     1      -7.339 -10.228  16.945  0.00  0.00    +0.237 A 
ATOM     22  N   UNL     1      -8.035 -10.241  17.386  0.00  0.00    -0.209 NA
ATOM     23  C   UNL     1      -8.024 -10.497  18.170  0.00  0.00    +0.120 A 
ATOM     24  C   UNL     1      -7.314 -10.741  18.513  0.00  0.00    +0.043 A 
ATOM     25  C   UNL     1      -6.617 -10.728  18.072  0.00  0.00    +0.104 A 
ATOM     26  N   UNL     1      -6.629 -10.472  17.288  0.00  0.00    -0.211 NA
BRANCH  23  27
ATOM     27  C   UNL     1      -8.720 -10.509  18.611  0.00  0.00    +0.163 A 
ATOM     28  C   UNL     1      -8.799 -10.780  19.386  0.00  0.00    +0.042 A 
ATOM     29  C   UNL     1      -9.588 -10.691  19.608  0.00  0.00    +0.044 A 
ATOM     30  C   UNL     1      -9.997 -10.366  18.971  0.00  0.00    +0.180 A 
ATOM     31  O   UNL     1      -9.461 -10.253  18.354  0.00  0.00    -0.449 OA
ENDBRANCH  23  27
ENDBRANCH  16  20
BRANCH  12  11
ATOM     11  O   UNL     1      -5.011 -10.291  13.481  0.00  0.00    -0.432 OA
BRANCH  11   9
ATOM      8  N   UNL     1      -4.546  -9.664  12.284  0.00  0.00    -0.142 NA
ATOM      9  C   UNL     1      -5.042 -10.204  12.661  0.00  0.00    +0.425 C 
ATOM     10  O   UNL     1      -5.571 -10.659  12.219  0.00  0.00    -0.224 OA
BRANCH   8   7
ATOM      4  C   UNL     1      -4.639  -9.404   9.824  0.00  0.00    +0.035 A 
ATOM      5  C   UNL     1      -4.176  -9.999  10.159  0.00  0.00    +0.004 A 
ATOM      6  C   UNL     1      -4.145 -10.085  10.979  0.00  0.00    +0.017 A 
ATOM      7  C   UNL     1      -4.578  -9.577  11.464  0.00  0.00    +0.077 A 
ATOM     32  C   UNL     1      -5.040  -8.983  11.130  0.00  0.00    +0.017 A 
ATOM     33  C   UNL     1      -5.072  -8.896  10.310  0.00  0.00    +0.004 A 
BRANCH   4   2
ATOM      1  C   UNL     1      -5.400  -9.297   8.619  0.00  0.00    +0.077 C 
ATOM      2  C   UNL     1      -4.670  -9.318   9.005  0.00  0.00    +0.173 C 
ATOM      3  O   UNL     1      -3.972  -9.252   8.570  0.00  0.00    -0.291 OA
ENDBRANCH   4   2
ENDBRANCH   8   7
ENDBRANCH  11   9
ENDBRANCH  12  11
TORSDOF 6
ENDMDL
MODEL 5
REMARK VINA RESULT:      -6.1     15.418     16.301
REMARK  Name = 
REMARK  6 active torsions:
REMARK  status: ('A' for Active; 'I' for Inactive)
REMARK    1  A    between atoms: C_2  and  C_4
REMARK    2  A    between atoms: C_7  and  N_8
REMARK    3  A    between atoms: C_9  and  O_11
REMARK    4  A    between atoms: O_11  and  C_12
REMARK    5  A    between atoms: C_16  and  N_20
REMARK    6  A    between atoms: C_23  and  C_27
REMARK                            x       y       z     vdW  Elec       q    Type
REMARK                         _______ _______ _______ _____ _____    ______ ____
ROOT
ATOM     12  C   UNL     1      -6.528  -9.843  12.154  0.00  0.00    +0.229 C 
ATOM     13  C   UNL     1      -6.693  -9.043  12.037  0.00  0.00    +0.188 C 
ATOM     14  O   UNL     1      -7.280  -8.823  12.573  0.00  0.00    -0.348 OA
ATOM     15  C   UNL     1      -7.479  -9.486  13.020  0.00  0.00    +0.168 C 
ATOM     16  C   UNL     1      -7.965  -9.762  13.627  0.00  0.00    +0.155 C 
ATOM     17  C   UNL     1      -7.801 -10.562  13.744  0.00  0.00    +0.166 C 
ATOM     18  O   UNL     1      -7.213 -10.781  13.208  0.00  0.00    -0.348 OA
ATOM     19  C   UNL     1      -7.014 -10.117  12.761  0.00  0.00    +0.186 C 
ENDROOT
BRANCH  16  20
ATOM     20  N   UNL     1      -8.519  -9.315  14.045  0.00  0.00    -0.200 NA
ATOM     21  C   UNL     1      -8.528  -9.334  14.870  0.00  0.00    +0.237 A 
ATOM     22  N   UNL     1      -9.081  -8.888  15.287  0.00  0.00    -0.209 NA
ATOM     23  C   UNL     1      -9.090  -8.907  16.112  0.00  0.00    +0.120 A 
ATOM     24  C   UNL     1      -8.545  -9.374  16.519  0.00  0.00    +0.043 A 
ATOM     25  C   UNL     1      -7.991  -9.822  16.101  0.00  0.00    +0.104 A 
ATOM     26  N   UNL     1      -7.983  -9.801  15.277  0.00  0.00    -0.211 NA
BRANCH  23  27
ATOM     27  C   UNL     1      -9.643  -8.461  16.530  0.00  0.00    +0.163 A 
ATOM     28  C   UNL     1     -10.125  -8.734  17.142  0.00  0.00    +0.042 A 
ATOM     29  C   UNL     1     -10.591  -8.104  17.399  0.00  0.00    +0.044 A 
ATOM     30  C   UNL     1     -10.398  -7.443  16.947  0.00  0.00    +0.180 A 
ATOM     31  O   UNL     1      -9.812  -7.663  16.410  0.00  0.00    -0.449 OA
ENDBRANCH  23  27
ENDBRANCH  16  20
BRANCH  12  11
ATOM     11  O   UNL     1      -5.975 -10.290  11.736  0.00  0.00    -0.432 OA
BRANCH  11   9
ATOM      8  N   UNL     1      -4.576 -10.529  11.568  0.00  0.00    -0.142 NA
ATOM      9  C   UNL     1      -5.208 -10.004  11.630  0.00  0.00    +0.425 C 
ATOM     10  O   UNL     1      -5.075  -9.190  11.585  0.00  0.00    -0.224 OA
BRANCH   8   7
ATOM      4  C   UNL     1      -2.277  -9.670  11.248  0.00  0.00    +0.035 A 
ATOM      5  C   UNL     1      -2.834  -9.594  10.644  0.00  0.00    +0.004 A 
ATOM      6  C   UNL     1      -3.600  -9.880  10.751  0.00  0.00    +0.017 A 
ATOM      7  C   UNL     1      -3.809 -10.243  11.462  0.00  0.00    +0.077 A 
ATOM     32  C   UNL     1      -3.253 -10.319  12.065  0.00  0.00    +0.017 A 
ATOM     33  C   UNL     1      -2.486 -10.032  11.959  0.00  0.00    +0.004 A 
BRANCH   4   2
ATOM      1  C   UNL     1      -0.915  -9.590  11.673  0.00  0.00    +0.077 C 
ATOM      2  C   UNL     1      -1.511  -9.383  11.141  0.00  0.00    +0.173 C 
ATOM      3  O   UNL     1      -1.340  -8.889  10.502  0.00  0.00    -0.291 OA
ENDBRANCH   4   2
ENDBRANCH   8   7
ENDBRANCH  11   9
ENDBRANCH  12  11
TORSDOF 6
ENDMDL
MODEL 6
REMARK VINA RESULT:      -5.3     15.778     17.492
REMARK  Name = 
REMARK  6 active torsions:
REMARK  status: ('A' for Active; 'I' for Inactive)
REMARK    1  A    between atoms: C_2  and  C_4
REMARK    2  A    between atoms: C_7  and  N_8
REMARK    3  A    between atoms: C_9  and  O_11
REMARK    4  A    between atoms: O_11  and  C_12
REMARK    5  A    between atoms: C_16  and  N_20
REMARK    6  A    between atoms: C_23  and  C_27
REMARK                            x       y       z     vdW  Elec       q    Type
REMARK                         _______ _______ _______ _____ _____    ______ ____
ROOT
ATOM     12  C   UNL     1      -6.792 -10.429  12.498  0.00  0.00    +0.229 C 
ATOM     13  C   UNL     1      -7.551 -10.453  12.819  0.00  0.00    +0.188 C 
ATOM     14  O   UNL     1      -7.478 -10.556  13.634  0.00  0.00    -0.348 OA
ATOM     15  C   UNL     1      -6.675 -10.596  13.816  0.00  0.00    +0.168 C 
ATOM     16  C   UNL     1      -6.133 -10.685  14.432  0.00  0.00    +0.155 C 
ATOM     17  C   UNL     1      -5.374 -10.660  14.110  0.00  0.00    +0.166 C 
ATOM     18  O   UNL     1      -5.447 -10.557  13.295  0.00  0.00    -0.348 OA
ATOM     19  C   UNL     1      -6.251 -10.517  13.113  0.00  0.00    +0.186 C 
ENDROOT
BRANCH  16  20
ATOM     20  N   UNL     1      -6.318 -10.780  15.231  0.00  0.00    -0.200 NA
ATOM     21  C   UNL     1      -5.784 -10.538  15.810  0.00  0.00    +0.237 A 
ATOM     22  N   UNL     1      -5.968 -10.634  16.608  0.00  0.00    -0.209 NA
ATOM     23  C   UNL     1      -5.434 -10.392  17.188  0.00  0.00    +0.120 A 
ATOM     24  C   UNL     1      -4.714 -10.054  16.969  0.00  0.00    +0.043 A 
ATOM     25  C   UNL     1      -4.528  -9.958  16.171  0.00  0.00    +0.104 A 
ATOM     26  N   UNL     1      -5.064 -10.200  15.592  0.00  0.00    -0.211 NA
BRANCH  23  27
ATOM     27  C   UNL     1      -5.618 -10.488  17.986  0.00  0.00    +0.163 A 
ATOM     28  C   UNL     1      -6.342 -10.309  18.341  0.00  0.00    +0.042 A 
ATOM     29  C   UNL     1      -6.283 -10.490  19.144  0.00  0.00    +0.044 A 
ATOM     30  C   UNL     1      -5.524 -10.780  19.285  0.00  0.00    +0.180 A 
ATOM     31  O   UNL     1      -5.113 -10.778  18.569  0.00  0.00    -0.449 OA
ENDBRANCH  23  27
ENDBRANCH  16  20
BRANCH  12  11
ATOM     11  O   UNL     1      -6.607 -10.333  11.699  0.00  0.00    -0.432 OA
BRANCH  11   9
ATOM      8  N   UNL     1      -7.275  -9.895  10.514  0.00  0.00    -0.142 NA
ATOM      9  C   UNL     1      -6.966  -9.732  11.261  0.00  0.00    +0.425 C 
ATOM     10  O   UNL     1      -7.015  -8.969  11.572  0.00  0.00    -0.224 OA
BRANCH   8   7
ATOM      4  C   UNL     1      -8.351  -8.094   9.200  0.00  0.00    +0.035 A 
ATOM      5  C   UNL     1      -7.528  -8.155   9.220  0.00  0.00    +0.004 A 
ATOM      6  C   UNL     1      -7.170  -8.756   9.658  0.00  0.00    +0.017 A 
ATOM      7  C   UNL     1      -7.634  -9.294  10.076  0.00  0.00    +0.077 A 
ATOM     32  C   UNL     1      -8.456  -9.233  10.056  0.00  0.00    +0.017 A 
ATOM     33  C   UNL     1      -8.815  -8.633   9.619  0.00  0.00    +0.004 A 
BRANCH   4   2
ATOM      1  C   UNL     1      -9.452  -7.616   8.426  0.00  0.00    +0.077 C 
ATOM      2  C   UNL     1      -8.709  -7.493   8.762  0.00  0.00    +0.173 C 
ATOM      3  O   UNL     1      -8.324  -6.771   8.661  0.00  0.00    -0.291 OA
ENDBRANCH   4   2
ENDBRANCH   8   7
ENDBRANCH  11   9
ENDBRANCH  12  11
TORSDOF 6
ENDMDL
