MODEL 1
REMARK VINA RESULT:     -10.6      0.000      0.000
REMARK  Name = 
REMARK  5 active torsions:
REMARK  status: ('A' for Active; 'I' for Inactive)
REMARK    1  A    between atoms: O_2  and  C_3
REMARK    2  A    between atoms: C_6  and  C_11
REMARK    3  A    between atoms: C_8  and  O_9
REMARK    4  A    between atoms: C_16  and  C_18
REMARK    5  A    between atoms: C_21  and  C_23
REMARK                            x       y       z     vdW  Elec       q    Type
REMARK                         _______ _______ _______ _____ _____    ______ ____
ROOT
ATOM     11  C   UNL     1      -1.042   2.353  25.709  0.00  0.00    +0.249 C 
ATOM     12  O   UNL     1      -0.560   2.112  26.335  0.00  0.00    -0.270 OA
ATOM     13  N   UNL     1      -1.409   1.790  25.230  0.00  0.00    -0.276 N 
ATOM     14  C   UNL     1      -1.902   1.949  24.589  0.00  0.00    +0.094 C 
ATOM     15  C   UNL     1      -2.145   1.227  24.271  0.00  0.00    +0.033 C 
ATOM     16  C   UNL     1      -1.802   0.623  24.716  0.00  0.00    +0.100 C 
ATOM     17  C   UNL     1      -1.346   0.972  25.309  0.00  0.00    +0.103 C 
ENDROOT
BRANCH  11   6
ATOM      3  C   UNL     1      -1.384   4.765  25.271  0.00  0.00    +0.172 A 
ATOM      4  C   UNL     1      -0.718   4.382  24.972  0.00  0.00    +0.040 A 
ATOM      5  C   UNL     1      -0.603   3.577  25.118  0.00  0.00    +0.008 A 
ATOM      6  C   UNL     1      -1.156   3.157  25.563  0.00  0.00    +0.057 A 
ATOM      7  C   UNL     1      -1.822   3.540  25.863  0.00  0.00    +0.045 A 
ATOM      8  C   UNL     1      -1.936   4.344  25.717  0.00  0.00    +0.173 A 
BRANCH   3   2
ATOM      1  C   UNL     1      -0.983   5.973  24.621  0.00  0.00    +0.253 C 
ATOM      2  O   UNL     1      -1.498   5.568  25.125  0.00  0.00    -0.468 OA
ENDBRANCH   3   2
BRANCH   8   9
ATOM      9  O   UNL     1      -2.603   4.727  26.017  0.00  0.00    -0.468 OA
ATOM     10  C   UNL     1      -3.220   4.287  26.344  0.00  0.00    +0.253 C 
ENDBRANCH   8   9
ENDBRANCH  11   6
BRANCH  16  18
ATOM     18  C   UNL     1      -1.896  -0.186  24.591  0.00  0.00    +0.228 A 
ATOM     19  N   UNL     1      -1.292  -0.727  24.436  0.00  0.00    -0.111 NA
ATOM     20  N   UNL     1      -1.633  -1.472  24.348  0.00  0.00    -0.107 NA
ATOM     21  C   UNL     1      -2.449  -1.393  24.447  0.00  0.00    +0.252 A 
ATOM     22  O   UNL     1      -2.611  -0.598  24.597  0.00  0.00    -0.419 OA
BRANCH  21  23
ATOM     23  C   UNL     1      -3.005  -2.002  24.404  0.00  0.00    +0.083 A 
ATOM     24  C   UNL     1      -2.897  -2.690  24.846  0.00  0.00    +0.007 A 
ATOM     25  C   UNL     1      -3.453  -3.299  24.803  0.00  0.00    +0.000 A 
ATOM     26  C   UNL     1      -4.115  -3.219  24.318  0.00  0.00    +0.002 A 
ATOM     27  C   UNL     1      -4.222  -2.530  23.876  0.00  0.00    +0.030 A 
ATOM     28  C   UNL     1      -3.667  -1.922  23.918  0.00  0.00    +0.145 A 
ATOM     29  F   UNL     1      -3.773  -1.233  23.476  0.00  0.00    -0.204 F 
ENDBRANCH  21  23
ENDBRANCH  16  18
TORSDOF 5
ENDMDL
MODEL 2
REMARK VINA RESULT:     -10.3      1.636      6.069
REMARK  Name = 
REMARK  5 active torsions:
REMARK  status: ('A' for Active; 'I' for Inactive)
REMARK    1  A    between atoms: O_2  and  C_3
REMARK    2  A    between atoms: C_6  and  C_11
REMARK    3  A    between atoms: C_8  and  O_9
REMARK    4  A    between atoms: C_16  and  C_18
REMARK    5  A    between atoms: C_21  and  C_23
REMARK                            x       y       z     vdW  Elec       q    Type
REMARK                         _______ _______ _______ _____ _____    ______ ____
ROOT
ATOM     11  C   UNL     1      -1.951  -0.680  25.728  0.00  0.00    +0.249 C 
ATOM     12  O   UNL     1      -1.598  -0.853  26.453  0.00  0.00    -0.270 OA
ATOM     13  N   UNL     1      -1.872   0.072  25.399  0.00  0.00    -0.276 N 
ATOM     14  C   UNL     1      -2.193   0.323  24.682  0.00  0.00    +0.094 C 
ATOM     15  C   UNL     1      -1.978   1.112  24.569  0.00  0.00    +0.033 C 
ATOM     16  C   UNL     1      -1.524   1.347  25.216  0.00  0.00    +0.100 C 
ATOM     17  C   UNL     1      -1.459   0.704  25.730  0.00  0.00    +0.103 C 
ENDROOT
BRANCH  11   6
ATOM      3  C   UNL     1      -3.249  -2.421  24.539  0.00  0.00    +0.172 A 
ATOM      4  C   UNL     1      -3.637  -1.873  25.019  0.00  0.00    +0.040 A 
ATOM      5  C   UNL     1      -3.204  -1.292  25.415  0.00  0.00    +0.008 A 
ATOM      6  C   UNL     1      -2.384  -1.261  25.331  0.00  0.00    +0.057 A 
ATOM      7  C   UNL     1      -1.997  -1.809  24.852  0.00  0.00    +0.045 A 
ATOM      8  C   UNL     1      -2.429  -2.389  24.456  0.00  0.00    +0.173 A 
BRANCH   3   2
ATOM      1  C   UNL     1      -4.444  -2.833  23.871  0.00  0.00    +0.253 C 
ATOM      2  O   UNL     1      -3.682  -3.001  24.143  0.00  0.00    -0.468 OA
ENDBRANCH   3   2
BRANCH   8   9
ATOM      9  O   UNL     1      -2.041  -2.937  23.976  0.00  0.00    -0.468 OA
ATOM     10  C   UNL     1      -1.216  -2.967  23.967  0.00  0.00    +0.253 C 
ENDBRANCH   8   9
ENDBRANCH  11   6
BRANCH  16  18
ATOM     18  C   UNL     1      -1.193   2.094  25.331  0.00  0.00    +0.228 A 
ATOM     19  N   UNL     1      -0.491   2.257  25.733  0.00  0.00    -0.111 NA
ATOM     20  N   UNL     1      -0.370   3.072  25.715  0.00  0.00    -0.107 NA
ATOM     21  C   UNL     1      -0.997   3.414  25.302  0.00  0.00    +0.252 A 
ATOM     22  O   UNL     1      -1.506   2.809  25.065  0.00  0.00    -0.419 OA
BRANCH  21  23
ATOM     23  C   UNL     1      -1.098   4.220  25.152  0.00  0.00    +0.083 A 
ATOM     24  C   UNL     1      -0.550   4.624  24.686  0.00  0.00    +0.007 A 
ATOM     25  C   UNL     1      -0.651   5.429  24.536  0.00  0.00    +0.000 A 
ATOM     26  C   UNL     1      -1.299   5.830  24.852  0.00  0.00    +0.002 A 
ATOM     27  C   UNL     1      -1.847   5.425  25.318  0.00  0.00    +0.030 A 
ATOM     28  C   UNL     1      -1.746   4.620  25.468  0.00  0.00    +0.145 A 
ATOM     29  F   UNL     1      -2.294   4.215  25.934  0.00  0.00    -0.204 F 
ENDBRANCH  21  23
ENDBRANCH  16  18
TORSDOF 5
ENDMDL
MODEL 3
REMARK VINA RESULT:      -9.6      2.865      4.143
REMARK  Name = 
REMARK  5 active torsions:
REMARK  status: ('A' for Active; 'I' for Inactive)
REMARK    1  A    between atoms: O_2  and  C_3
REMARK    2  A    between atoms: C_6  and  C_11
REMARK    3  A    between atoms: C_8  and  O_9
REMARK    4  A    between atoms: C_16  and  C_18
REMARK    5  A    between atoms: C_21  and  C_23
REMARK                            x       y       z     vdW  Elec       q    Type
REMARK                         _______ _______ _______ _____ _____    ______ ____
ROOT
ATOM     11  C   UNL     1      -2.950   1.990  23.857  0.00  0.00    +0.249 C 
ATOM     12  O   UNL     1      -2.883   2.339  23.112  0.00  0.00    -0.270 OA
ATOM     13  N   UNL     1      -2.381   1.451  24.113  0.00  0.00    -0.276 N 
ATOM     14  C   UNL     1      -2.376   1.061  24.840  0.00  0.00    +0.094 C 
ATOM     15  C   UNL     1      -1.709   0.576  24.864  0.00  0.00    +0.033 C 
ATOM     16  C   UNL     1      -1.302   0.667  24.152  0.00  0.00    +0.100 C 
ATOM     17  C   UNL     1      -1.718   1.208  23.688  0.00  0.00    +0.103 C 
ENDROOT
BRANCH  11   6
ATOM      3  C   UNL     1      -4.862   2.563  25.322  0.00  0.00    +0.172 A 
ATOM      4  C   UNL     1      -4.902   1.901  24.831  0.00  0.00    +0.040 A 
ATOM      5  C   UNL     1      -4.264   1.709  24.343  0.00  0.00    +0.008 A 
ATOM      6  C   UNL     1      -3.588   2.181  24.345  0.00  0.00    +0.057 A 
ATOM      7  C   UNL     1      -3.548   2.844  24.836  0.00  0.00    +0.045 A 
ATOM      8  C   UNL     1      -4.184   3.034  25.323  0.00  0.00    +0.173 A 
BRANCH   3   2
ATOM      1  C   UNL     1      -6.127   2.224  25.893  0.00  0.00    +0.253 C 
ATOM      2  O   UNL     1      -5.499   2.753  25.809  0.00  0.00    -0.468 OA
ENDBRANCH   3   2
BRANCH   8   9
ATOM      9  O   UNL     1      -4.145   3.697  25.814  0.00  0.00    -0.468 OA
ATOM     10  C   UNL     1      -3.420   4.069  25.946  0.00  0.00    +0.253 C 
ENDBRANCH   8   9
ENDBRANCH  11   6
BRANCH  16  18
ATOM     18  C   UNL     1      -0.603   0.284  23.940  0.00  0.00    +0.228 A 
ATOM     19  N   UNL     1      -0.413  -0.503  24.101  0.00  0.00    -0.111 NA
ATOM     20  N   UNL     1       0.337  -0.653  23.791  0.00  0.00    -0.107 NA
ATOM     21  C   UNL     1       0.611   0.042  23.440  0.00  0.00    +0.252 A 
ATOM     22  O   UNL     1       0.030   0.621  23.532  0.00  0.00    -0.419 OA
BRANCH  21  23
ATOM     23  C   UNL     1       1.339   0.141  23.062  0.00  0.00    +0.083 A 
ATOM     24  C   UNL     1       1.949   0.545  23.443  0.00  0.00    +0.007 A 
ATOM     25  C   UNL     1       2.676   0.643  23.065  0.00  0.00    +0.000 A 
ATOM     26  C   UNL     1       2.792   0.338  22.308  0.00  0.00    +0.002 A 
ATOM     27  C   UNL     1       2.181  -0.067  21.928  0.00  0.00    +0.030 A 
ATOM     28  C   UNL     1       1.455  -0.165  22.305  0.00  0.00    +0.145 A 
ATOM     29  F   UNL     1       0.844  -0.569  21.925  0.00  0.00    -0.204 F 
ENDBRANCH  21  23
ENDBRANCH  16  18
TORSDOF 5
ENDMDL
MODEL 4
REMARK VINA RESULT:      -9.0      4.013      5.566
REMARK  Name = 
REMARK  5 active torsions:
REMARK  status: ('A' for Active; 'I' for Inactive)
REMARK    1  A    between atoms: O_2  and  C_3
REMARK    2  A    between atoms: C_6  and  C_11
REMARK    3  A    between atoms: C_8  and  O_9
REMARK    4  A    between atoms: C_16  and  C_18
REMARK    5  A    between atoms: C_21  and  C_23
REMARK                            x       y       z     vdW  Elec       q    Type
REMARK                         _______ _______ _______ _____ _____    ______ ____
ROOT
ATOM     11  C   UNL     1      -0.601   1.061  24.423  0.00  0.00    +0.249 C 
ATOM     12  O   UNL     1      -0.311   1.732  24.805  0.00  0.00    -0.270 OA
ATOM     13  N   UNL     1      -0.104   0.613  23.941  0.00  0.00    -0.276 N 
ATOM     14  C   UNL     1      -0.316  -0.068  23.527  0.00  0.00    +0.094 C 
ATOM     15  C   UNL     1       0.349  -0.335  23.118  0.00  0.00    +0.033 C 
ATOM     16  C   UNL     1       0.972   0.181  23.280  0.00  0.00    +0.100 C 
ATOM     17  C   UNL     1       0.691   0.767  23.789  0.00  0.00    +0.103 C 
ENDROOT
BRANCH  11   6
ATOM      3  C   UNL     1      -2.965   0.391  24.726  0.00  0.00    +0.172 A 
ATOM      4  C   UNL     1      -2.374   0.033  25.177  0.00  0.00    +0.040 A 
ATOM      5  C   UNL     1      -1.586   0.256  25.076  0.00  0.00    +0.008 A 
ATOM      6  C   UNL     1      -1.390   0.838  24.524  0.00  0.00    +0.057 A 
ATOM      7  C   UNL     1      -1.981   1.196  24.074  0.00  0.00    +0.045 A 
ATOM      8  C   UNL     1      -2.768   0.973  24.175  0.00  0.00    +0.173 A 
BRANCH   3   2
ATOM      1  C   UNL     1      -3.936  -0.524  25.240  0.00  0.00    +0.253 C 
ATOM      2  O   UNL     1      -3.752   0.168  24.827  0.00  0.00    -0.468 OA
ENDBRANCH   3   2
BRANCH   8   9
ATOM      9  O   UNL     1      -3.360   1.331  23.724  0.00  0.00    -0.468 OA
ATOM     10  C   UNL     1      -3.239   2.085  23.410  0.00  0.00    +0.253 C 
ENDBRANCH   8   9
ENDBRANCH  11   6
BRANCH  16  18
ATOM     18  C   UNL     1       1.740   0.123  22.985  0.00  0.00    +0.228 A 
ATOM     19  N   UNL     1       1.949   0.029  22.192  0.00  0.00    -0.111 NA
ATOM     20  N   UNL     1       2.772  -0.004  22.148  0.00  0.00    -0.107 NA
ATOM     21  C   UNL     1       3.072   0.069  22.913  0.00  0.00    +0.252 A 
ATOM     22  O   UNL     1       2.434   0.148  23.431  0.00  0.00    -0.419 OA
BRANCH  21  23
ATOM     23  C   UNL     1       3.870   0.065  23.124  0.00  0.00    +0.083 A 
ATOM     24  C   UNL     1       4.215  -0.625  23.416  0.00  0.00    +0.007 A 
ATOM     25  C   UNL     1       5.013  -0.629  23.628  0.00  0.00    +0.000 A 
ATOM     26  C   UNL     1       5.465   0.056  23.547  0.00  0.00    +0.002 A 
ATOM     27  C   UNL     1       5.118   0.746  23.254  0.00  0.00    +0.030 A 
ATOM     28  C   UNL     1       4.321   0.750  23.043  0.00  0.00    +0.145 A 
ATOM     29  F   UNL     1       3.975   1.440  22.751  0.00  0.00    -0.204 F 
ENDBRANCH  21  23
ENDBRANCH  16  18
TORSDOF 5
ENDMDL
MODEL 5
REMARK VINA RESULT:      -7.6     17.866     19.071
REMARK  Name = 
REMARK  5 active torsions:
REMARK  status: ('A' for Active; 'I' for Inactive)
REMARK    1  A    between atoms: O_2  and  C_3
REMARK    2  A    between atoms: C_6  and  C_11
REMARK    3  A    between atoms: C_8  and  O_9
REMARK    4  A    between atoms: C_16  and  C_18
REMARK    5  A    between atoms: C_21  and  C_23
REMARK                            x       y       z     vdW  Elec       q    Type
REMARK                         _______ _______ _______ _____ _____    ______ ____
ROOT
ATOM     11  C   UNL     1      -7.233  -8.854   8.585  0.00  0.00    +0.249 C 
ATOM     12  O   UNL     1      -7.394  -9.519   8.124  0.00  0.00    -0.270 OA
ATOM     13  N   UNL     1      -6.525  -8.804   9.004  0.00  0.00    -0.276 N 
ATOM     14  C   UNL     1      -6.291  -8.176   9.485  0.00  0.00    +0.094 C 
ATOM     15  C   UNL     1      -5.547  -8.357   9.795  0.00  0.00    +0.033 C 
ATOM     16  C   UNL     1      -5.323  -9.096   9.505  0.00  0.00    +0.100 C 
ATOM     17  C   UNL     1      -5.928  -9.372   9.016  0.00  0.00    +0.103 C 
ENDROOT
BRANCH  11   6
ATOM      3  C   UNL     1      -8.879  -7.009   8.709  0.00  0.00    +0.172 A 
ATOM      4  C   UNL     1      -8.216  -6.938   8.223  0.00  0.00    +0.040 A 
ATOM      5  C   UNL     1      -7.667  -7.553   8.182  0.00  0.00    +0.008 A 
ATOM      6  C   UNL     1      -7.782  -8.239   8.626  0.00  0.00    +0.057 A 
ATOM      7  C   UNL     1      -8.446  -8.309   9.112  0.00  0.00    +0.045 A 
ATOM      8  C   UNL     1      -8.993  -7.695   9.153  0.00  0.00    +0.173 A 
BRANCH   3   2
ATOM      1  C   UNL     1      -9.233  -5.648   8.454  0.00  0.00    +0.253 C 
ATOM      2  O   UNL     1      -9.427  -6.394   8.750  0.00  0.00    -0.468 OA
ENDBRANCH   3   2
BRANCH   8   9
ATOM      9  O   UNL     1      -9.657  -7.765   9.639  0.00  0.00    -0.468 OA
ATOM     10  C   UNL     1      -9.981  -8.509   9.789  0.00  0.00    +0.253 C 
ENDBRANCH   8   9
ENDBRANCH  11   6
BRANCH  16  18
ATOM     18  C   UNL     1      -4.618  -9.490   9.673  0.00  0.00    +0.228 A 
ATOM     19  N   UNL     1      -4.219 -10.006   9.168  0.00  0.00    -0.111 NA
ATOM     20  N   UNL     1      -3.543 -10.273   9.559  0.00  0.00    -0.107 NA
ATOM     21  C   UNL     1      -3.524  -9.921  10.305  0.00  0.00    +0.252 A 
ATOM     22  O   UNL     1      -4.189  -9.437  10.376  0.00  0.00    -0.419 OA
BRANCH  21  23
ATOM     23  C   UNL     1      -2.943 -10.034  10.880  0.00  0.00    +0.083 A 
ATOM     24  C   UNL     1      -3.044 -10.611  11.461  0.00  0.00    +0.007 A 
ATOM     25  C   UNL     1      -2.463 -10.723  12.036  0.00  0.00    +0.000 A 
ATOM     26  C   UNL     1      -1.781 -10.259  12.030  0.00  0.00    +0.002 A 
ATOM     27  C   UNL     1      -1.681  -9.681  11.449  0.00  0.00    +0.030 A 
ATOM     28  C   UNL     1      -2.261  -9.569  10.874  0.00  0.00    +0.145 A 
ATOM     29  F   UNL     1      -2.161  -8.992  10.293  0.00  0.00    -0.204 F 
ENDBRANCH  21  23
ENDBRANCH  16  18
TORSDOF 5
ENDMDL
MODEL 6
REMARK VINA RESULT:      -6.8     15.647     18.370
REMARK  Name = 
REMARK  5 active torsions:
REMARK  status: ('A' for Active; 'I' for Inactive)
REMARK    1  A    between atoms: O_2  and  C_3
REMARK    2  A    between atoms: C_6  and  C_11
REMARK    3  A    between atoms: C_8  and  O_9
REMARK    4  A    between atoms: C_16  and  C_18
REMARK    5  A    between atoms: C_21  and  C_23
REMARK                            x       y       z     vdW  Elec       q    Type
REMARK                         _______ _______ _______ _____ _____    ______ ____
ROOT
ATOM     11  C   UNL     1      -4.416  -9.593   9.594  0.00  0.00    +0.249 C 
ATOM     12  O   UNL     1      -3.850  -9.152   9.186  0.00  0.00    -0.270 OA
ATOM     13  N   UNL     1      -4.228  -9.935  10.320  0.00  0.00    -0.276 N 
ATOM     14  C   UNL     1      -4.735 -10.388  10.788  0.00  0.00    +0.094 C 
ATOM     15  C   UNL     1      -4.320 -10.618  11.463  0.00  0.00    +0.033 C 
ATOM     16  C   UNL     1      -3.558 -10.307  11.413  0.00  0.00    +0.100 C 
ATOM     17  C   UNL     1      -3.501  -9.885  10.706  0.00  0.00    +0.103 C 
ENDROOT
BRANCH  11   6
ATOM      3  C   UNL     1      -6.679  -9.887   8.635  0.00  0.00    +0.172 A 
ATOM      4  C   UNL     1      -6.137 -10.508   8.610  0.00  0.00    +0.040 A 
ATOM      5  C   UNL     1      -5.382 -10.410   8.930  0.00  0.00    +0.008 A 
ATOM      6  C   UNL     1      -5.171  -9.691   9.274  0.00  0.00    +0.057 A 
ATOM      7  C   UNL     1      -5.713  -9.069   9.299  0.00  0.00    +0.045 A 
ATOM      8  C   UNL     1      -6.467  -9.168   8.979  0.00  0.00    +0.173 A 
BRANCH   3   2
ATOM      1  C   UNL     1      -7.754 -10.742   8.241  0.00  0.00    +0.253 C 
ATOM      2  O   UNL     1      -7.433  -9.985   8.315  0.00  0.00    -0.468 OA
ENDBRANCH   3   2
BRANCH   8   9
ATOM      9  O   UNL     1      -7.010  -8.546   9.004  0.00  0.00    -0.468 OA
ATOM     10  C   UNL     1      -6.896  -7.920   9.530  0.00  0.00    +0.253 C 
ENDBRANCH   8   9
ENDBRANCH  11   6
BRANCH  16  18
ATOM     18  C   UNL     1      -2.958 -10.401  11.970  0.00  0.00    +0.228 A 
ATOM     19  N   UNL     1      -2.188 -10.657  11.816  0.00  0.00    -0.111 NA
ATOM     20  N   UNL     1      -1.776 -10.670  12.530  0.00  0.00    -0.107 NA
ATOM     21  C   UNL     1      -2.290 -10.423  13.126  0.00  0.00    +0.252 A 
ATOM     22  O   UNL     1      -3.020 -10.257  12.780  0.00  0.00    -0.419 OA
BRANCH  21  23
ATOM     23  C   UNL     1      -2.106 -10.354  13.928  0.00  0.00    +0.083 A 
ATOM     24  C   UNL     1      -2.536 -10.781  14.487  0.00  0.00    +0.007 A 
ATOM     25  C   UNL     1      -2.352 -10.712  15.289  0.00  0.00    +0.000 A 
ATOM     26  C   UNL     1      -1.739 -10.216  15.530  0.00  0.00    +0.002 A 
ATOM     27  C   UNL     1      -1.310  -9.789  14.970  0.00  0.00    +0.030 A 
ATOM     28  C   UNL     1      -1.493  -9.857  14.169  0.00  0.00    +0.145 A 
ATOM     29  F   UNL     1      -1.064  -9.430  13.609  0.00  0.00    -0.204 F 
ENDBRANCH  21  23
ENDBRANCH  16  18
TORSDOF 5
ENDMDL
MODEL 7
REMARK VINA RESULT:      -6.8     14.684     17.131
REMARK  Name = 
REMARK  5 active torsions:
REMARK  status: ('A' for Active; 'I' for Inactive)
REMARK    1  A    between atoms: O_2  and  C_3
REMARK    2  A    between atoms: C_6  and  C_11
REMARK    3  A    between atoms: C_8  and  O_9
REMARK    4  A    between atoms: C_16  and  C_18
REMARK    5  A    between atoms: C_21  and  C_23
REMARK                            x       y       z     vdW  Elec       q    Type
REMARK                         _______ _______ _______ _____ _____    ______ ____
ROOT
ATOM     11  C   UNL     1      -3.110 -10.155  11.638  0.00  0.00    +0.249 C 
ATOM     12  O   UNL     1      -2.293 -10.065  11.701  0.00  0.00    -0.270 OA
ATOM     13  N   UNL     1      -3.565 -10.286  12.314  0.00  0.00    -0.276 N 
ATOM     14  C   UNL     1      -4.384 -10.385  12.335  0.00  0.00    +0.094 C 
ATOM     15  C   UNL     1      -4.606 -10.501  13.121  0.00  0.00    +0.033 C 
ATOM     16  C   UNL     1      -3.924 -10.473  13.585  0.00  0.00    +0.100 C 
ATOM     17  C   UNL     1      -3.281 -10.340  13.086  0.00  0.00    +0.103 C 
ENDROOT
BRANCH  11   6
ATOM      3  C   UNL     1      -4.199 -10.032   9.418  0.00  0.00    +0.172 A 
ATOM      4  C   UNL     1      -3.860 -10.740   9.673  0.00  0.00    +0.040 A 
ATOM      5  C   UNL     1      -3.497 -10.781  10.413  0.00  0.00    +0.008 A 
ATOM      6  C   UNL     1      -3.473 -10.114  10.898  0.00  0.00    +0.057 A 
ATOM      7  C   UNL     1      -3.812  -9.406  10.643  0.00  0.00    +0.045 A 
ATOM      8  C   UNL     1      -4.175  -9.366   9.904  0.00  0.00    +0.173 A 
BRANCH   3   2
ATOM      1  C   UNL     1      -4.643 -10.674   8.221  0.00  0.00    +0.253 C 
ATOM      2  O   UNL     1      -4.561  -9.992   8.678  0.00  0.00    -0.468 OA
ENDBRANCH   3   2
BRANCH   8   9
ATOM      9  O   UNL     1      -4.514  -8.657   9.648  0.00  0.00    -0.468 OA
ATOM     10  C   UNL     1      -4.603  -8.029  10.177  0.00  0.00    +0.253 C 
ENDBRANCH   8   9
ENDBRANCH  11   6
BRANCH  16  18
ATOM     18  C   UNL     1      -3.892 -10.562  14.404  0.00  0.00    +0.228 A 
ATOM     19  N   UNL     1      -3.219 -10.747  14.845  0.00  0.00    -0.111 NA
ATOM     20  N   UNL     1      -3.436 -10.781  15.640  0.00  0.00    -0.107 NA
ATOM     21  C   UNL     1      -4.244 -10.617  15.691  0.00  0.00    +0.252 A 
ATOM     22  O   UNL     1      -4.525 -10.481  14.927  0.00  0.00    -0.419 OA
BRANCH  21  23
ATOM     23  C   UNL     1      -4.691 -10.593  16.384  0.00  0.00    +0.083 A 
ATOM     24  C   UNL     1      -5.515 -10.565  16.342  0.00  0.00    +0.007 A 
ATOM     25  C   UNL     1      -5.962 -10.540  17.035  0.00  0.00    +0.000 A 
ATOM     26  C   UNL     1      -5.586 -10.544  17.769  0.00  0.00    +0.002 A 
ATOM     27  C   UNL     1      -4.763 -10.572  17.810  0.00  0.00    +0.030 A 
ATOM     28  C   UNL     1      -4.315 -10.597  17.118  0.00  0.00    +0.145 A 
ATOM     29  F   UNL     1      -3.492 -10.625  17.160  0.00  0.00    -0.204 F 
ENDBRANCH  21  23
ENDBRANCH  16  18
TORSDOF 5
ENDMDL
MODEL 8
REMARK VINA RESULT:      -6.7     14.612     16.769
REMARK  Name = 
REMARK  5 active torsions:
REMARK  status: ('A' for Active; 'I' for Inactive)
REMARK    1  A    between atoms: O_2  and  C_3
REMARK    2  A    between atoms: C_6  and  C_11
REMARK    3  A    between atoms: C_8  and  O_9
REMARK    4  A    between atoms: C_16  and  C_18
REMARK    5  A    between atoms: C_21  and  C_23
REMARK                            x       y       z     vdW  Elec       q    Type
REMARK                         _______ _______ _______ _____ _____    ______ ____
ROOT
ATOM     11  C   UNL     1      -7.455 -10.428  14.915  0.00  0.00    +0.249 C 
ATOM     12  O   UNL     1      -8.143 -10.781  14.626  0.00  0.00    -0.270 OA
ATOM     13  N   UNL     1      -6.843 -10.232  14.398  0.00  0.00    -0.276 N 
ATOM     14  C   UNL     1      -6.127  -9.879  14.608  0.00  0.00    +0.094 C 
ATOM     15  C   UNL     1      -5.680  -9.783  13.920  0.00  0.00    +0.033 C 
ATOM     16  C   UNL     1      -6.120 -10.077  13.287  0.00  0.00    +0.100 C 
ATOM     17  C   UNL     1      -6.839 -10.355  13.583  0.00  0.00    +0.103 C 
ENDROOT
BRANCH  11   6
ATOM      3  C   UNL     1      -7.231  -9.959  17.335  0.00  0.00    +0.172 A 
ATOM      4  C   UNL     1      -6.860 -10.618  17.007  0.00  0.00    +0.040 A 
ATOM      5  C   UNL     1      -6.934 -10.775  16.200  0.00  0.00    +0.008 A 
ATOM      6  C   UNL     1      -7.381 -10.272  15.722  0.00  0.00    +0.057 A 
ATOM      7  C   UNL     1      -7.752  -9.612  16.051  0.00  0.00    +0.045 A 
ATOM      8  C   UNL     1      -7.677  -9.456  16.857  0.00  0.00    +0.173 A 
BRANCH   3   2
ATOM      1  C   UNL     1      -6.739 -10.325  18.626  0.00  0.00    +0.253 C 
ATOM      2  O   UNL     1      -7.157  -9.803  18.141  0.00  0.00    -0.468 OA
ENDBRANCH   3   2
BRANCH   8   9
ATOM      9  O   UNL     1      -8.049  -8.796  17.185  0.00  0.00    -0.468 OA
ATOM     10  C   UNL     1      -8.775  -8.541  16.887  0.00  0.00    +0.253 C 
ENDBRANCH   8   9
ENDBRANCH  11   6
BRANCH  16  18
ATOM     18  C   UNL     1      -5.884 -10.092  12.497  0.00  0.00    +0.228 A 
ATOM     19  N   UNL     1      -6.243 -10.522  11.891  0.00  0.00    -0.111 NA
ATOM     20  N   UNL     1      -5.828 -10.375  11.194  0.00  0.00    -0.107 NA
ATOM     21  C   UNL     1      -5.212  -9.854  11.368  0.00  0.00    +0.252 A 
ATOM     22  O   UNL     1      -5.247  -9.679  12.174  0.00  0.00    -0.419 OA
BRANCH  21  23
ATOM     23  C   UNL     1      -4.659  -9.559  10.831  0.00  0.00    +0.083 A 
ATOM     24  C   UNL     1      -4.848  -8.909  10.360  0.00  0.00    +0.007 A 
ATOM     25  C   UNL     1      -4.294  -8.615   9.823  0.00  0.00    +0.000 A 
ATOM     26  C   UNL     1      -3.553  -8.971   9.758  0.00  0.00    +0.002 A 
ATOM     27  C   UNL     1      -3.365  -9.621  10.230  0.00  0.00    +0.030 A 
ATOM     28  C   UNL     1      -3.917  -9.915  10.766  0.00  0.00    +0.145 A 
ATOM     29  F   UNL     1      -3.729 -10.565  11.238  0.00  0.00    -0.204 F 
ENDBRANCH  21  23
ENDBRANCH  16  18
TORSDOF 5
ENDMDL
