MODEL 1
REMARK VINA RESULT:     -13.0      0.000      0.000
REMARK  Name = 
REMARK  1 active torsions:
REMARK  status: ('A' for Active; 'I' for Inactive)
REMARK    1  A    between atoms: C_19  and  C_21
REMARK                            x       y       z     vdW  Elec       q    Type
REMARK                         _______ _______ _______ _____ _____    ______ ____
ROOT
ATOM      1 BR   UNL     1      -0.482   4.629  25.018  0.00  0.00    -0.049 Br
ATOM      2  C   UNL     1      -1.236   4.297  25.046  0.00  0.00    +0.035 A 
ATOM      3  C   UNL     1      -1.897   4.780  25.146  0.00  0.00    +0.008 A 
ATOM      4  C   UNL     1      -2.651   4.446  25.174  0.00  0.00    +0.017 A 
ATOM      5  C   UNL     1      -2.744   3.630  25.102  0.00  0.00    +0.078 A 
ATOM      6  N   UNL     1      -3.539   3.413  25.144  0.00  0.00    -0.178 NA
ATOM      7  C   UNL     1      -3.869   2.659  25.097  0.00  0.00    +0.265 C 
ATOM      8  O   UNL     1      -4.690   2.623  25.160  0.00  0.00    -0.271 OA
ATOM      9  C   UNL     1      -3.486   1.934  24.996  0.00  0.00    +0.174 C 
ATOM     10  C   UNL     1      -4.023   1.309  24.978  0.00  0.00    +0.123 C 
ATOM     11  N   UNL     1      -3.753   0.535  24.881  0.00  0.00    -0.272 N 
ATOM     12  C   UNL     1      -2.945   0.388  24.802  0.00  0.00    +0.115 C 
ATOM     13  C   UNL     1      -2.408   1.014  24.820  0.00  0.00    +0.116 C 
ATOM     14  N   UNL     1      -2.678   1.787  24.917  0.00  0.00    -0.266 N 
ATOM     15  C   UNL     1      -2.054   2.326  24.919  0.00  0.00    +0.251 C 
ATOM     16  O   UNL     1      -1.301   2.003  24.827  0.00  0.00    -0.270 OA
ATOM     17  C   UNL     1      -2.083   3.147  25.002  0.00  0.00    +0.069 A 
ATOM     18  C   UNL     1      -1.329   3.480  24.974  0.00  0.00    +0.013 A 
ATOM     19  C   UNL     1      -4.290  -0.090  24.863  0.00  0.00    +0.251 C 
ATOM     20  O   UNL     1      -5.098   0.057  24.942  0.00  0.00    -0.270 OA
ENDROOT
BRANCH  19  21
ATOM     21  C   UNL     1      -4.020  -0.864  24.766  0.00  0.00    +0.073 A 
ATOM     22  C   UNL     1      -3.691  -1.269  25.405  0.00  0.00    +0.103 A 
ATOM     23  N   UNL     1      -3.421  -2.043  25.308  0.00  0.00    -0.242 NA
ATOM     24  C   UNL     1      -3.480  -2.410  24.571  0.00  0.00    +0.099 A 
ATOM     25  C   UNL     1      -3.808  -2.004  23.933  0.00  0.00    +0.021 A 
ATOM     26  C   UNL     1      -4.078  -1.231  24.030  0.00  0.00    +0.008 A 
ENDBRANCH  19  21
TORSDOF 1
ENDMDL
MODEL 2
REMARK VINA RESULT:     -13.0      1.983      5.037
REMARK  Name = 
REMARK  1 active torsions:
REMARK  status: ('A' for Active; 'I' for Inactive)
REMARK    1  A    between atoms: C_19  and  C_21
REMARK                            x       y       z     vdW  Elec       q    Type
REMARK                         _______ _______ _______ _____ _____    ______ ____
ROOT
ATOM      1 BR   UNL     1      -4.371  -2.149  23.804  0.00  0.00    -0.049 Br
ATOM      2  C   UNL     1      -3.708  -1.833  24.177  0.00  0.00    +0.035 A 
ATOM      3  C   UNL     1      -3.148  -2.332  24.518  0.00  0.00    +0.008 A 
ATOM      4  C   UNL     1      -2.485  -2.015  24.892  0.00  0.00    +0.017 A 
ATOM      5  C   UNL     1      -2.382  -1.197  24.925  0.00  0.00    +0.078 A 
ATOM      6  N   UNL     1      -1.686  -0.997  25.321  0.00  0.00    -0.178 NA
ATOM      7  C   UNL     1      -1.380  -0.246  25.474  0.00  0.00    +0.265 C 
ATOM      8  O   UNL     1      -0.666  -0.229  25.887  0.00  0.00    -0.271 OA
ATOM      9  C   UNL     1      -1.692   0.489  25.269  0.00  0.00    +0.174 C 
ATOM     10  C   UNL     1      -1.210   1.105  25.528  0.00  0.00    +0.123 C 
ATOM     11  N   UNL     1      -1.423   1.888  25.379  0.00  0.00    -0.272 N 
ATOM     12  C   UNL     1      -2.120   2.054  24.970  0.00  0.00    +0.115 C 
ATOM     13  C   UNL     1      -2.603   1.438  24.711  0.00  0.00    +0.116 C 
ATOM     14  N   UNL     1      -2.389   0.655  24.860  0.00  0.00    -0.266 N 
ATOM     15  C   UNL     1      -2.945   0.128  24.555  0.00  0.00    +0.251 C 
ATOM     16  O   UNL     1      -3.590   0.470  24.171  0.00  0.00    -0.270 OA
ATOM     17  C   UNL     1      -2.942  -0.697  24.584  0.00  0.00    +0.069 A 
ATOM     18  C   UNL     1      -3.605  -1.014  24.211  0.00  0.00    +0.013 A 
ATOM     19  C   UNL     1      -0.940   2.504  25.639  0.00  0.00    +0.251 C 
ATOM     20  O   UNL     1      -0.243   2.338  26.048  0.00  0.00    -0.270 OA
ENDROOT
BRANCH  19  21
ATOM     21  C   UNL     1      -1.154   3.287  25.490  0.00  0.00    +0.073 A 
ATOM     22  C   UNL     1      -1.757   3.641  25.927  0.00  0.00    +0.103 A 
ATOM     23  N   UNL     1      -1.970   4.424  25.778  0.00  0.00    -0.242 NA
ATOM     24  C   UNL     1      -1.580   4.852  25.191  0.00  0.00    +0.099 A 
ATOM     25  C   UNL     1      -0.977   4.498  24.753  0.00  0.00    +0.021 A 
ATOM     26  C   UNL     1      -0.764   3.716  24.902  0.00  0.00    +0.008 A 
ENDBRANCH  19  21
TORSDOF 1
ENDMDL
MODEL 3
REMARK VINA RESULT:     -12.5      1.750      4.637
REMARK  Name = 
REMARK  1 active torsions:
REMARK  status: ('A' for Active; 'I' for Inactive)
REMARK    1  A    between atoms: C_19  and  C_21
REMARK                            x       y       z     vdW  Elec       q    Type
REMARK                         _______ _______ _______ _____ _____    ______ ____
ROOT
ATOM      1 BR   UNL     1      -2.194  -2.798  24.468  0.00  0.00    -0.049 Br
ATOM      2  C   UNL     1      -2.729  -2.172  24.498  0.00  0.00    +0.035 A 
ATOM      3  C   UNL     1      -3.538  -2.315  24.421  0.00  0.00    +0.008 A 
ATOM      4  C   UNL     1      -4.073  -1.688  24.451  0.00  0.00    +0.017 A 
ATOM      5  C   UNL     1      -3.799  -0.917  24.558  0.00  0.00    +0.078 A 
ATOM      6  N   UNL     1      -4.422  -0.376  24.572  0.00  0.00    -0.178 NA
ATOM      7  C   UNL     1      -4.389   0.443  24.666  0.00  0.00    +0.265 C 
ATOM      8  O   UNL     1      -5.115   0.834  24.656  0.00  0.00    -0.271 OA
ATOM      9  C   UNL     1      -3.726   0.923  24.770  0.00  0.00    +0.174 C 
ATOM     10  C   UNL     1      -3.937   1.717  24.844  0.00  0.00    +0.123 C 
ATOM     11  N   UNL     1      -3.354   2.291  24.952  0.00  0.00    -0.272 N 
ATOM     12  C   UNL     1      -2.560   2.070  24.987  0.00  0.00    +0.115 C 
ATOM     13  C   UNL     1      -2.349   1.276  24.914  0.00  0.00    +0.116 C 
ATOM     14  N   UNL     1      -2.932   0.702  24.805  0.00  0.00    -0.266 N 
ATOM     15  C   UNL     1      -2.605  -0.052  24.745  0.00  0.00    +0.251 C 
ATOM     16  O   UNL     1      -1.783  -0.092  24.803  0.00  0.00    -0.270 OA
ATOM     17  C   UNL     1      -2.991  -0.774  24.635  0.00  0.00    +0.069 A 
ATOM     18  C   UNL     1      -2.456  -1.400  24.605  0.00  0.00    +0.013 A 
ATOM     19  C   UNL     1      -3.565   3.085  25.025  0.00  0.00    +0.251 C 
ATOM     20  O   UNL     1      -4.359   3.306  24.990  0.00  0.00    -0.270 OA
ENDROOT
BRANCH  19  21
ATOM     21  C   UNL     1      -2.982   3.658  25.133  0.00  0.00    +0.073 A 
ATOM     22  C   UNL     1      -2.593   3.980  24.481  0.00  0.00    +0.103 A 
ATOM     23  N   UNL     1      -2.010   4.553  24.589  0.00  0.00    -0.242 NA
ATOM     24  C   UNL     1      -1.816   4.805  25.350  0.00  0.00    +0.099 A 
ATOM     25  C   UNL     1      -2.205   4.484  26.003  0.00  0.00    +0.021 A 
ATOM     26  C   UNL     1      -2.788   3.910  25.894  0.00  0.00    +0.008 A 
ENDBRANCH  19  21
TORSDOF 1
ENDMDL
MODEL 4
REMARK VINA RESULT:     -11.9      1.307      2.095
REMARK  Name = 
REMARK  1 active torsions:
REMARK  status: ('A' for Active; 'I' for Inactive)
REMARK    1  A    between atoms: C_19  and  C_21
REMARK                            x       y       z     vdW  Elec       q    Type
REMARK                         _______ _______ _______ _____ _____    ______ ____
ROOT
ATOM      1 BR   UNL     1      -2.143   5.053  25.313  0.00  0.00    -0.049 Br
ATOM      2  C   UNL     1      -1.738   4.350  25.162  0.00  0.00    +0.035 A 
ATOM      3  C   UNL     1      -0.927   4.364  25.014  0.00  0.00    +0.008 A 
ATOM      4  C   UNL     1      -0.523   3.661  24.863  0.00  0.00    +0.017 A 
ATOM      5  C   UNL     1      -0.930   2.944  24.860  0.00  0.00    +0.078 A 
ATOM      6  N   UNL     1      -0.425   2.312  24.698  0.00  0.00    -0.178 NA
ATOM      7  C   UNL     1      -0.608   1.509  24.644  0.00  0.00    +0.265 C 
ATOM      8  O   UNL     1       0.025   1.009  24.473  0.00  0.00    -0.271 OA
ATOM      9  C   UNL     1      -1.340   1.140  24.739  0.00  0.00    +0.174 C 
ATOM     10  C   UNL     1      -1.281   0.323  24.639  0.00  0.00    +0.123 C 
ATOM     11  N   UNL     1      -1.952  -0.151  24.711  0.00  0.00    -0.272 N 
ATOM     12  C   UNL     1      -2.682   0.192  24.883  0.00  0.00    +0.115 C 
ATOM     13  C   UNL     1      -2.741   1.009  24.983  0.00  0.00    +0.116 C 
ATOM     14  N   UNL     1      -2.070   1.483  24.911  0.00  0.00    -0.266 N 
ATOM     15  C   UNL     1      -2.249   2.279  25.030  0.00  0.00    +0.251 C 
ATOM     16  O   UNL     1      -3.039   2.447  25.195  0.00  0.00    -0.270 OA
ATOM     17  C   UNL     1      -1.741   2.930  25.008  0.00  0.00    +0.069 A 
ATOM     18  C   UNL     1      -2.145   3.632  25.159  0.00  0.00    +0.013 A 
ATOM     19  C   UNL     1      -1.893  -0.967  24.611  0.00  0.00    +0.251 C 
ATOM     20  O   UNL     1      -1.162  -1.311  24.439  0.00  0.00    -0.270 OA
ENDROOT
BRANCH  19  21
ATOM     21  C   UNL     1      -2.564  -1.442  24.684  0.00  0.00    +0.073 A 
ATOM     22  C   UNL     1      -2.754  -1.780  25.411  0.00  0.00    +0.103 A 
ATOM     23  N   UNL     1      -3.426  -2.254  25.484  0.00  0.00    -0.242 NA
ATOM     24  C   UNL     1      -3.907  -2.389  24.827  0.00  0.00    +0.099 A 
ATOM     25  C   UNL     1      -3.717  -2.051  24.100  0.00  0.00    +0.021 A 
ATOM     26  C   UNL     1      -3.046  -1.577  24.028  0.00  0.00    +0.008 A 
ENDBRANCH  19  21
TORSDOF 1
ENDMDL
MODEL 5
REMARK VINA RESULT:     -11.5      1.529      2.330
REMARK  Name = 
REMARK  1 active torsions:
REMARK  status: ('A' for Active; 'I' for Inactive)
REMARK    1  A    between atoms: C_19  and  C_21
REMARK                            x       y       z     vdW  Elec       q    Type
REMARK                         _______ _______ _______ _____ _____    ______ ____
ROOT
ATOM      1 BR   UNL     1      -5.737   4.174  25.553  0.00  0.00    -0.049 Br
ATOM      2  C   UNL     1      -5.047   3.751  25.395  0.00  0.00    +0.035 A 
ATOM      3  C   UNL     1      -4.330   4.149  25.304  0.00  0.00    +0.008 A 
ATOM      4  C   UNL     1      -3.640   3.726  25.146  0.00  0.00    +0.017 A 
ATOM      5  C   UNL     1      -3.666   2.905  25.079  0.00  0.00    +0.078 A 
ATOM      6  N   UNL     1      -2.920   2.591  24.921  0.00  0.00    -0.178 NA
ATOM      7  C   UNL     1      -2.706   1.802  24.814  0.00  0.00    +0.265 C 
ATOM      8  O   UNL     1      -1.906   1.665  24.662  0.00  0.00    -0.271 OA
ATOM      9  C   UNL     1      -3.185   1.130  24.839  0.00  0.00    +0.174 C 
ATOM     10  C   UNL     1      -2.749   0.444  24.703  0.00  0.00    +0.123 C 
ATOM     11  N   UNL     1      -3.125  -0.291  24.704  0.00  0.00    -0.272 N 
ATOM     12  C   UNL     1      -3.937  -0.338  24.842  0.00  0.00    +0.115 C 
ATOM     13  C   UNL     1      -4.372   0.349  24.979  0.00  0.00    +0.116 C 
ATOM     14  N   UNL     1      -3.996   1.084  24.977  0.00  0.00    -0.266 N 
ATOM     15  C   UNL     1      -4.530   1.695  25.124  0.00  0.00    +0.251 C 
ATOM     16  O   UNL     1      -5.314   1.467  25.242  0.00  0.00    -0.270 OA
ATOM     17  C   UNL     1      -4.383   2.507  25.170  0.00  0.00    +0.069 A 
ATOM     18  C   UNL     1      -5.073   2.929  25.328  0.00  0.00    +0.013 A 
ATOM     19  C   UNL     1      -2.689  -0.978  24.568  0.00  0.00    +0.251 C 
ATOM     20  O   UNL     1      -1.876  -0.930  24.429  0.00  0.00    -0.270 OA
ENDROOT
BRANCH  19  21
ATOM     21  C   UNL     1      -3.065  -1.712  24.569  0.00  0.00    +0.073 A 
ATOM     22  C   UNL     1      -3.043  -2.185  25.244  0.00  0.00    +0.103 A 
ATOM     23  N   UNL     1      -3.419  -2.920  25.246  0.00  0.00    -0.242 NA
ATOM     24  C   UNL     1      -3.817  -3.180  24.572  0.00  0.00    +0.099 A 
ATOM     25  C   UNL     1      -3.838  -2.707  23.897  0.00  0.00    +0.021 A 
ATOM     26  C   UNL     1      -3.462  -1.973  23.895  0.00  0.00    +0.008 A 
ENDBRANCH  19  21
TORSDOF 1
ENDMDL
MODEL 6
REMARK VINA RESULT:     -10.8      2.210      3.467
REMARK  Name = 
REMARK  1 active torsions:
REMARK  status: ('A' for Active; 'I' for Inactive)
REMARK    1  A    between atoms: C_19  and  C_21
REMARK                            x       y       z     vdW  Elec       q    Type
REMARK                         _______ _______ _______ _____ _____    ______ ____
ROOT
ATOM      1 BR   UNL     1      -6.481   2.081  25.182  0.00  0.00    -0.049 Br
ATOM      2  C   UNL     1      -5.704   2.353  25.226  0.00  0.00    +0.035 A 
ATOM      3  C   UNL     1      -5.546   3.110  25.512  0.00  0.00    +0.008 A 
ATOM      4  C   UNL     1      -4.768   3.382  25.555  0.00  0.00    +0.017 A 
ATOM      5  C   UNL     1      -4.148   2.896  25.313  0.00  0.00    +0.078 A 
ATOM      6  N   UNL     1      -3.419   3.271  25.401  0.00  0.00    -0.178 NA
ATOM      7  C   UNL     1      -2.667   2.982  25.226  0.00  0.00    +0.265 C 
ATOM      8  O   UNL     1      -2.040   3.497  25.378  0.00  0.00    -0.271 OA
ATOM      9  C   UNL     1      -2.457   2.245  24.918  0.00  0.00    +0.174 C 
ATOM     10  C   UNL     1      -1.641   2.178  24.825  0.00  0.00    +0.123 C 
ATOM     11  N   UNL     1      -1.315   1.482  24.524  0.00  0.00    -0.272 N 
ATOM     12  C   UNL     1      -1.807   0.854  24.317  0.00  0.00    +0.115 C 
ATOM     13  C   UNL     1      -2.624   0.921  24.410  0.00  0.00    +0.116 C 
ATOM     14  N   UNL     1      -2.949   1.617  24.711  0.00  0.00    -0.266 N 
ATOM     15  C   UNL     1      -3.771   1.569  24.759  0.00  0.00    +0.251 C 
ATOM     16  O   UNL     1      -4.104   0.858  24.506  0.00  0.00    -0.270 OA
ATOM     17  C   UNL     1      -4.305   2.138  25.027  0.00  0.00    +0.069 A 
ATOM     18  C   UNL     1      -5.082   1.867  24.984  0.00  0.00    +0.013 A 
ATOM     19  C   UNL     1      -0.498   1.415  24.431  0.00  0.00    +0.251 C 
ATOM     20  O   UNL     1      -0.006   2.044  24.639  0.00  0.00    -0.270 OA
ENDROOT
BRANCH  19  21
ATOM     21  C   UNL     1      -0.173   0.719  24.130  0.00  0.00    +0.073 A 
ATOM     22  C   UNL     1      -0.167   0.034  24.590  0.00  0.00    +0.103 A 
ATOM     23  N   UNL     1       0.159  -0.662  24.289  0.00  0.00    -0.242 NA
ATOM     24  C   UNL     1       0.478  -0.672  23.528  0.00  0.00    +0.099 A 
ATOM     25  C   UNL     1       0.471   0.013  23.069  0.00  0.00    +0.021 A 
ATOM     26  C   UNL     1       0.146   0.709  23.370  0.00  0.00    +0.008 A 
ENDBRANCH  19  21
TORSDOF 1
ENDMDL
MODEL 7
REMARK VINA RESULT:     -10.2      2.020      2.789
REMARK  Name = 
REMARK  1 active torsions:
REMARK  status: ('A' for Active; 'I' for Inactive)
REMARK    1  A    between atoms: C_19  and  C_21
REMARK                            x       y       z     vdW  Elec       q    Type
REMARK                         _______ _______ _______ _____ _____    ______ ____
ROOT
ATOM      1 BR   UNL     1      -4.822   4.331  25.449  0.00  0.00    -0.049 Br
ATOM      2  C   UNL     1      -4.860   3.520  25.308  0.00  0.00    +0.035 A 
ATOM      3  C   UNL     1      -5.591   3.151  25.214  0.00  0.00    +0.008 A 
ATOM      4  C   UNL     1      -5.629   2.338  25.073  0.00  0.00    +0.017 A 
ATOM      5  C   UNL     1      -4.935   1.896  25.025  0.00  0.00    +0.078 A 
ATOM      6  N   UNL     1      -5.094   1.100  24.881  0.00  0.00    -0.178 NA
ATOM      7  C   UNL     1      -4.562   0.476  24.795  0.00  0.00    +0.265 C 
ATOM      8  O   UNL     1      -4.897  -0.265  24.654  0.00  0.00    -0.271 OA
ATOM      9  C   UNL     1      -3.737   0.493  24.832  0.00  0.00    +0.174 C 
ATOM     10  C   UNL     1      -3.414  -0.256  24.716  0.00  0.00    +0.123 C 
ATOM     11  N   UNL     1      -2.595  -0.359  24.731  0.00  0.00    -0.272 N 
ATOM     12  C   UNL     1      -2.101   0.288  24.863  0.00  0.00    +0.115 C 
ATOM     13  C   UNL     1      -2.425   1.037  24.979  0.00  0.00    +0.116 C 
ATOM     14  N   UNL     1      -3.243   1.140  24.963  0.00  0.00    -0.266 N 
ATOM     15  C   UNL     1      -3.450   1.929  25.091  0.00  0.00    +0.251 C 
ATOM     16  O   UNL     1      -2.821   2.450  25.206  0.00  0.00    -0.270 OA
ATOM     17  C   UNL     1      -4.203   2.265  25.118  0.00  0.00    +0.069 A 
ATOM     18  C   UNL     1      -4.165   3.077  25.259  0.00  0.00    +0.013 A 
ATOM     19  C   UNL     1      -2.272  -1.109  24.615  0.00  0.00    +0.251 C 
ATOM     20  O   UNL     1      -2.767  -1.757  24.483  0.00  0.00    -0.270 OA
ENDROOT
BRANCH  19  21
ATOM     21  C   UNL     1      -1.454  -1.212  24.630  0.00  0.00    +0.073 A 
ATOM     22  C   UNL     1      -1.000  -1.014  23.971  0.00  0.00    +0.103 A 
ATOM     23  N   UNL     1      -0.182  -1.118  23.986  0.00  0.00    -0.242 NA
ATOM     24  C   UNL     1       0.183  -1.419  24.662  0.00  0.00    +0.099 A 
ATOM     25  C   UNL     1      -0.271  -1.617  25.322  0.00  0.00    +0.021 A 
ATOM     26  C   UNL     1      -1.089  -1.514  25.306  0.00  0.00    +0.008 A 
ENDBRANCH  19  21
TORSDOF 1
ENDMDL
MODEL 8
REMARK VINA RESULT:      -9.5     17.470     19.276
REMARK  Name = 
REMARK  1 active torsions:
REMARK  status: ('A' for Active; 'I' for Inactive)
REMARK    1  A    between atoms: C_19  and  C_21
REMARK                            x       y       z     vdW  Elec       q    Type
REMARK                         _______ _______ _______ _____ _____    ______ ____
ROOT
ATOM      1 BR   UNL     1      11.411   9.094  15.660  0.00  0.00    -0.049 Br
ATOM      2  C   UNL     1      11.534   8.777  16.412  0.00  0.00    +0.035 A 
ATOM      3  C   UNL     1      10.897   8.666  16.923  0.00  0.00    +0.008 A 
ATOM      4  C   UNL     1      11.021   8.349  17.674  0.00  0.00    +0.017 A 
ATOM      5  C   UNL     1      11.782   8.143  17.915  0.00  0.00    +0.078 A 
ATOM      6  N   UNL     1      11.784   7.838  18.681  0.00  0.00    -0.178 NA
ATOM      7  C   UNL     1      12.424   7.569  19.126  0.00  0.00    +0.265 C 
ATOM      8  O   UNL     1      12.244   7.294  19.882  0.00  0.00    -0.271 OA
ATOM      9  C   UNL     1      13.221   7.537  18.914  0.00  0.00    +0.174 C 
ATOM     10  C   UNL     1      13.683   7.228  19.523  0.00  0.00    +0.123 C 
ATOM     11  N   UNL     1      14.498   7.150  19.424  0.00  0.00    -0.272 N 
ATOM     12  C   UNL     1      14.851   7.381  18.715  0.00  0.00    +0.115 C 
ATOM     13  C   UNL     1      14.389   7.690  18.106  0.00  0.00    +0.116 C 
ATOM     14  N   UNL     1      13.574   7.768  18.205  0.00  0.00    -0.266 N 
ATOM     15  C   UNL     1      13.218   8.087  17.533  0.00  0.00    +0.251 C 
ATOM     16  O   UNL     1      13.726   8.262  16.908  0.00  0.00    -0.270 OA
ATOM     17  C   UNL     1      12.420   8.254  17.404  0.00  0.00    +0.069 A 
ATOM     18  C   UNL     1      12.296   8.571  16.653  0.00  0.00    +0.013 A 
ATOM     19  C   UNL     1      14.960   6.840  20.033  0.00  0.00    +0.251 C 
ATOM     20  O   UNL     1      14.607   6.609  20.743  0.00  0.00    -0.270 OA
ENDROOT
BRANCH  19  21
ATOM     21  C   UNL     1      15.776   6.762  19.934  0.00  0.00    +0.073 A 
ATOM     22  C   UNL     1      16.287   7.317  20.266  0.00  0.00    +0.103 A 
ATOM     23  N   UNL     1      17.102   7.238  20.167  0.00  0.00    -0.242 NA
ATOM     24  C   UNL     1      17.405   6.604  19.735  0.00  0.00    +0.099 A 
ATOM     25  C   UNL     1      16.894   6.049  19.403  0.00  0.00    +0.021 A 
ATOM     26  C   UNL     1      16.079   6.128  19.502  0.00  0.00    +0.008 A 
ENDBRANCH  19  21
TORSDOF 1
ENDMDL
MODEL 9
REMARK VINA RESULT:      -9.4     16.186     18.403
REMARK  Name = 
REMARK  1 active torsions:
REMARK  status: ('A' for Active; 'I' for Inactive)
REMARK    1  A    between atoms: C_19  and  C_21
REMARK                            x       y       z     vdW  Elec       q    Type
REMARK                         _______ _______ _______ _____ _____    ______ ____
ROOT
ATOM      1 BR   UNL     1      10.395   9.094  22.971  0.00  0.00    -0.049 Br
ATOM      2  C   UNL     1      10.714   8.634  22.366  0.00  0.00    +0.035 A 
ATOM      3  C   UNL     1      10.216   8.258  21.827  0.00  0.00    +0.008 A 
ATOM      4  C   UNL     1      10.537   7.799  21.221  0.00  0.00    +0.017 A 
ATOM      5  C   UNL     1      11.354   7.716  21.154  0.00  0.00    +0.078 A 
ATOM      6  N   UNL     1      11.557   7.236  20.514  0.00  0.00    -0.178 NA
ATOM      7  C   UNL     1      12.309   7.015  20.255  0.00  0.00    +0.265 C 
ATOM      8  O   UNL     1      12.329   6.525  19.592  0.00  0.00    -0.271 OA
ATOM      9  C   UNL     1      13.043   7.218  20.572  0.00  0.00    +0.174 C 
ATOM     10  C   UNL     1      13.661   6.878  20.145  0.00  0.00    +0.123 C 
ATOM     11  N   UNL     1      14.443   7.012  20.372  0.00  0.00    -0.272 N 
ATOM     12  C   UNL     1      14.606   7.487  21.026  0.00  0.00    +0.115 C 
ATOM     13  C   UNL     1      13.988   7.828  21.453  0.00  0.00    +0.116 C 
ATOM     14  N   UNL     1      13.206   7.693  21.227  0.00  0.00    -0.266 N 
ATOM     15  C   UNL     1      12.677   8.082  21.725  0.00  0.00    +0.251 C 
ATOM     16  O   UNL     1      13.016   8.519  22.337  0.00  0.00    -0.270 OA
ATOM     17  C   UNL     1      11.852   8.092  21.693  0.00  0.00    +0.069 A 
ATOM     18  C   UNL     1      11.533   8.551  22.299  0.00  0.00    +0.013 A 
ATOM     19  C   UNL     1      15.060   6.672  19.944  0.00  0.00    +0.251 C 
ATOM     20  O   UNL     1      14.897   6.197  19.289  0.00  0.00    -0.270 OA
ENDROOT
BRANCH  19  21
ATOM     21  C   UNL     1      15.842   6.807  20.171  0.00  0.00    +0.073 A 
ATOM     22  C   UNL     1      16.262   7.440  19.850  0.00  0.00    +0.103 A 
ATOM     23  N   UNL     1      17.043   7.575  20.076  0.00  0.00    -0.242 NA
ATOM     24  C   UNL     1      17.405   7.075  20.624  0.00  0.00    +0.099 A 
ATOM     25  C   UNL     1      16.986   6.442  20.945  0.00  0.00    +0.021 A 
ATOM     26  C   UNL     1      16.204   6.307  20.718  0.00  0.00    +0.008 A 
ENDBRANCH  19  21
TORSDOF 1
ENDMDL
MODEL 10
REMARK VINA RESULT:      -9.4     16.812     18.972
REMARK  Name = 
REMARK  1 active torsions:
REMARK  status: ('A' for Active; 'I' for Inactive)
REMARK    1  A    between atoms: C_19  and  C_21
REMARK                            x       y       z     vdW  Elec       q    Type
REMARK                         _______ _______ _______ _____ _____    ______ ____
ROOT
ATOM      1 BR   UNL     1      17.166   5.717  18.765  0.00  0.00    -0.049 Br
ATOM      2  C   UNL     1      16.880   6.215  19.357  0.00  0.00    +0.035 A 
ATOM      3  C   UNL     1      17.405   6.630  19.837  0.00  0.00    +0.008 A 
ATOM      4  C   UNL     1      17.117   7.129  20.429  0.00  0.00    +0.017 A 
ATOM      5  C   UNL     1      16.304   7.211  20.539  0.00  0.00    +0.078 A 
ATOM      6  N   UNL     1      16.136   7.732  21.156  0.00  0.00    -0.178 NA
ATOM      7  C   UNL     1      15.399   7.967  21.444  0.00  0.00    +0.265 C 
ATOM      8  O   UNL     1      15.414   8.501  22.073  0.00  0.00    -0.271 OA
ATOM      9  C   UNL     1      14.649   7.738  21.187  0.00  0.00    +0.174 C 
ATOM     10  C   UNL     1      14.055   8.103  21.627  0.00  0.00    +0.123 C 
ATOM     11  N   UNL     1      13.262   7.949  21.458  0.00  0.00    -0.272 N 
ATOM     12  C   UNL     1      13.065   7.429  20.849  0.00  0.00    +0.115 C 
ATOM     13  C   UNL     1      13.659   7.064  20.409  0.00  0.00    +0.116 C 
ATOM     14  N   UNL     1      14.451   7.218  20.578  0.00  0.00    -0.266 N 
ATOM     15  C   UNL     1      14.954   6.799  20.076  0.00  0.00    +0.251 C 
ATOM     16  O   UNL     1      14.582   6.319  19.517  0.00  0.00    -0.270 OA
ATOM     17  C   UNL     1      15.779   6.795  20.059  0.00  0.00    +0.069 A 
ATOM     18  C   UNL     1      16.066   6.298  19.468  0.00  0.00    +0.013 A 
ATOM     19  C   UNL     1      12.668   8.314  21.898  0.00  0.00    +0.251 C 
ATOM     20  O   UNL     1      12.866   8.834  22.508  0.00  0.00    -0.270 OA
ENDROOT
BRANCH  19  21
ATOM     21  C   UNL     1      11.875   8.160  21.730  0.00  0.00    +0.073 A 
ATOM     22  C   UNL     1      11.480   7.553  22.124  0.00  0.00    +0.103 A 
ATOM     23  N   UNL     1      10.687   7.398  21.955  0.00  0.00    -0.242 NA
ATOM     24  C   UNL     1      10.290   7.851  21.392  0.00  0.00    +0.099 A 
ATOM     25  C   UNL     1      10.686   8.458  20.997  0.00  0.00    +0.021 A 
ATOM     26  C   UNL     1      11.478   8.613  21.166  0.00  0.00    +0.008 A 
ENDBRANCH  19  21
TORSDOF 1
ENDMDL
