MODEL 1
REMARK VINA RESULT:     -12.4      0.000      0.000
REMARK  Name = 
REMARK  6 active torsions:
REMARK  status: ('A' for Active; 'I' for Inactive)
REMARK    1  A    between atoms: O_2  and  C_3
REMARK    2  A    between atoms: C_8  and  C_9
REMARK    3  A    between atoms: C_9  and  N_10
REMARK    4  A    between atoms: N_10  and  C_11
REMARK    5  A    between atoms: C_17  and  N_20
REMARK    6  A    between atoms: N_23  and  C_26
REMARK                            x       y       z     vdW  Elec       q    Type
REMARK                         _______ _______ _______ _____ _____    ______ ____
ROOT
ATOM     11  C   UNL     1      -3.645   0.721  24.420  0.00  0.00    +0.135 C 
ATOM     12  C   UNL     1      -4.164   1.400  24.784  0.00  0.00    +0.166 C 
ATOM     13  C   UNL     1      -3.799   2.080  24.880  0.00  0.00    +0.176 C 
ATOM     14  O   UNL     1      -3.863   2.766  25.108  0.00  0.00    -0.327 OA
ATOM     15  C   UNL     1      -4.116   1.939  24.934  0.00  0.00    +0.253 C 
ATOM     16  O   UNL     1      -4.824   1.525  25.023  0.00  0.00    -0.328 OA
ATOM     17  C   UNL     1      -3.561   1.239  24.552  0.00  0.00    +0.147 C 
ATOM     18  C   UNL     1      -2.936   1.139  24.332  0.00  0.00    +0.190 C 
ATOM     19  O   UNL     1      -2.148   1.296  24.140  0.00  0.00    -0.220 OA
ENDROOT
BRANCH  17  20
ATOM     20  N   UNL     1      -3.122   1.933  24.630  0.00  0.00    -0.265 NA
ATOM     21  C   UNL     1      -2.691   2.074  25.320  0.00  0.00    +0.094 C 
ATOM     22  C   UNL     1      -2.252   2.768  25.397  0.00  0.00    +0.108 C 
ATOM     23  N   UNL     1      -2.244   3.321  24.785  0.00  0.00    -0.305 N 
ATOM     24  C   UNL     1      -2.674   3.181  24.096  0.00  0.00    +0.108 C 
ATOM     25  C   UNL     1      -3.114   2.487  24.019  0.00  0.00    +0.094 C 
BRANCH  23  26
ATOM     26  C   UNL     1      -1.805   4.016  24.862  0.00  0.00    +0.048 A 
ATOM     27  C   UNL     1      -1.002   4.019  24.670  0.00  0.00    +0.015 A 
ATOM     28  C   UNL     1      -0.563   4.713  24.747  0.00  0.00    +0.001 A 
ATOM     29  C   UNL     1      -0.926   5.404  25.015  0.00  0.00    +0.000 A 
ATOM     30  C   UNL     1      -1.728   5.400  25.207  0.00  0.00    +0.001 A 
ATOM     31  C   UNL     1      -2.167   4.707  25.131  0.00  0.00    +0.015 A 
ENDBRANCH  23  26
ENDBRANCH  17  20
BRANCH  11  10
ATOM     10  N   UNL     1      -3.834  -0.063  24.239  0.00  0.00    -0.209 NA
BRANCH  10   9
ATOM      9  C   UNL     1      -3.367  -0.677  24.532  0.00  0.00    +0.118 C 
BRANCH   9   8
ATOM      3  C   UNL     1      -3.038  -2.067  24.561  0.00  0.00    +0.136 A 
ATOM      4  C   UNL     1      -3.226  -2.850  24.380  0.00  0.00    +0.037 A 
ATOM      5  C   UNL     1      -3.931  -3.024  23.989  0.00  0.00    +0.003 A 
ATOM      6  C   UNL     1      -4.448  -2.417  23.779  0.00  0.00    -0.000 A 
ATOM      7  C   UNL     1      -4.260  -1.635  23.960  0.00  0.00    +0.000 A 
ATOM      8  C   UNL     1      -3.555  -1.459  24.351  0.00  0.00    +0.029 A 
BRANCH   3   2
ATOM      1  C   UNL     1      -1.690  -2.405  24.893  0.00  0.00    +0.252 C 
ATOM      2  O   UNL     1      -2.334  -1.892  24.952  0.00  0.00    -0.472 OA
ENDBRANCH   3   2
ENDBRANCH   9   8
ENDBRANCH  10   9
ENDBRANCH  11  10
TORSDOF 6
ENDMDL
MODEL 2
REMARK VINA RESULT:     -12.2      0.855      5.208
REMARK  Name = 
REMARK  6 active torsions:
REMARK  status: ('A' for Active; 'I' for Inactive)
REMARK    1  A    between atoms: O_2  and  C_3
REMARK    2  A    between atoms: C_8  and  C_9
REMARK    3  A    between atoms: C_9  and  N_10
REMARK    4  A    between atoms: N_10  and  C_11
REMARK    5  A    between atoms: C_17  and  N_20
REMARK    6  A    between atoms: N_23  and  C_26
REMARK                            x       y       z     vdW  Elec       q    Type
REMARK                         _______ _______ _______ _____ _____    ______ ____
ROOT
ATOM     11  C   UNL     1      -3.330   2.227  24.905  0.00  0.00    +0.135 C 
ATOM     12  C   UNL     1      -4.200   1.976  24.701  0.00  0.00    +0.166 C 
ATOM     13  C   UNL     1      -4.311   1.212  24.604  0.00  0.00    +0.176 C 
ATOM     14  O   UNL     1      -4.794   0.692  24.453  0.00  0.00    -0.327 OA
ATOM     15  C   UNL     1      -4.496   1.510  24.594  0.00  0.00    +0.253 C 
ATOM     16  O   UNL     1      -4.846   2.257  24.594  0.00  0.00    -0.328 OA
ATOM     17  C   UNL     1      -3.581   1.757  24.808  0.00  0.00    +0.147 C 
ATOM     18  C   UNL     1      -2.980   1.476  24.905  0.00  0.00    +0.190 C 
ATOM     19  O   UNL     1      -2.400   0.893  24.969  0.00  0.00    -0.220 OA
ENDROOT
BRANCH  17  20
ATOM     20  N   UNL     1      -3.636   0.939  24.717  0.00  0.00    -0.265 NA
ATOM     21  C   UNL     1      -3.476   0.593  23.985  0.00  0.00    +0.094 C 
ATOM     22  C   UNL     1      -3.531  -0.225  23.894  0.00  0.00    +0.108 C 
ATOM     23  N   UNL     1      -3.746  -0.697  24.536  0.00  0.00    -0.305 N 
ATOM     24  C   UNL     1      -3.906  -0.352  25.267  0.00  0.00    +0.108 C 
ATOM     25  C   UNL     1      -3.851   0.466  25.358  0.00  0.00    +0.094 C 
BRANCH  23  26
ATOM     26  C   UNL     1      -3.802  -1.515  24.446  0.00  0.00    +0.048 A 
ATOM     27  C   UNL     1      -3.405  -2.015  24.969  0.00  0.00    +0.015 A 
ATOM     28  C   UNL     1      -3.460  -2.834  24.880  0.00  0.00    +0.001 A 
ATOM     29  C   UNL     1      -3.911  -3.152  24.268  0.00  0.00    +0.000 A 
ATOM     30  C   UNL     1      -4.308  -2.652  23.744  0.00  0.00    +0.001 A 
ATOM     31  C   UNL     1      -4.253  -1.835  23.834  0.00  0.00    +0.015 A 
ENDBRANCH  23  26
ENDBRANCH  17  20
BRANCH  11  10
ATOM     10  N   UNL     1      -3.003   2.973  25.045  0.00  0.00    -0.209 NA
BRANCH  10   9
ATOM      9  C   UNL     1      -2.197   3.100  24.921  0.00  0.00    +0.118 C 
BRANCH   9   8
ATOM      3  C   UNL     1      -1.116   4.014  24.731  0.00  0.00    +0.136 A 
ATOM      4  C   UNL     1      -0.803   4.774  24.798  0.00  0.00    +0.037 A 
ATOM      5  C   UNL     1      -1.259   5.380  25.123  0.00  0.00    +0.003 A 
ATOM      6  C   UNL     1      -2.028   5.226  25.380  0.00  0.00    -0.000 A 
ATOM      7  C   UNL     1      -2.340   4.466  25.313  0.00  0.00    +0.000 A 
ATOM      8  C   UNL     1      -1.885   3.860  24.988  0.00  0.00    +0.029 A 
BRANCH   3   2
ATOM      1  C   UNL     1       0.126   3.548  24.200  0.00  0.00    +0.252 C 
ATOM      2  O   UNL     1      -0.661   3.408  24.406  0.00  0.00    -0.472 OA
ENDBRANCH   3   2
ENDBRANCH   9   8
ENDBRANCH  10   9
ENDBRANCH  11  10
TORSDOF 6
ENDMDL
MODEL 3
REMARK VINA RESULT:     -11.9      1.301      5.514
REMARK  Name = 
REMARK  6 active torsions:
REMARK  status: ('A' for Active; 'I' for Inactive)
REMARK    1  A    between atoms: O_2  and  C_3
REMARK    2  A    between atoms: C_8  and  C_9
REMARK    3  A    between atoms: C_9  and  N_10
REMARK    4  A    between atoms: N_10  and  C_11
REMARK    5  A    between atoms: C_17  and  N_20
REMARK    6  A    between atoms: N_23  and  C_26
REMARK                            x       y       z     vdW  Elec       q    Type
REMARK                         _______ _______ _______ _____ _____    ______ ____
ROOT
ATOM     11  C   UNL     1      -1.394   1.613  25.041  0.00  0.00    +0.135 C 
ATOM     12  C   UNL     1      -1.055   0.899  25.529  0.00  0.00    +0.166 C 
ATOM     13  C   UNL     1      -1.418   0.220  25.419  0.00  0.00    +0.176 C 
ATOM     14  O   UNL     1      -1.443  -0.482  25.600  0.00  0.00    -0.327 OA
ATOM     15  C   UNL     1      -1.152   0.351  25.605  0.00  0.00    +0.253 C 
ATOM     16  O   UNL     1      -0.544   0.745  26.001  0.00  0.00    -0.328 OA
ATOM     17  C   UNL     1      -1.517   1.088  25.089  0.00  0.00    +0.147 C 
ATOM     18  C   UNL     1      -2.003   1.216  24.645  0.00  0.00    +0.190 C 
ATOM     19  O   UNL     1      -2.646   1.089  24.143  0.00  0.00    -0.220 OA
ENDROOT
BRANCH  17  20
ATOM     20  N   UNL     1      -1.941   0.398  24.931  0.00  0.00    -0.265 NA
ATOM     21  C   UNL     1      -2.617   0.220  25.369  0.00  0.00    +0.094 C 
ATOM     22  C   UNL     1      -3.041  -0.470  25.211  0.00  0.00    +0.108 C 
ATOM     23  N   UNL     1      -2.789  -0.981  24.615  0.00  0.00    -0.305 N 
ATOM     24  C   UNL     1      -2.113  -0.804  24.177  0.00  0.00    +0.108 C 
ATOM     25  C   UNL     1      -1.689  -0.114  24.335  0.00  0.00    +0.094 C 
BRANCH  23  26
ATOM     26  C   UNL     1      -3.213  -1.671  24.456  0.00  0.00    +0.048 A 
ATOM     27  C   UNL     1      -2.963  -2.391  24.774  0.00  0.00    +0.015 A 
ATOM     28  C   UNL     1      -3.385  -3.081  24.616  0.00  0.00    +0.001 A 
ATOM     29  C   UNL     1      -4.059  -3.052  24.140  0.00  0.00    +0.000 A 
ATOM     30  C   UNL     1      -4.309  -2.333  23.822  0.00  0.00    +0.001 A 
ATOM     31  C   UNL     1      -3.886  -1.643  23.980  0.00  0.00    +0.015 A 
ENDBRANCH  23  26
ENDBRANCH  17  20
BRANCH  11  10
ATOM     10  N   UNL     1      -1.159   2.405  25.011  0.00  0.00    -0.209 NA
BRANCH  10   9
ATOM      9  C   UNL     1      -1.593   2.979  25.416  0.00  0.00    +0.118 C 
BRANCH   9   8
ATOM      3  C   UNL     1      -2.008   4.343  25.504  0.00  0.00    +0.136 A 
ATOM      4  C   UNL     1      -1.869   5.143  25.359  0.00  0.00    +0.037 A 
ATOM      5  C   UNL     1      -1.174   5.378  24.981  0.00  0.00    +0.003 A 
ATOM      6  C   UNL     1      -0.619   4.814  24.748  0.00  0.00    -0.000 A 
ATOM      7  C   UNL     1      -0.759   4.014  24.893  0.00  0.00    +0.000 A 
ATOM      8  C   UNL     1      -1.453   3.778  25.271  0.00  0.00    +0.029 A 
BRANCH   3   2
ATOM      1  C   UNL     1      -3.248   4.672  26.133  0.00  0.00    +0.252 C 
ATOM      2  O   UNL     1      -2.702   4.107  25.882  0.00  0.00    -0.472 OA
ENDBRANCH   3   2
ENDBRANCH   9   8
ENDBRANCH  10   9
ENDBRANCH  11  10
TORSDOF 6
ENDMDL
MODEL 4
REMARK VINA RESULT:     -11.2      1.466      2.232
REMARK  Name = 
REMARK  6 active torsions:
REMARK  status: ('A' for Active; 'I' for Inactive)
REMARK    1  A    between atoms: O_2  and  C_3
REMARK    2  A    between atoms: C_8  and  C_9
REMARK    3  A    between atoms: C_9  and  N_10
REMARK    4  A    between atoms: N_10  and  C_11
REMARK    5  A    between atoms: C_17  and  N_20
REMARK    6  A    between atoms: N_23  and  C_26
REMARK                            x       y       z     vdW  Elec       q    Type
REMARK                         _______ _______ _______ _____ _____    ______ ____
ROOT
ATOM     11  C   UNL     1      -1.392   0.099  24.721  0.00  0.00    +0.135 C 
ATOM     12  C   UNL     1      -0.597   0.466  24.413  0.00  0.00    +0.166 C 
ATOM     13  C   UNL     1      -0.552   1.242  24.453  0.00  0.00    +0.176 C 
ATOM     14  O   UNL     1      -0.141   1.825  24.323  0.00  0.00    -0.327 OA
ATOM     15  C   UNL     1      -0.356   0.970  24.350  0.00  0.00    +0.253 C 
ATOM     16  O   UNL     1       0.030   0.273  24.134  0.00  0.00    -0.328 OA
ATOM     17  C   UNL     1      -1.193   0.600  24.675  0.00  0.00    +0.147 C 
ATOM     18  C   UNL     1      -1.778   0.800  24.937  0.00  0.00    +0.190 C 
ATOM     19  O   UNL     1      -2.367   1.302  25.223  0.00  0.00    -0.220 OA
ENDROOT
BRANCH  17  20
ATOM     20  N   UNL     1      -1.205   1.423  24.742  0.00  0.00    -0.265 NA
ATOM     21  C   UNL     1      -0.952   1.784  25.440  0.00  0.00    +0.094 C 
ATOM     22  C   UNL     1      -0.965   2.606  25.507  0.00  0.00    +0.108 C 
ATOM     23  N   UNL     1      -1.229   3.067  24.876  0.00  0.00    -0.305 N 
ATOM     24  C   UNL     1      -1.482   2.707  24.179  0.00  0.00    +0.108 C 
ATOM     25  C   UNL     1      -1.470   1.884  24.112  0.00  0.00    +0.094 C 
BRANCH  23  26
ATOM     26  C   UNL     1      -1.242   3.889  24.943  0.00  0.00    +0.048 A 
ATOM     27  C   UNL     1      -1.889   4.265  25.290  0.00  0.00    +0.015 A 
ATOM     28  C   UNL     1      -1.903   5.087  25.357  0.00  0.00    +0.001 A 
ATOM     29  C   UNL     1      -1.268   5.534  25.076  0.00  0.00    +0.000 A 
ATOM     30  C   UNL     1      -0.621   5.158  24.729  0.00  0.00    +0.001 A 
ATOM     31  C   UNL     1      -0.608   4.337  24.662  0.00  0.00    +0.015 A 
ENDBRANCH  23  26
ENDBRANCH  17  20
BRANCH  11  10
ATOM     10  N   UNL     1      -1.640  -0.688  24.766  0.00  0.00    -0.209 NA
BRANCH  10   9
ATOM      9  C   UNL     1      -2.415  -0.888  24.566  0.00  0.00    +0.118 C 
BRANCH   9   8
ATOM      3  C   UNL     1      -3.415  -1.882  24.337  0.00  0.00    +0.136 A 
ATOM      4  C   UNL     1      -3.653  -2.672  24.345  0.00  0.00    +0.037 A 
ATOM      5  C   UNL     1      -3.126  -3.258  24.591  0.00  0.00    +0.003 A 
ATOM      6  C   UNL     1      -2.363  -3.053  24.829  0.00  0.00    -0.000 A 
ATOM      7  C   UNL     1      -2.126  -2.264  24.821  0.00  0.00    +0.000 A 
ATOM      8  C   UNL     1      -2.652  -1.678  24.575  0.00  0.00    +0.029 A 
BRANCH   3   2
ATOM      1  C   UNL     1      -4.680  -1.505  23.790  0.00  0.00    +0.252 C 
ATOM      2  O   UNL     1      -3.941  -1.296  24.091  0.00  0.00    -0.472 OA
ENDBRANCH   3   2
ENDBRANCH   9   8
ENDBRANCH  10   9
ENDBRANCH  11  10
TORSDOF 6
ENDMDL
