MODEL 1
REMARK VINA RESULT:     -11.5      0.000      0.000
REMARK  Name = 
REMARK  3 active torsions:
REMARK  status: ('A' for Active; 'I' for Inactive)
REMARK    1  A    between atoms: C_5  and  C_7
REMARK    2  A    between atoms: N_14  and  C_15
REMARK    3  A    between atoms: C_15  and  C_16
REMARK                            x       y       z     vdW  Elec       q    Type
REMARK                         _______ _______ _______ _____ _____    ______ ____
ROOT
ATOM      7  C   UNL     1      -3.289   3.215  25.178  0.00  0.00    +0.100 C 
ATOM      8  C   UNL     1      -4.010   3.613  25.142  0.00  0.00    +0.033 C 
ATOM      9  C   UNL     1      -4.606   3.052  25.042  0.00  0.00    +0.096 C 
ATOM     10  N   UNL     1      -4.253   2.306  25.016  0.00  0.00    -0.262 N 
ATOM     11  C   UNL     1      -3.439   2.408  25.100  0.00  0.00    +0.104 C 
ATOM     12  C   UNL     1      -4.645   1.587  24.922  0.00  0.00    +0.324 C 
ATOM     13  O   UNL     1      -5.466   1.571  24.844  0.00  0.00    -0.251 OA
ATOM     14  N   UNL     1      -4.216   0.883  24.906  0.00  0.00    -0.184 NA
ENDROOT
BRANCH   7   5
ATOM      1  C   UNL     1      -1.057   5.062  24.976  0.00  0.00    +0.097 C 
ATOM      2  C   UNL     1      -1.521   4.412  25.182  0.00  0.00    +0.227 A 
ATOM      3  N   UNL     1      -1.291   3.785  25.666  0.00  0.00    -0.112 NA
ATOM      4  N   UNL     1      -1.924   3.261  25.723  0.00  0.00    -0.112 NA
ATOM      5  C   UNL     1      -2.547   3.564  25.274  0.00  0.00    +0.227 A 
ATOM      6  O   UNL     1      -2.298   4.275  24.940  0.00  0.00    -0.423 OA
ENDBRANCH   7   5
BRANCH  14  15
ATOM     15  C   UNL     1      -4.608   0.162  24.813  0.00  0.00    +0.143 C 
BRANCH  15  16
ATOM     16  C   UNL     1      -4.181  -0.543  24.817  0.00  0.00    -0.001 A 
ATOM     17  C   UNL     1      -4.133  -1.001  24.132  0.00  0.00    -0.003 A 
ATOM     18  C   UNL     1      -3.706  -1.707  24.136  0.00  0.00    -0.000 A 
ATOM     19  C   UNL     1      -3.327  -1.955  24.826  0.00  0.00    -0.000 A 
ATOM     20  C   UNL     1      -3.375  -1.498  25.510  0.00  0.00    -0.000 A 
ATOM     21  C   UNL     1      -3.802  -0.792  25.506  0.00  0.00    -0.003 A 
ENDBRANCH  15  16
ENDBRANCH  14  15
TORSDOF 3
ENDMDL
MODEL 2
REMARK VINA RESULT:     -10.9      1.140      4.629
REMARK  Name = 
REMARK  3 active torsions:
REMARK  status: ('A' for Active; 'I' for Inactive)
REMARK    1  A    between atoms: C_5  and  C_7
REMARK    2  A    between atoms: N_14  and  C_15
REMARK    3  A    between atoms: C_15  and  C_16
REMARK                            x       y       z     vdW  Elec       q    Type
REMARK                         _______ _______ _______ _____ _____    ______ ____
ROOT
ATOM      7  C   UNL     1      -4.472   0.899  24.886  0.00  0.00    +0.100 C 
ATOM      8  C   UNL     1      -5.249   1.155  24.985  0.00  0.00    +0.033 C 
ATOM      9  C   UNL     1      -5.230   1.958  25.173  0.00  0.00    +0.096 C 
ATOM     10  N   UNL     1      -4.441   2.198  25.188  0.00  0.00    -0.262 N 
ATOM     11  C   UNL     1      -3.972   1.543  25.011  0.00  0.00    +0.104 C 
ATOM     12  C   UNL     1      -4.169   2.959  25.353  0.00  0.00    +0.324 C 
ATOM     13  O   UNL     1      -4.706   3.562  25.521  0.00  0.00    -0.251 OA
ATOM     14  N   UNL     1      -3.359   3.117  25.348  0.00  0.00    -0.184 NA
ENDROOT
BRANCH   7   5
ATOM      1  C   UNL     1      -3.580  -1.856  25.115  0.00  0.00    +0.097 C 
ATOM      2  C   UNL     1      -3.825  -1.134  24.799  0.00  0.00    +0.227 A 
ATOM      3  N   UNL     1      -3.916  -0.961  23.998  0.00  0.00    -0.112 NA
ATOM      4  N   UNL     1      -4.169  -0.179  23.933  0.00  0.00    -0.112 NA
ATOM      5  C   UNL     1      -4.235   0.131  24.694  0.00  0.00    +0.227 A 
ATOM      6  O   UNL     1      -4.022  -0.458  25.230  0.00  0.00    -0.423 OA
ENDBRANCH   7   5
BRANCH  14  15
ATOM     15  C   UNL     1      -3.087   3.878  25.513  0.00  0.00    +0.143 C 
BRANCH  15  16
ATOM     16  C   UNL     1      -2.294   4.068  25.389  0.00  0.00    -0.001 A 
ATOM     17  C   UNL     1      -2.087   4.818  25.111  0.00  0.00    -0.003 A 
ATOM     18  C   UNL     1      -1.294   5.008  24.987  0.00  0.00    -0.000 A 
ATOM     19  C   UNL     1      -0.707   4.448  25.140  0.00  0.00    -0.000 A 
ATOM     20  C   UNL     1      -0.913   3.700  25.417  0.00  0.00    -0.000 A 
ATOM     21  C   UNL     1      -1.706   3.510  25.541  0.00  0.00    -0.003 A 
ENDBRANCH  15  16
ENDBRANCH  14  15
TORSDOF 3
ENDMDL
MODEL 3
REMARK VINA RESULT:     -10.3      2.037      5.231
REMARK  Name = 
REMARK  3 active torsions:
REMARK  status: ('A' for Active; 'I' for Inactive)
REMARK    1  A    between atoms: C_5  and  C_7
REMARK    2  A    between atoms: N_14  and  C_15
REMARK    3  A    between atoms: C_15  and  C_16
REMARK                            x       y       z     vdW  Elec       q    Type
REMARK                         _______ _______ _______ _____ _____    ______ ____
ROOT
ATOM      7  C   UNL     1      -1.932  -0.207  25.020  0.00  0.00    +0.100 C 
ATOM      8  C   UNL     1      -1.192  -0.570  24.977  0.00  0.00    +0.033 C 
ATOM      9  C   UNL     1      -0.617   0.015  25.059  0.00  0.00    +0.096 C 
ATOM     10  N   UNL     1      -1.001   0.740  25.152  0.00  0.00    -0.262 N 
ATOM     11  C   UNL     1      -1.814   0.602  25.128  0.00  0.00    +0.104 C 
ATOM     12  C   UNL     1      -0.637   1.473  25.252  0.00  0.00    +0.324 C 
ATOM     13  O   UNL     1       0.187   1.526  25.265  0.00  0.00    -0.251 OA
ATOM     14  N   UNL     1      -1.095   2.153  25.339  0.00  0.00    -0.184 NA
ENDROOT
BRANCH   7   5
ATOM      1  C   UNL     1      -4.245  -1.604  23.956  0.00  0.00    +0.097 C 
ATOM      2  C   UNL     1      -3.726  -1.229  24.476  0.00  0.00    +0.227 A 
ATOM      3  N   UNL     1      -3.846  -1.115  25.284  0.00  0.00    -0.112 NA
ATOM      4  N   UNL     1      -3.189  -0.719  25.586  0.00  0.00    -0.112 NA
ATOM      5  C   UNL     1      -2.662  -0.588  24.964  0.00  0.00    +0.227 A 
ATOM      6  O   UNL     1      -2.993  -0.903  24.278  0.00  0.00    -0.423 OA
ENDBRANCH   7   5
BRANCH  14  15
ATOM     15  C   UNL     1      -0.730   2.886  25.439  0.00  0.00    +0.143 C 
BRANCH  15  16
ATOM     16  C   UNL     1      -1.180   3.577  25.417  0.00  0.00    -0.001 A 
ATOM     17  C   UNL     1      -0.891   4.246  25.028  0.00  0.00    -0.003 A 
ATOM     18  C   UNL     1      -1.341   4.937  25.006  0.00  0.00    -0.000 A 
ATOM     19  C   UNL     1      -2.080   4.959  25.371  0.00  0.00    -0.000 A 
ATOM     20  C   UNL     1      -2.369   4.292  25.760  0.00  0.00    -0.000 A 
ATOM     21  C   UNL     1      -1.919   3.601  25.782  0.00  0.00    -0.003 A 
ENDBRANCH  15  16
ENDBRANCH  14  15
TORSDOF 3
ENDMDL
MODEL 4
REMARK VINA RESULT:     -10.3      1.672      2.484
REMARK  Name = 
REMARK  3 active torsions:
REMARK  status: ('A' for Active; 'I' for Inactive)
REMARK    1  A    between atoms: C_5  and  C_7
REMARK    2  A    between atoms: N_14  and  C_15
REMARK    3  A    between atoms: C_15  and  C_16
REMARK                            x       y       z     vdW  Elec       q    Type
REMARK                         _______ _______ _______ _____ _____    ______ ____
ROOT
ATOM      7  C   UNL     1      -2.647   2.311  24.990  0.00  0.00    +0.100 C 
ATOM      8  C   UNL     1      -1.853   2.459  25.152  0.00  0.00    +0.033 C 
ATOM      9  C   UNL     1      -1.450   1.739  25.135  0.00  0.00    +0.096 C 
ATOM     10  N   UNL     1      -1.997   1.146  24.961  0.00  0.00    -0.262 N 
ATOM     11  C   UNL     1      -2.736   1.499  24.871  0.00  0.00    +0.104 C 
ATOM     12  C   UNL     1      -1.832   0.341  24.890  0.00  0.00    +0.324 C 
ATOM     13  O   UNL     1      -1.061   0.066  24.995  0.00  0.00    -0.251 OA
ATOM     14  N   UNL     1      -2.438  -0.190  24.713  0.00  0.00    -0.184 NA
ENDROOT
BRANCH   7   5
ATOM      1  C   UNL     1      -5.115   3.757  25.494  0.00  0.00    +0.097 C 
ATOM      2  C   UNL     1      -4.382   3.540  25.183  0.00  0.00    +0.227 A 
ATOM      3  N   UNL     1      -3.962   3.948  24.602  0.00  0.00    -0.112 NA
ATOM      4  N   UNL     1      -3.261   3.537  24.459  0.00  0.00    -0.112 NA
ATOM      5  C   UNL     1      -3.248   2.875  24.952  0.00  0.00    +0.227 A 
ATOM      6  O   UNL     1      -3.941   2.877  25.399  0.00  0.00    -0.423 OA
ENDBRANCH   7   5
BRANCH  14  15
ATOM     15  C   UNL     1      -2.274  -0.996  24.641  0.00  0.00    +0.143 C 
BRANCH  15  16
ATOM     16  C   UNL     1      -2.886  -1.531  24.506  0.00  0.00    -0.001 A 
ATOM     17  C   UNL     1      -2.866  -2.279  24.855  0.00  0.00    -0.003 A 
ATOM     18  C   UNL     1      -3.478  -2.814  24.720  0.00  0.00    -0.000 A 
ATOM     19  C   UNL     1      -4.111  -2.603  24.234  0.00  0.00    -0.000 A 
ATOM     20  C   UNL     1      -4.131  -1.856  23.885  0.00  0.00    -0.000 A 
ATOM     21  C   UNL     1      -3.519  -1.320  24.020  0.00  0.00    -0.003 A 
ENDBRANCH  15  16
ENDBRANCH  14  15
TORSDOF 3
ENDMDL
MODEL 5
REMARK VINA RESULT:     -10.2      1.873      2.016
REMARK  Name = 
REMARK  3 active torsions:
REMARK  status: ('A' for Active; 'I' for Inactive)
REMARK    1  A    between atoms: C_5  and  C_7
REMARK    2  A    between atoms: N_14  and  C_15
REMARK    3  A    between atoms: C_15  and  C_16
REMARK                            x       y       z     vdW  Elec       q    Type
REMARK                         _______ _______ _______ _____ _____    ______ ____
ROOT
ATOM      7  C   UNL     1      -1.580   2.010  24.793  0.00  0.00    +0.100 C 
ATOM      8  C   UNL     1      -2.067   2.661  24.931  0.00  0.00    +0.033 C 
ATOM      9  C   UNL     1      -2.843   2.390  24.996  0.00  0.00    +0.096 C 
ATOM     10  N   UNL     1      -2.836   1.571  24.898  0.00  0.00    -0.262 N 
ATOM     11  C   UNL     1      -2.056   1.336  24.772  0.00  0.00    +0.104 C 
ATOM     12  C   UNL     1      -3.494   1.074  24.921  0.00  0.00    +0.324 C 
ATOM     13  O   UNL     1      -4.245   1.390  25.052  0.00  0.00    -0.251 OA
ATOM     14  N   UNL     1      -3.401   0.262  24.813  0.00  0.00    -0.184 NA
ENDROOT
BRANCH   7   5
ATOM      1  C   UNL     1       1.103   1.411  23.857  0.00  0.00    +0.097 C 
ATOM      2  C   UNL     1       0.472   1.754  24.263  0.00  0.00    +0.227 A 
ATOM      3  N   UNL     1       0.525   2.364  24.815  0.00  0.00    -0.112 NA
ATOM      4  N   UNL     1      -0.237   2.535  25.080  0.00  0.00    -0.112 NA
ATOM      5  C   UNL     1      -0.761   2.029  24.692  0.00  0.00    +0.227 A 
ATOM      6  O   UNL     1      -0.323   1.547  24.187  0.00  0.00    -0.423 OA
ENDBRANCH   7   5
BRANCH  14  15
ATOM     15  C   UNL     1      -4.059  -0.236  24.836  0.00  0.00    +0.143 C 
BRANCH  15  16
ATOM     16  C   UNL     1      -3.971  -1.043  24.692  0.00  0.00    -0.001 A 
ATOM     17  C   UNL     1      -4.199  -1.360  23.965  0.00  0.00    -0.003 A 
ATOM     18  C   UNL     1      -4.111  -2.167  23.821  0.00  0.00    -0.000 A 
ATOM     19  C   UNL     1      -3.796  -2.658  24.404  0.00  0.00    -0.000 A 
ATOM     20  C   UNL     1      -3.568  -2.342  25.131  0.00  0.00    -0.000 A 
ATOM     21  C   UNL     1      -3.656  -1.535  25.275  0.00  0.00    -0.003 A 
ENDBRANCH  15  16
ENDBRANCH  14  15
TORSDOF 3
ENDMDL
MODEL 6
REMARK VINA RESULT:     -10.0      1.767      4.511
REMARK  Name = 
REMARK  3 active torsions:
REMARK  status: ('A' for Active; 'I' for Inactive)
REMARK    1  A    between atoms: C_5  and  C_7
REMARK    2  A    between atoms: N_14  and  C_15
REMARK    3  A    between atoms: C_15  and  C_16
REMARK                            x       y       z     vdW  Elec       q    Type
REMARK                         _______ _______ _______ _____ _____    ______ ____
ROOT
ATOM      7  C   UNL     1      -3.249  -0.581  24.699  0.00  0.00    +0.100 C 
ATOM      8  C   UNL     1      -4.033  -0.795  24.563  0.00  0.00    +0.033 C 
ATOM      9  C   UNL     1      -4.490  -0.109  24.571  0.00  0.00    +0.096 C 
ATOM     10  N   UNL     1      -3.987   0.530  24.712  0.00  0.00    -0.262 N 
ATOM     11  C   UNL     1      -3.220   0.238  24.791  0.00  0.00    +0.104 C 
ATOM     12  C   UNL     1      -4.212   1.322  24.764  0.00  0.00    +0.324 C 
ATOM     13  O   UNL     1      -5.004   1.533  24.673  0.00  0.00    -0.251 OA
ATOM     14  N   UNL     1      -3.644   1.903  24.908  0.00  0.00    -0.184 NA
ENDROOT
BRANCH   7   5
ATOM      1  C   UNL     1      -0.600  -1.660  25.201  0.00  0.00    +0.097 C 
ATOM      2  C   UNL     1      -1.388  -1.593  24.967  0.00  0.00    +0.227 A 
ATOM      3  N   UNL     1      -1.843  -2.186  24.619  0.00  0.00    -0.112 NA
ATOM      4  N   UNL     1      -2.595  -1.880  24.477  0.00  0.00    -0.112 NA
ATOM      5  C   UNL     1      -2.605  -1.097  24.736  0.00  0.00    +0.227 A 
ATOM      6  O   UNL     1      -1.859  -0.919  25.039  0.00  0.00    -0.423 OA
ENDBRANCH   7   5
BRANCH  14  15
ATOM     15  C   UNL     1      -3.869   2.695  24.961  0.00  0.00    +0.143 C 
BRANCH  15  16
ATOM     16  C   UNL     1      -3.318   3.266  25.186  0.00  0.00    -0.001 A 
ATOM     17  C   UNL     1      -2.690   3.454  24.685  0.00  0.00    -0.003 A 
ATOM     18  C   UNL     1      -2.139   4.025  24.909  0.00  0.00    -0.000 A 
ATOM     19  C   UNL     1      -2.216   4.409  25.636  0.00  0.00    -0.000 A 
ATOM     20  C   UNL     1      -2.843   4.222  26.137  0.00  0.00    -0.000 A 
ATOM     21  C   UNL     1      -3.394   3.651  25.912  0.00  0.00    -0.003 A 
ENDBRANCH  15  16
ENDBRANCH  14  15
TORSDOF 3
ENDMDL
MODEL 7
REMARK VINA RESULT:      -9.9      2.429      4.081
REMARK  Name = 
REMARK  3 active torsions:
REMARK  status: ('A' for Active; 'I' for Inactive)
REMARK    1  A    between atoms: C_5  and  C_7
REMARK    2  A    between atoms: N_14  and  C_15
REMARK    3  A    between atoms: C_15  and  C_16
REMARK                            x       y       z     vdW  Elec       q    Type
REMARK                         _______ _______ _______ _____ _____    ______ ____
ROOT
ATOM      7  C   UNL     1      -0.854   1.167  24.587  0.00  0.00    +0.100 C 
ATOM      8  C   UNL     1      -0.320   1.794  24.535  0.00  0.00    +0.033 C 
ATOM      9  C   UNL     1      -0.748   2.497  24.576  0.00  0.00    +0.096 C 
ATOM     10  N   UNL     1      -1.548   2.305  24.654  0.00  0.00    -0.262 N 
ATOM     11  C   UNL     1      -1.612   1.484  24.660  0.00  0.00    +0.104 C 
ATOM     12  C   UNL     1      -2.171   2.841  24.715  0.00  0.00    +0.324 C 
ATOM     13  O   UNL     1      -2.021   3.653  24.700  0.00  0.00    -0.251 OA
ATOM     14  N   UNL     1      -2.945   2.566  24.790  0.00  0.00    -0.184 NA
ENDROOT
BRANCH   7   5
ATOM      1  C   UNL     1      -0.653  -1.642  25.296  0.00  0.00    +0.097 C 
ATOM      2  C   UNL     1      -0.570  -0.926  24.893  0.00  0.00    +0.227 A 
ATOM      3  N   UNL     1      -0.166  -0.813  24.183  0.00  0.00    -0.112 NA
ATOM      4  N   UNL     1      -0.223  -0.016  23.982  0.00  0.00    -0.112 NA
ATOM      5  C   UNL     1      -0.663   0.365  24.568  0.00  0.00    +0.227 A 
ATOM      6  O   UNL     1      -0.877  -0.198  25.131  0.00  0.00    -0.423 OA
ENDBRANCH   7   5
BRANCH  14  15
ATOM     15  C   UNL     1      -3.570   3.103  24.851  0.00  0.00    +0.143 C 
BRANCH  15  16
ATOM     16  C   UNL     1      -4.329   2.834  25.029  0.00  0.00    -0.001 A 
ATOM     17  C   UNL     1      -4.699   2.285  24.536  0.00  0.00    -0.003 A 
ATOM     18  C   UNL     1      -5.458   2.016  24.715  0.00  0.00    -0.000 A 
ATOM     19  C   UNL     1      -5.847   2.295  25.387  0.00  0.00    -0.000 A 
ATOM     20  C   UNL     1      -5.477   2.844  25.879  0.00  0.00    -0.000 A 
ATOM     21  C   UNL     1      -4.718   3.113  25.701  0.00  0.00    -0.003 A 
ENDBRANCH  15  16
ENDBRANCH  14  15
TORSDOF 3
ENDMDL
MODEL 8
REMARK VINA RESULT:      -9.6      2.188      4.237
REMARK  Name = 
REMARK  3 active torsions:
REMARK  status: ('A' for Active; 'I' for Inactive)
REMARK    1  A    between atoms: C_5  and  C_7
REMARK    2  A    between atoms: N_14  and  C_15
REMARK    3  A    between atoms: C_15  and  C_16
REMARK                            x       y       z     vdW  Elec       q    Type
REMARK                         _______ _______ _______ _____ _____    ______ ____
ROOT
ATOM      7  C   UNL     1      -2.489  -0.969  24.683  0.00  0.00    +0.100 C 
ATOM      8  C   UNL     1      -2.997  -1.615  24.611  0.00  0.00    +0.033 C 
ATOM      9  C   UNL     1      -3.771  -1.332  24.610  0.00  0.00    +0.096 C 
ATOM     10  N   UNL     1      -3.743  -0.510  24.682  0.00  0.00    -0.262 N 
ATOM     11  C   UNL     1      -2.950  -0.286  24.728  0.00  0.00    +0.104 C 
ATOM     12  C   UNL     1      -4.392  -0.002  24.705  0.00  0.00    +0.324 C 
ATOM     13  O   UNL     1      -5.157  -0.308  24.653  0.00  0.00    -0.251 OA
ATOM     14  N   UNL     1      -4.277   0.811  24.779  0.00  0.00    -0.184 NA
ENDROOT
BRANCH   7   5
ATOM      1  C   UNL     1       0.310  -0.611  23.998  0.00  0.00    +0.097 C 
ATOM      2  C   UNL     1      -0.378  -0.835  24.393  0.00  0.00    +0.227 A 
ATOM      3  N   UNL     1      -0.416  -1.260  25.100  0.00  0.00    -0.112 NA
ATOM      4  N   UNL     1      -1.211  -1.361  25.294  0.00  0.00    -0.112 NA
ATOM      5  C   UNL     1      -1.665  -1.000  24.708  0.00  0.00    +0.227 A 
ATOM      6  O   UNL     1      -1.151  -0.675  24.151  0.00  0.00    -0.423 OA
ENDBRANCH   7   5
BRANCH  14  15
ATOM     15  C   UNL     1      -4.927   1.319  24.802  0.00  0.00    +0.143 C 
BRANCH  15  16
ATOM     16  C   UNL     1      -4.816   2.126  24.932  0.00  0.00    -0.001 A 
ATOM     17  C   UNL     1      -5.169   2.492  25.582  0.00  0.00    -0.003 A 
ATOM     18  C   UNL     1      -5.057   3.299  25.712  0.00  0.00    -0.000 A 
ATOM     19  C   UNL     1      -4.592   3.740  25.192  0.00  0.00    -0.000 A 
ATOM     20  C   UNL     1      -4.239   3.375  24.543  0.00  0.00    -0.000 A 
ATOM     21  C   UNL     1      -4.351   2.568  24.413  0.00  0.00    -0.003 A 
ENDBRANCH  15  16
ENDBRANCH  14  15
TORSDOF 3
ENDMDL
MODEL 9
REMARK VINA RESULT:      -9.4      1.005      1.374
REMARK  Name = 
REMARK  3 active torsions:
REMARK  status: ('A' for Active; 'I' for Inactive)
REMARK    1  A    between atoms: C_5  and  C_7
REMARK    2  A    between atoms: N_14  and  C_15
REMARK    3  A    between atoms: C_15  and  C_16
REMARK                            x       y       z     vdW  Elec       q    Type
REMARK                         _______ _______ _______ _____ _____    ______ ____
ROOT
ATOM      7  C   UNL     1      -3.772   2.288  24.705  0.00  0.00    +0.100 C 
ATOM      8  C   UNL     1      -4.586   2.420  24.694  0.00  0.00    +0.033 C 
ATOM      9  C   UNL     1      -4.963   1.687  24.709  0.00  0.00    +0.096 C 
ATOM     10  N   UNL     1      -4.382   1.101  24.729  0.00  0.00    -0.262 N 
ATOM     11  C   UNL     1      -3.646   1.473  24.727  0.00  0.00    +0.104 C 
ATOM     12  C   UNL     1      -4.514   0.287  24.748  0.00  0.00    +0.324 C 
ATOM     13  O   UNL     1      -5.285  -0.006  24.748  0.00  0.00    -0.251 OA
ATOM     14  N   UNL     1      -3.875  -0.234  24.767  0.00  0.00    -0.184 NA
ENDROOT
BRANCH   7   5
ATOM      1  C   UNL     1      -1.863   4.300  25.567  0.00  0.00    +0.097 C 
ATOM      2  C   UNL     1      -2.309   3.794  25.092  0.00  0.00    +0.227 A 
ATOM      3  N   UNL     1      -2.261   3.732  24.271  0.00  0.00    -0.112 NA
ATOM      4  N   UNL     1      -2.803   3.161  24.026  0.00  0.00    -0.112 NA
ATOM      5  C   UNL     1      -3.186   2.869  24.696  0.00  0.00    +0.227 A 
ATOM      6  O   UNL     1      -2.881   3.260  25.355  0.00  0.00    -0.423 OA
ENDBRANCH   7   5
BRANCH  14  15
ATOM     15  C   UNL     1      -4.007  -1.048  24.787  0.00  0.00    +0.143 C 
BRANCH  15  16
ATOM     16  C   UNL     1      -3.373  -1.571  24.715  0.00  0.00    -0.001 A 
ATOM     17  C   UNL     1      -3.485  -2.311  24.368  0.00  0.00    -0.003 A 
ATOM     18  C   UNL     1      -2.851  -2.834  24.296  0.00  0.00    -0.000 A 
ATOM     19  C   UNL     1      -2.104  -2.616  24.571  0.00  0.00    -0.000 A 
ATOM     20  C   UNL     1      -1.992  -1.876  24.918  0.00  0.00    -0.000 A 
ATOM     21  C   UNL     1      -2.626  -1.354  24.990  0.00  0.00    -0.003 A 
ENDBRANCH  15  16
ENDBRANCH  14  15
TORSDOF 3
ENDMDL
MODEL 10
REMARK VINA RESULT:      -9.4      1.999      3.301
REMARK  Name = 
REMARK  3 active torsions:
REMARK  status: ('A' for Active; 'I' for Inactive)
REMARK    1  A    between atoms: C_5  and  C_7
REMARK    2  A    between atoms: N_14  and  C_15
REMARK    3  A    between atoms: C_15  and  C_16
REMARK                            x       y       z     vdW  Elec       q    Type
REMARK                         _______ _______ _______ _____ _____    ______ ____
ROOT
ATOM      7  C   UNL     1      -3.522   3.008  25.106  0.00  0.00    +0.100 C 
ATOM      8  C   UNL     1      -3.119   3.713  24.963  0.00  0.00    +0.033 C 
ATOM      9  C   UNL     1      -2.317   3.537  24.887  0.00  0.00    +0.096 C 
ATOM     10  N   UNL     1      -2.225   2.722  24.984  0.00  0.00    -0.262 N 
ATOM     11  C   UNL     1      -2.970   2.396  25.119  0.00  0.00    +0.104 C 
ATOM     12  C   UNL     1      -1.513   2.308  24.951  0.00  0.00    +0.324 C 
ATOM     13  O   UNL     1      -0.806   2.710  24.811  0.00  0.00    -0.251 OA
ATOM     14  N   UNL     1      -1.506   1.490  25.058  0.00  0.00    -0.184 NA
ENDROOT
BRANCH   7   5
ATOM      1  C   UNL     1      -6.229   1.956  25.049  0.00  0.00    +0.097 C 
ATOM      2  C   UNL     1      -5.580   2.446  25.191  0.00  0.00    +0.227 A 
ATOM      3  N   UNL     1      -5.597   3.171  25.584  0.00  0.00    -0.112 NA
ATOM      4  N   UNL     1      -4.829   3.469  25.600  0.00  0.00    -0.112 NA
ATOM      5  C   UNL     1      -4.337   2.929  25.216  0.00  0.00    +0.227 A 
ATOM      6  O   UNL     1      -4.801   2.297  24.963  0.00  0.00    -0.423 OA
ENDBRANCH   7   5
BRANCH  14  15
ATOM     15  C   UNL     1      -0.794   1.075  25.025  0.00  0.00    +0.143 C 
BRANCH  15  16
ATOM     16  C   UNL     1      -0.796   0.250  25.040  0.00  0.00    -0.001 A 
ATOM     17  C   UNL     1      -1.082  -0.150  25.703  0.00  0.00    -0.003 A 
ATOM     18  C   UNL     1      -1.084  -0.975  25.718  0.00  0.00    -0.000 A 
ATOM     19  C   UNL     1      -0.800  -1.400  25.070  0.00  0.00    -0.000 A 
ATOM     20  C   UNL     1      -0.514  -1.000  24.408  0.00  0.00    -0.000 A 
ATOM     21  C   UNL     1      -0.512  -0.175  24.393  0.00  0.00    -0.003 A 
ENDBRANCH  15  16
ENDBRANCH  14  15
TORSDOF 3
ENDMDL
