MODEL 1
REMARK VINA RESULT:     -14.7      0.000      0.000
REMARK  Name = 
REMARK  5 active torsions:
REMARK  status: ('A' for Active; 'I' for Inactive)
REMARK    1  A    between atoms: C_3  and  C_4
REMARK    2  A    between atoms: C_4  and  N_5
REMARK    3  A    between atoms: C_12  and  C_19
REMARK    4  A    between atoms: C_22  and  O_23
REMARK    5  A    between atoms: O_23  and  C_24
REMARK                            x       y       z     vdW  Elec       q    Type
REMARK                         _______ _______ _______ _____ _____    ______ ____
ROOT
ATOM      5  N   UNL     1      -2.607  -0.173  24.539  0.00  0.00    -0.268 NA
ATOM      6  C   UNL     1      -1.777  -0.191  24.449  0.00  0.00    +0.074 C 
ATOM      7  C   UNL     1      -1.572   0.763  24.604  0.00  0.00    +0.039 C 
ATOM      8  C   UNL     1      -1.243   1.501  24.705  0.00  0.00    +0.011 C 
ATOM      9  C   UNL     1      -1.882   1.212  24.719  0.00  0.00    +0.054 C 
ATOM     10  C   UNL     1      -2.064   0.287  24.567  0.00  0.00    +0.078 C 
ATOM     11  C   UNL     1      -2.766   1.425  24.851  0.00  0.00    +0.041 A 
ATOM     12  C   UNL     1      -3.251   2.070  25.021  0.00  0.00    +0.012 A 
ATOM     13  C   UNL     1      -4.067   1.966  25.087  0.00  0.00    +0.006 A 
ATOM     14  C   UNL     1      -4.398   1.217  24.983  0.00  0.00    +0.061 A 
ATOM     15  C   UNL     1      -3.913   0.572  24.813  0.00  0.00    +0.261 A 
ATOM     16  O   UNL     1      -4.243  -0.177  24.710  0.00  0.00    -0.267 OA
ATOM     17  N   UNL     1      -3.097   0.676  24.747  0.00  0.00    -0.299 N 
ATOM     18  C   UNL     1      -2.499   0.975  24.740  0.00  0.00    +0.110 C 
ENDROOT
BRANCH  12  19
ATOM     19  C   UNL     1      -2.921   2.818  25.124  0.00  0.00    +0.001 A 
ATOM     20  C   UNL     1      -2.853   3.332  24.482  0.00  0.00    +0.003 A 
ATOM     21  C   UNL     1      -2.522   4.081  24.586  0.00  0.00    +0.037 A 
ATOM     22  C   UNL     1      -2.260   4.316  25.332  0.00  0.00    +0.147 A 
ATOM     28  C   UNL     1      -2.328   3.803  25.974  0.00  0.00    +0.037 A 
ATOM     29  C   UNL     1      -2.658   3.054  25.870  0.00  0.00    +0.003 A 
BRANCH  22  23
ATOM     23  O   UNL     1      -1.929   5.064  25.435  0.00  0.00    -0.404 OA
BRANCH  23  24
ATOM     24  C   UNL     1      -1.226   5.262  25.052  0.00  0.00    +0.575 C 
ATOM     25  F   UNL     1      -0.524   5.460  24.668  0.00  0.00    -0.133 F 
ATOM     26  F   UNL     1      -1.645   5.754  24.539  0.00  0.00    -0.133 F 
ATOM     27  F   UNL     1      -0.808   4.770  25.565  0.00  0.00    -0.133 F 
ENDBRANCH  23  24
ENDBRANCH  22  23
ENDBRANCH  12  19
BRANCH   5   4
ATOM      4  C   UNL     1      -3.385  -0.449  24.570  0.00  0.00    +0.102 C 
BRANCH   4   3
ATOM      1  O   UNL     1      -4.047  -1.168  23.240  0.00  0.00    -0.287 OA
ATOM      2  C   UNL     1      -3.866  -1.619  23.907  0.00  0.00    +0.193 A 
ATOM      3  C   UNL     1      -3.535  -1.259  24.572  0.00  0.00    +0.033 A 
ATOM     30  C   UNL     1      -3.354  -1.711  25.237  0.00  0.00    +0.000 A 
ATOM     31  C   UNL     1      -3.504  -2.523  25.239  0.00  0.00    -0.000 A 
ATOM     32  C   UNL     1      -3.835  -2.882  24.575  0.00  0.00    +0.003 A 
ATOM     33  C   UNL     1      -4.016  -2.431  23.909  0.00  0.00    +0.042 A 
ENDBRANCH   4   3
ENDBRANCH   5   4
TORSDOF 5
ENDMDL
MODEL 2
REMARK VINA RESULT:     -14.7      2.839      5.390
REMARK  Name = 
REMARK  5 active torsions:
REMARK  status: ('A' for Active; 'I' for Inactive)
REMARK    1  A    between atoms: C_3  and  C_4
REMARK    2  A    between atoms: C_4  and  N_5
REMARK    3  A    between atoms: C_12  and  C_19
REMARK    4  A    between atoms: C_22  and  O_23
REMARK    5  A    between atoms: O_23  and  C_24
REMARK                            x       y       z     vdW  Elec       q    Type
REMARK                         _______ _______ _______ _____ _____    ______ ____
ROOT
ATOM      5  N   UNL     1      -2.252   2.494  24.403  0.00  0.00    -0.268 NA
ATOM      6  C   UNL     1      -2.915   2.531  23.896  0.00  0.00    +0.074 C 
ATOM      7  C   UNL     1      -3.208   1.588  23.937  0.00  0.00    +0.039 C 
ATOM      8  C   UNL     1      -3.572   0.863  23.865  0.00  0.00    +0.011 C 
ATOM      9  C   UNL     1      -3.021   1.135  24.203  0.00  0.00    +0.054 C 
ATOM     10  C   UNL     1      -2.750   2.050  24.153  0.00  0.00    +0.078 C 
ATOM     11  C   UNL     1      -2.340   0.904  24.776  0.00  0.00    +0.041 A 
ATOM     12  C   UNL     1      -2.039   0.252  25.182  0.00  0.00    +0.012 A 
ATOM     13  C   UNL     1      -1.371   0.337  25.659  0.00  0.00    +0.006 A 
ATOM     14  C   UNL     1      -1.005   1.073  25.730  0.00  0.00    +0.061 A 
ATOM     15  C   UNL     1      -1.307   1.725  25.324  0.00  0.00    +0.261 A 
ATOM     16  O   UNL     1      -0.941   2.461  25.395  0.00  0.00    -0.267 OA
ATOM     17  N   UNL     1      -1.975   1.640  24.847  0.00  0.00    -0.299 N 
ATOM     18  C   UNL     1      -2.495   1.356  24.536  0.00  0.00    +0.110 C 
ENDROOT
BRANCH  12  19
ATOM     19  C   UNL     1      -2.405  -0.484  25.111  0.00  0.00    +0.001 A 
ATOM     20  C   UNL     1      -2.148  -1.018  24.537  0.00  0.00    +0.003 A 
ATOM     21  C   UNL     1      -2.514  -1.754  24.466  0.00  0.00    +0.037 A 
ATOM     22  C   UNL     1      -3.137  -1.956  24.969  0.00  0.00    +0.147 A 
ATOM     28  C   UNL     1      -3.393  -1.422  25.543  0.00  0.00    +0.037 A 
ATOM     29  C   UNL     1      -3.027  -0.685  25.614  0.00  0.00    +0.003 A 
BRANCH  22  23
ATOM     23  O   UNL     1      -3.502  -2.691  24.898  0.00  0.00    -0.404 OA
BRANCH  23  24
ATOM     24  C   UNL     1      -3.923  -2.879  24.214  0.00  0.00    +0.575 C 
ATOM     25  F   UNL     1      -4.344  -3.066  23.530  0.00  0.00    -0.133 F 
ATOM     26  F   UNL     1      -3.310  -3.375  23.973  0.00  0.00    -0.133 F 
ATOM     27  F   UNL     1      -4.536  -2.382  24.455  0.00  0.00    -0.133 F 
ENDBRANCH  23  24
ENDBRANCH  22  23
ENDBRANCH  12  19
BRANCH   5   4
ATOM      4  C   UNL     1      -1.592   2.750  24.827  0.00  0.00    +0.102 C 
BRANCH   4   3
ATOM      1  O   UNL     1      -0.336   3.462  24.028  0.00  0.00    -0.287 OA
ATOM      2  C   UNL     1      -0.821   3.913  24.520  0.00  0.00    +0.193 A 
ATOM      3  C   UNL     1      -1.450   3.557  24.920  0.00  0.00    +0.033 A 
ATOM     30  C   UNL     1      -1.934   4.008  25.411  0.00  0.00    +0.000 A 
ATOM     31  C   UNL     1      -1.791   4.816  25.504  0.00  0.00    -0.000 A 
ATOM     32  C   UNL     1      -1.163   5.171  25.104  0.00  0.00    +0.003 A 
ATOM     33  C   UNL     1      -0.679   4.721  24.612  0.00  0.00    +0.042 A 
ENDBRANCH   4   3
ENDBRANCH   5   4
TORSDOF 5
ENDMDL
