MODEL 1
REMARK VINA RESULT:     -10.9      0.000      0.000
REMARK  Name = 
REMARK  8 active torsions:
REMARK  status: ('A' for Active; 'I' for Inactive)
REMARK    1  A    between atoms: C_2  and  C_3
REMARK    2  A    between atoms: C_4  and  C_17
REMARK    3  A    between atoms: N_9  and  C_10
REMARK    4  A    between atoms: C_10  and  C_11
REMARK    5  A    between atoms: C_20  and  N_21
REMARK    6  A    between atoms: N_21  and  S_22
REMARK    7  A    between atoms: S_22  and  C_25
REMARK    8  A    between atoms: C_25  and  C_26
REMARK                            x       y       z     vdW  Elec       q    Type
REMARK                         _______ _______ _______ _____ _____    ______ ____
ROOT
ATOM     17  C   UNL     1      -0.915   0.167  24.616  0.00  0.00    +0.006 A 
ATOM     18  C   UNL     1      -0.546   0.511  25.269  0.00  0.00    -0.001 A 
ATOM     19  C   UNL     1      -0.344   1.311  25.255  0.00  0.00    +0.018 A 
ATOM     20  C   UNL     1      -0.511   1.767  24.588  0.00  0.00    +0.091 A 
ATOM     32  C   UNL     1      -0.880   1.423  23.935  0.00  0.00    +0.018 A 
ATOM     33  C   UNL     1      -1.082   0.623  23.949  0.00  0.00    -0.001 A 
ENDROOT
BRANCH  17   4
ATOM      3  C   UNL     1      -1.856  -0.866  24.914  0.00  0.00    +0.140 C 
ATOM      4  C   UNL     1      -1.117  -0.632  24.630  0.00  0.00    +0.159 C 
ATOM      5  O   UNL     1      -0.581  -1.198  24.360  0.00  0.00    -0.341 OA
ATOM      6  C   UNL     1      -0.783  -1.999  24.373  0.00  0.00    +0.227 C 
ATOM      7  C   UNL     1      -1.522  -2.232  24.657  0.00  0.00    +0.256 C 
ATOM      8  O   UNL     1      -1.724  -3.031  24.671  0.00  0.00    -0.272 OA
ATOM      9  N   UNL     1      -2.058  -1.666  24.927  0.00  0.00    -0.270 N 
BRANCH   3   2
ATOM      1  O   UNL     1      -2.572  -0.254  25.987  0.00  0.00    -0.218 OA
ATOM      2  C   UNL     1      -2.392  -0.300  25.184  0.00  0.00    +0.205 C 
ENDBRANCH   3   2
BRANCH   9  10
ATOM     10  C   UNL     1      -2.796  -1.899  25.211  0.00  0.00    +0.120 C 
BRANCH  10  11
ATOM     11  C   UNL     1      -3.392  -2.113  24.682  0.00  0.00    -0.002 A 
ATOM     12  C   UNL     1      -3.851  -1.531  24.319  0.00  0.00    -0.003 A 
ATOM     13  C   UNL     1      -4.447  -1.745  23.790  0.00  0.00    -0.000 A 
ATOM     14  C   UNL     1      -4.584  -2.541  23.624  0.00  0.00    -0.000 A 
ATOM     15  C   UNL     1      -4.125  -3.124  23.986  0.00  0.00    -0.000 A 
ATOM     16  C   UNL     1      -3.530  -2.910  24.515  0.00  0.00    -0.003 A 
ENDBRANCH  10  11
ENDBRANCH   9  10
ENDBRANCH  17   4
BRANCH  20  21
ATOM     21  N   UNL     1      -0.310   2.567  24.574  0.00  0.00    -0.100 NA
BRANCH  21  22
ATOM     22  S   UNL     1      -0.679   3.094  25.089  0.00  0.00    +0.077 S 
ATOM     23  O   UNL     1       0.007   3.129  25.546  0.00  0.00    -0.153 OA
ATOM     24  O   UNL     1      -1.365   3.060  24.632  0.00  0.00    -0.153 OA
BRANCH  22  25
ATOM     25  C   UNL     1      -1.049   3.622  25.605  0.00  0.00    +0.201 C 
BRANCH  25  26
ATOM     26  C   UNL     1      -1.245   4.381  25.349  0.00  0.00    +0.003 A 
ATOM     27  C   UNL     1      -0.669   4.863  25.009  0.00  0.00    -0.003 A 
ATOM     28  C   UNL     1      -0.865   5.623  24.753  0.00  0.00    -0.000 A 
ATOM     29  C   UNL     1      -1.638   5.899  24.837  0.00  0.00    -0.000 A 
ATOM     30  C   UNL     1      -2.213   5.417  25.177  0.00  0.00    -0.000 A 
ATOM     31  C   UNL     1      -2.018   4.658  25.433  0.00  0.00    -0.003 A 
ENDBRANCH  25  26
ENDBRANCH  22  25
ENDBRANCH  21  22
ENDBRANCH  20  21
TORSDOF 8
ENDMDL
MODEL 2
REMARK VINA RESULT:     -10.0      1.701      2.536
REMARK  Name = 
REMARK  8 active torsions:
REMARK  status: ('A' for Active; 'I' for Inactive)
REMARK    1  A    between atoms: C_2  and  C_3
REMARK    2  A    between atoms: C_4  and  C_17
REMARK    3  A    between atoms: N_9  and  C_10
REMARK    4  A    between atoms: C_10  and  C_11
REMARK    5  A    between atoms: C_20  and  N_21
REMARK    6  A    between atoms: N_21  and  S_22
REMARK    7  A    between atoms: S_22  and  C_25
REMARK    8  A    between atoms: C_25  and  C_26
REMARK                            x       y       z     vdW  Elec       q    Type
REMARK                         _______ _______ _______ _____ _____    ______ ____
ROOT
ATOM     17  C   UNL     1      -3.943   0.737  24.406  0.00  0.00    +0.006 A 
ATOM     18  C   UNL     1      -4.376   1.147  24.975  0.00  0.00    -0.001 A 
ATOM     19  C   UNL     1      -4.293   1.966  25.045  0.00  0.00    +0.018 A 
ATOM     20  C   UNL     1      -3.779   2.373  24.546  0.00  0.00    +0.091 A 
ATOM     32  C   UNL     1      -3.346   1.963  23.977  0.00  0.00    +0.018 A 
ATOM     33  C   UNL     1      -3.427   1.145  23.906  0.00  0.00    -0.001 A 
ENDROOT
BRANCH  17   4
ATOM      3  C   UNL     1      -3.548  -0.583  24.785  0.00  0.00    +0.140 C 
ATOM      4  C   UNL     1      -4.024  -0.081  24.335  0.00  0.00    +0.159 C 
ATOM      5  O   UNL     1      -4.581  -0.397  23.814  0.00  0.00    -0.341 OA
ATOM      6  C   UNL     1      -4.662  -1.215  23.744  0.00  0.00    +0.227 C 
ATOM      7  C   UNL     1      -4.186  -1.717  24.194  0.00  0.00    +0.256 C 
ATOM      8  O   UNL     1      -4.268  -2.534  24.123  0.00  0.00    -0.272 OA
ATOM      9  N   UNL     1      -3.629  -1.401  24.714  0.00  0.00    -0.270 N 
BRANCH   3   2
ATOM      1  O   UNL     1      -3.102  -0.337  26.119  0.00  0.00    -0.218 OA
ATOM      2  C   UNL     1      -2.991  -0.267  25.305  0.00  0.00    +0.205 C 
ENDBRANCH   3   2
BRANCH   9  10
ATOM     10  C   UNL     1      -3.153  -1.902  25.164  0.00  0.00    +0.120 C 
BRANCH  10  11
ATOM     11  C   UNL     1      -2.459  -2.210  24.841  0.00  0.00    -0.002 A 
ATOM     12  C   UNL     1      -2.491  -2.870  24.347  0.00  0.00    -0.003 A 
ATOM     13  C   UNL     1      -1.796  -3.179  24.024  0.00  0.00    -0.000 A 
ATOM     14  C   UNL     1      -1.071  -2.826  24.196  0.00  0.00    -0.000 A 
ATOM     15  C   UNL     1      -1.039  -2.166  24.690  0.00  0.00    -0.000 A 
ATOM     16  C   UNL     1      -1.732  -1.858  25.013  0.00  0.00    -0.003 A 
ENDBRANCH  10  11
ENDBRANCH   9  10
ENDBRANCH  17   4
BRANCH  20  21
ATOM     21  N   UNL     1      -3.696   3.191  24.616  0.00  0.00    -0.100 NA
BRANCH  21  22
ATOM     22  S   UNL     1      -3.147   3.506  25.145  0.00  0.00    +0.077 S 
ATOM     23  O   UNL     1      -2.533   3.174  24.706  0.00  0.00    -0.153 OA
ATOM     24  O   UNL     1      -3.761   3.838  25.585  0.00  0.00    -0.153 OA
BRANCH  22  25
ATOM     25  C   UNL     1      -2.598   3.821  25.674  0.00  0.00    +0.201 C 
BRANCH  25  26
ATOM     26  C   UNL     1      -2.032   4.360  25.410  0.00  0.00    +0.003 A 
ATOM     27  C   UNL     1      -2.240   5.148  25.286  0.00  0.00    -0.003 A 
ATOM     28  C   UNL     1      -1.674   5.688  25.021  0.00  0.00    -0.000 A 
ATOM     29  C   UNL     1      -0.900   5.437  24.882  0.00  0.00    -0.000 A 
ATOM     30  C   UNL     1      -0.693   4.650  25.006  0.00  0.00    -0.000 A 
ATOM     31  C   UNL     1      -1.258   4.110  25.270  0.00  0.00    -0.003 A 
ENDBRANCH  25  26
ENDBRANCH  22  25
ENDBRANCH  21  22
ENDBRANCH  20  21
TORSDOF 8
ENDMDL
MODEL 3
REMARK VINA RESULT:      -9.5      2.062      6.319
REMARK  Name = 
REMARK  8 active torsions:
REMARK  status: ('A' for Active; 'I' for Inactive)
REMARK    1  A    between atoms: C_2  and  C_3
REMARK    2  A    between atoms: C_4  and  C_17
REMARK    3  A    between atoms: N_9  and  C_10
REMARK    4  A    between atoms: C_10  and  C_11
REMARK    5  A    between atoms: C_20  and  N_21
REMARK    6  A    between atoms: N_21  and  S_22
REMARK    7  A    between atoms: S_22  and  C_25
REMARK    8  A    between atoms: C_25  and  C_26
REMARK                            x       y       z     vdW  Elec       q    Type
REMARK                         _______ _______ _______ _____ _____    ______ ____
ROOT
ATOM     17  C   UNL     1      -3.813   2.004  24.548  0.00  0.00    +0.006 A 
ATOM     18  C   UNL     1      -4.313   1.502  24.972  0.00  0.00    -0.001 A 
ATOM     19  C   UNL     1      -4.409   0.718  24.733  0.00  0.00    +0.018 A 
ATOM     20  C   UNL     1      -4.006   0.436  24.071  0.00  0.00    +0.091 A 
ATOM     32  C   UNL     1      -3.506   0.937  23.648  0.00  0.00    +0.018 A 
ATOM     33  C   UNL     1      -3.409   1.721  23.886  0.00  0.00    -0.001 A 
ENDROOT
BRANCH  17   4
ATOM      3  C   UNL     1      -3.019   3.020  25.164  0.00  0.00    +0.140 C 
ATOM      4  C   UNL     1      -3.716   2.788  24.786  0.00  0.00    +0.159 C 
ATOM      5  O   UNL     1      -4.314   3.339  24.647  0.00  0.00    -0.341 OA
ATOM      6  C   UNL     1      -4.216   4.123  24.885  0.00  0.00    +0.227 C 
ATOM      7  C   UNL     1      -3.520   4.355  25.262  0.00  0.00    +0.256 C 
ATOM      8  O   UNL     1      -3.423   5.139  25.500  0.00  0.00    -0.272 OA
ATOM      9  N   UNL     1      -2.922   3.804  25.402  0.00  0.00    -0.270 N 
BRANCH   3   2
ATOM      1  O   UNL     1      -2.262   2.220  26.072  0.00  0.00    -0.218 OA
ATOM      2  C   UNL     1      -2.421   2.469  25.303  0.00  0.00    +0.205 C 
ENDBRANCH   3   2
BRANCH   9  10
ATOM     10  C   UNL     1      -2.227   4.036  25.779  0.00  0.00    +0.120 C 
BRANCH  10  11
ATOM     11  C   UNL     1      -1.643   4.440  25.356  0.00  0.00    -0.002 A 
ATOM     12  C   UNL     1      -1.013   4.024  25.024  0.00  0.00    -0.003 A 
ATOM     13  C   UNL     1      -0.429   4.428  24.601  0.00  0.00    -0.000 A 
ATOM     14  C   UNL     1      -0.478   5.246  24.510  0.00  0.00    -0.000 A 
ATOM     15  C   UNL     1      -1.109   5.662  24.843  0.00  0.00    -0.000 A 
ATOM     16  C   UNL     1      -1.691   5.259  25.265  0.00  0.00    -0.003 A 
ENDBRANCH  10  11
ENDBRANCH   9  10
ENDBRANCH  17   4
BRANCH  20  21
ATOM     21  N   UNL     1      -4.102  -0.348  23.832  0.00  0.00    -0.100 NA
BRANCH  21  22
ATOM     22  S   UNL     1      -3.924  -0.962  24.353  0.00  0.00    +0.077 S 
ATOM     23  O   UNL     1      -3.131  -0.737  24.348  0.00  0.00    -0.153 OA
ATOM     24  O   UNL     1      -4.718  -1.188  24.359  0.00  0.00    -0.153 OA
BRANCH  22  25
ATOM     25  C   UNL     1      -3.746  -1.577  24.874  0.00  0.00    +0.201 C 
BRANCH  25  26
ATOM     26  C   UNL     1      -3.309  -2.226  24.614  0.00  0.00    +0.003 A 
ATOM     27  C   UNL     1      -2.497  -2.257  24.748  0.00  0.00    -0.003 A 
ATOM     28  C   UNL     1      -2.060  -2.907  24.487  0.00  0.00    -0.000 A 
ATOM     29  C   UNL     1      -2.437  -3.525  24.091  0.00  0.00    -0.000 A 
ATOM     30  C   UNL     1      -3.249  -3.493  23.957  0.00  0.00    -0.000 A 
ATOM     31  C   UNL     1      -3.686  -2.844  24.218  0.00  0.00    -0.003 A 
ENDBRANCH  25  26
ENDBRANCH  22  25
ENDBRANCH  21  22
ENDBRANCH  20  21
TORSDOF 8
ENDMDL
MODEL 4
REMARK VINA RESULT:      -9.3      2.319      5.703
REMARK  Name = 
REMARK  8 active torsions:
REMARK  status: ('A' for Active; 'I' for Inactive)
REMARK    1  A    between atoms: C_2  and  C_3
REMARK    2  A    between atoms: C_4  and  C_17
REMARK    3  A    between atoms: N_9  and  C_10
REMARK    4  A    between atoms: C_10  and  C_11
REMARK    5  A    between atoms: C_20  and  N_21
REMARK    6  A    between atoms: N_21  and  S_22
REMARK    7  A    between atoms: S_22  and  C_25
REMARK    8  A    between atoms: C_25  and  C_26
REMARK                            x       y       z     vdW  Elec       q    Type
REMARK                         _______ _______ _______ _____ _____    ______ ____
ROOT
ATOM     17  C   UNL     1      -4.384   0.261  24.950  0.00  0.00    +0.006 A 
ATOM     18  C   UNL     1      -4.499  -0.188  24.268  0.00  0.00    -0.001 A 
ATOM     19  C   UNL     1      -4.260  -0.978  24.248  0.00  0.00    +0.018 A 
ATOM     20  C   UNL     1      -3.906  -1.318  24.910  0.00  0.00    +0.091 A 
ATOM     32  C   UNL     1      -3.791  -0.869  25.593  0.00  0.00    +0.018 A 
ATOM     33  C   UNL     1      -4.030  -0.080  25.613  0.00  0.00    -0.001 A 
ENDROOT
BRANCH  17   4
ATOM      3  C   UNL     1      -4.119   1.640  24.688  0.00  0.00    +0.140 C 
ATOM      4  C   UNL     1      -4.623   1.050  24.971  0.00  0.00    +0.159 C 
ATOM      5  O   UNL     1      -5.364   1.250  25.273  0.00  0.00    -0.341 OA
ATOM      6  C   UNL     1      -5.602   2.040  25.293  0.00  0.00    +0.227 C 
ATOM      7  C   UNL     1      -5.099   2.629  25.011  0.00  0.00    +0.256 C 
ATOM      8  O   UNL     1      -5.337   3.419  25.031  0.00  0.00    -0.272 OA
ATOM      9  N   UNL     1      -4.358   2.430  24.709  0.00  0.00    -0.270 N 
BRANCH   3   2
ATOM      1  O   UNL     1      -3.246   1.458  23.572  0.00  0.00    -0.218 OA
ATOM      2  C   UNL     1      -3.378   1.441  24.386  0.00  0.00    +0.205 C 
ENDBRANCH   3   2
BRANCH   9  10
ATOM     10  C   UNL     1      -3.854   3.019  24.426  0.00  0.00    +0.120 C 
BRANCH  10  11
ATOM     11  C   UNL     1      -3.360   3.424  24.949  0.00  0.00    -0.002 A 
ATOM     12  C   UNL     1      -3.681   3.821  25.597  0.00  0.00    -0.003 A 
ATOM     13  C   UNL     1      -3.186   4.226  26.120  0.00  0.00    -0.000 A 
ATOM     14  C   UNL     1      -2.371   4.232  25.994  0.00  0.00    -0.000 A 
ATOM     15  C   UNL     1      -2.050   3.835  25.346  0.00  0.00    -0.000 A 
ATOM     16  C   UNL     1      -2.543   3.430  24.824  0.00  0.00    -0.003 A 
ENDBRANCH  10  11
ENDBRANCH   9  10
ENDBRANCH  17   4
BRANCH  20  21
ATOM     21  N   UNL     1      -3.667  -2.108  24.891  0.00  0.00    -0.100 NA
BRANCH  21  22
ATOM     22  S   UNL     1      -2.926  -2.306  24.589  0.00  0.00    +0.077 S 
ATOM     23  O   UNL     1      -3.172  -2.077  23.835  0.00  0.00    -0.153 OA
ATOM     24  O   UNL     1      -2.680  -2.536  25.342  0.00  0.00    -0.153 OA
BRANCH  22  25
ATOM     25  C   UNL     1      -2.184  -2.505  24.286  0.00  0.00    +0.201 C 
BRANCH  25  26
ATOM     26  C   UNL     1      -1.521  -2.060  24.492  0.00  0.00    +0.003 A 
ATOM     27  C   UNL     1      -1.158  -2.175  25.223  0.00  0.00    -0.003 A 
ATOM     28  C   UNL     1      -0.494  -1.729  25.429  0.00  0.00    -0.000 A 
ATOM     29  C   UNL     1      -0.196  -1.168  24.903  0.00  0.00    -0.000 A 
ATOM     30  C   UNL     1      -0.559  -1.053  24.173  0.00  0.00    -0.000 A 
ATOM     31  C   UNL     1      -1.222  -1.498  23.966  0.00  0.00    -0.003 A 
ENDBRANCH  25  26
ENDBRANCH  22  25
ENDBRANCH  21  22
ENDBRANCH  20  21
TORSDOF 8
ENDMDL
MODEL 5
REMARK VINA RESULT:      -9.2      2.772      4.536
REMARK  Name = 
REMARK  8 active torsions:
REMARK  status: ('A' for Active; 'I' for Inactive)
REMARK    1  A    between atoms: C_2  and  C_3
REMARK    2  A    between atoms: C_4  and  C_17
REMARK    3  A    between atoms: N_9  and  C_10
REMARK    4  A    between atoms: C_10  and  C_11
REMARK    5  A    between atoms: C_20  and  N_21
REMARK    6  A    between atoms: N_21  and  S_22
REMARK    7  A    between atoms: S_22  and  C_25
REMARK    8  A    between atoms: C_25  and  C_26
REMARK                            x       y       z     vdW  Elec       q    Type
REMARK                         _______ _______ _______ _____ _____    ______ ____
ROOT
ATOM     17  C   UNL     1      -2.095   0.167  24.704  0.00  0.00    +0.006 A 
ATOM     18  C   UNL     1      -1.861  -0.406  24.159  0.00  0.00    -0.001 A 
ATOM     19  C   UNL     1      -1.059  -0.529  24.008  0.00  0.00    +0.018 A 
ATOM     20  C   UNL     1      -0.491  -0.078  24.401  0.00  0.00    +0.091 A 
ATOM     32  C   UNL     1      -0.725   0.495  24.946  0.00  0.00    +0.018 A 
ATOM     33  C   UNL     1      -1.526   0.619  25.098  0.00  0.00    -0.001 A 
ENDROOT
BRANCH  17   4
ATOM      3  C   UNL     1      -3.287   0.932  24.513  0.00  0.00    +0.140 C 
ATOM      4  C   UNL     1      -2.896   0.291  24.856  0.00  0.00    +0.159 C 
ATOM      5  O   UNL     1      -3.307  -0.226  25.351  0.00  0.00    -0.341 OA
ATOM      6  C   UNL     1      -4.109  -0.102  25.503  0.00  0.00    +0.227 C 
ATOM      7  C   UNL     1      -4.499   0.539  25.160  0.00  0.00    +0.256 C 
ATOM      8  O   UNL     1      -5.300   0.662  25.312  0.00  0.00    -0.272 OA
ATOM      9  N   UNL     1      -4.088   1.055  24.665  0.00  0.00    -0.270 N 
BRANCH   3   2
ATOM      1  O   UNL     1      -3.029   1.452  23.208  0.00  0.00    -0.218 OA
ATOM      2  C   UNL     1      -2.876   1.448  24.018  0.00  0.00    +0.205 C 
ENDBRANCH   3   2
BRANCH   9  10
ATOM     10  C   UNL     1      -4.478   1.696  24.321  0.00  0.00    +0.120 C 
BRANCH  10  11
ATOM     11  C   UNL     1      -4.691   2.345  24.785  0.00  0.00    -0.002 A 
ATOM     12  C   UNL     1      -4.125   2.910  24.988  0.00  0.00    -0.003 A 
ATOM     13  C   UNL     1      -4.338   3.560  25.451  0.00  0.00    -0.000 A 
ATOM     14  C   UNL     1      -5.117   3.643  25.711  0.00  0.00    -0.000 A 
ATOM     15  C   UNL     1      -5.683   3.078  25.507  0.00  0.00    -0.000 A 
ATOM     16  C   UNL     1      -5.470   2.429  25.044  0.00  0.00    -0.003 A 
ENDBRANCH  10  11
ENDBRANCH   9  10
ENDBRANCH  17   4
BRANCH  20  21
ATOM     21  N   UNL     1       0.311  -0.201  24.250  0.00  0.00    -0.100 NA
BRANCH  21  22
ATOM     22  S   UNL     1       0.649   0.095  23.558  0.00  0.00    +0.077 S 
ATOM     23  O   UNL     1       0.681   0.847  23.895  0.00  0.00    -0.153 OA
ATOM     24  O   UNL     1       0.617  -0.657  23.221  0.00  0.00    -0.153 OA
BRANCH  22  25
ATOM     25  C   UNL     1       0.988   0.391  22.866  0.00  0.00    +0.201 C 
BRANCH  25  26
ATOM     26  C   UNL     1       1.808   0.405  22.781  0.00  0.00    +0.003 A 
ATOM     27  C   UNL     1       2.248   1.011  23.125  0.00  0.00    -0.003 A 
ATOM     28  C   UNL     1       3.069   1.024  23.039  0.00  0.00    -0.000 A 
ATOM     29  C   UNL     1       3.448   0.431  22.609  0.00  0.00    -0.000 A 
ATOM     30  C   UNL     1       3.008  -0.175  22.266  0.00  0.00    -0.000 A 
ATOM     31  C   UNL     1       2.188  -0.189  22.351  0.00  0.00    -0.003 A 
ENDBRANCH  25  26
ENDBRANCH  22  25
ENDBRANCH  21  22
ENDBRANCH  20  21
TORSDOF 8
ENDMDL
MODEL 6
REMARK VINA RESULT:      -9.1      1.259      5.904
REMARK  Name = 
REMARK  8 active torsions:
REMARK  status: ('A' for Active; 'I' for Inactive)
REMARK    1  A    between atoms: C_2  and  C_3
REMARK    2  A    between atoms: C_4  and  C_17
REMARK    3  A    between atoms: N_9  and  C_10
REMARK    4  A    between atoms: C_10  and  C_11
REMARK    5  A    between atoms: C_20  and  N_21
REMARK    6  A    between atoms: N_21  and  S_22
REMARK    7  A    between atoms: S_22  and  C_25
REMARK    8  A    between atoms: C_25  and  C_26
REMARK                            x       y       z     vdW  Elec       q    Type
REMARK                         _______ _______ _______ _____ _____    ______ ____
ROOT
ATOM     17  C   UNL     1      -0.851   0.877  25.380  0.00  0.00    +0.006 A 
ATOM     18  C   UNL     1      -0.529   0.347  24.836  0.00  0.00    -0.001 A 
ATOM     19  C   UNL     1      -0.843  -0.413  24.767  0.00  0.00    +0.018 A 
ATOM     20  C   UNL     1      -1.477  -0.643  25.241  0.00  0.00    +0.091 A 
ATOM     32  C   UNL     1      -1.798  -0.113  25.785  0.00  0.00    +0.018 A 
ATOM     33  C   UNL     1      -1.486   0.647  25.855  0.00  0.00    -0.001 A 
ENDROOT
BRANCH  17   4
ATOM      3  C   UNL     1      -0.795   2.237  24.944  0.00  0.00    +0.140 C 
ATOM      4  C   UNL     1      -0.538   1.637  25.450  0.00  0.00    +0.159 C 
ATOM      5  O   UNL     1       0.030   1.799  26.026  0.00  0.00    -0.341 OA
ATOM      6  C   UNL     1       0.342   2.560  26.096  0.00  0.00    +0.227 C 
ATOM      7  C   UNL     1       0.086   3.158  25.590  0.00  0.00    +0.256 C 
ATOM      8  O   UNL     1       0.398   3.918  25.660  0.00  0.00    -0.272 OA
ATOM      9  N   UNL     1      -0.483   2.997  25.014  0.00  0.00    -0.270 N 
BRANCH   3   2
ATOM      1  O   UNL     1      -1.157   2.089  23.570  0.00  0.00    -0.218 OA
ATOM      2  C   UNL     1      -1.363   2.075  24.368  0.00  0.00    +0.205 C 
ENDBRANCH   3   2
BRANCH   9  10
ATOM     10  C   UNL     1      -0.739   3.595  24.508  0.00  0.00    +0.120 C 
BRANCH  10  11
ATOM     11  C   UNL     1      -1.213   4.206  24.798  0.00  0.00    -0.002 A 
ATOM     12  C   UNL     1      -1.958   4.037  25.110  0.00  0.00    -0.003 A 
ATOM     13  C   UNL     1      -2.432   4.647  25.401  0.00  0.00    -0.000 A 
ATOM     14  C   UNL     1      -2.161   5.426  25.378  0.00  0.00    -0.000 A 
ATOM     15  C   UNL     1      -1.416   5.595  25.066  0.00  0.00    -0.000 A 
ATOM     16  C   UNL     1      -0.942   4.985  24.776  0.00  0.00    -0.003 A 
ENDBRANCH  10  11
ENDBRANCH   9  10
ENDBRANCH  17   4
BRANCH  20  21
ATOM     21  N   UNL     1      -1.790  -1.403  25.171  0.00  0.00    -0.100 NA
BRANCH  21  22
ATOM     22  S   UNL     1      -2.607  -1.510  25.132  0.00  0.00    +0.077 S 
ATOM     23  O   UNL     1      -2.602  -1.832  25.892  0.00  0.00    -0.153 OA
ATOM     24  O   UNL     1      -2.613  -1.188  24.373  0.00  0.00    -0.153 OA
BRANCH  22  25
ATOM     25  C   UNL     1      -3.425  -1.617  25.093  0.00  0.00    +0.201 C 
BRANCH  25  26
ATOM     26  C   UNL     1      -3.746  -2.152  24.554  0.00  0.00    +0.003 A 
ATOM     27  C   UNL     1      -4.269  -1.889  23.974  0.00  0.00    -0.003 A 
ATOM     28  C   UNL     1      -4.591  -2.425  23.435  0.00  0.00    -0.000 A 
ATOM     29  C   UNL     1      -4.388  -3.223  23.477  0.00  0.00    -0.000 A 
ATOM     30  C   UNL     1      -3.864  -3.486  24.057  0.00  0.00    -0.000 A 
ATOM     31  C   UNL     1      -3.543  -2.951  24.596  0.00  0.00    -0.003 A 
ENDBRANCH  25  26
ENDBRANCH  22  25
ENDBRANCH  21  22
ENDBRANCH  20  21
TORSDOF 8
ENDMDL
MODEL 7
REMARK VINA RESULT:      -8.8      2.054      5.296
REMARK  Name = 
REMARK  8 active torsions:
REMARK  status: ('A' for Active; 'I' for Inactive)
REMARK    1  A    between atoms: C_2  and  C_3
REMARK    2  A    between atoms: C_4  and  C_17
REMARK    3  A    between atoms: N_9  and  C_10
REMARK    4  A    between atoms: C_10  and  C_11
REMARK    5  A    between atoms: C_20  and  N_21
REMARK    6  A    between atoms: N_21  and  S_22
REMARK    7  A    between atoms: S_22  and  C_25
REMARK    8  A    between atoms: C_25  and  C_26
REMARK                            x       y       z     vdW  Elec       q    Type
REMARK                         _______ _______ _______ _____ _____    ______ ____
ROOT
ATOM     17  C   UNL     1      -1.481   1.302  24.958  0.00  0.00    +0.006 A 
ATOM     18  C   UNL     1      -1.040   1.011  24.324  0.00  0.00    -0.001 A 
ATOM     19  C   UNL     1      -0.735   0.244  24.352  0.00  0.00    +0.018 A 
ATOM     20  C   UNL     1      -0.872  -0.230  25.012  0.00  0.00    +0.091 A 
ATOM     32  C   UNL     1      -1.313   0.061  25.646  0.00  0.00    +0.018 A 
ATOM     33  C   UNL     1      -1.618   0.827  25.619  0.00  0.00    -0.001 A 
ENDROOT
BRANCH  17   4
ATOM      3  C   UNL     1      -2.523   2.206  24.584  0.00  0.00    +0.140 C 
ATOM      4  C   UNL     1      -1.786   2.068  24.931  0.00  0.00    +0.159 C 
ATOM      5  O   UNL     1      -1.356   2.695  25.250  0.00  0.00    -0.341 OA
ATOM      6  C   UNL     1      -1.661   3.462  25.223  0.00  0.00    +0.227 C 
ATOM      7  C   UNL     1      -2.397   3.600  24.877  0.00  0.00    +0.256 C 
ATOM      8  O   UNL     1      -2.702   4.366  24.850  0.00  0.00    -0.272 OA
ATOM      9  N   UNL     1      -2.827   2.972  24.557  0.00  0.00    -0.270 N 
BRANCH   3   2
ATOM      1  O   UNL     1      -3.007   1.491  23.447  0.00  0.00    -0.218 OA
ATOM      2  C   UNL     1      -2.953   1.579  24.265  0.00  0.00    +0.205 C 
ENDBRANCH   3   2
BRANCH   9  10
ATOM     10  C   UNL     1      -3.563   3.110  24.211  0.00  0.00    +0.120 C 
BRANCH  10  11
ATOM     11  C   UNL     1      -4.241   3.143  24.682  0.00  0.00    -0.002 A 
ATOM     12  C   UNL     1      -4.769   2.509  24.690  0.00  0.00    -0.003 A 
ATOM     13  C   UNL     1      -5.447   2.542  25.160  0.00  0.00    -0.000 A 
ATOM     14  C   UNL     1      -5.595   3.209  25.623  0.00  0.00    -0.000 A 
ATOM     15  C   UNL     1      -5.066   3.842  25.615  0.00  0.00    -0.000 A 
ATOM     16  C   UNL     1      -4.389   3.810  25.145  0.00  0.00    -0.003 A 
ENDBRANCH  10  11
ENDBRANCH   9  10
ENDBRANCH  17   4
BRANCH  20  21
ATOM     21  N   UNL     1      -0.567  -0.997  25.040  0.00  0.00    -0.100 NA
BRANCH  21  22
ATOM     22  S   UNL     1      -0.988  -1.620  24.702  0.00  0.00    +0.077 S 
ATOM     23  O   UNL     1      -0.858  -1.301  23.952  0.00  0.00    -0.153 OA
ATOM     24  O   UNL     1      -1.119  -1.939  25.451  0.00  0.00    -0.153 OA
BRANCH  22  25
ATOM     25  C   UNL     1      -1.410  -2.243  24.363  0.00  0.00    +0.201 C 
BRANCH  25  26
ATOM     26  C   UNL     1      -2.220  -2.316  24.499  0.00  0.00    +0.003 A 
ATOM     27  C   UNL     1      -2.492  -2.632  25.210  0.00  0.00    -0.003 A 
ATOM     28  C   UNL     1      -3.303  -2.705  25.345  0.00  0.00    -0.000 A 
ATOM     29  C   UNL     1      -3.841  -2.461  24.769  0.00  0.00    -0.000 A 
ATOM     30  C   UNL     1      -3.569  -2.145  24.058  0.00  0.00    -0.000 A 
ATOM     31  C   UNL     1      -2.758  -2.072  23.922  0.00  0.00    -0.003 A 
ENDBRANCH  25  26
ENDBRANCH  22  25
ENDBRANCH  21  22
ENDBRANCH  20  21
TORSDOF 8
ENDMDL
MODEL 8
REMARK VINA RESULT:      -8.6      2.853      4.814
REMARK  Name = 
REMARK  8 active torsions:
REMARK  status: ('A' for Active; 'I' for Inactive)
REMARK    1  A    between atoms: C_2  and  C_3
REMARK    2  A    between atoms: C_4  and  C_17
REMARK    3  A    between atoms: N_9  and  C_10
REMARK    4  A    between atoms: C_10  and  C_11
REMARK    5  A    between atoms: C_20  and  N_21
REMARK    6  A    between atoms: N_21  and  S_22
REMARK    7  A    between atoms: S_22  and  C_25
REMARK    8  A    between atoms: C_25  and  C_26
REMARK                            x       y       z     vdW  Elec       q    Type
REMARK                         _______ _______ _______ _____ _____    ______ ____
ROOT
ATOM     17  C   UNL     1      -1.452   2.623  25.172  0.00  0.00    +0.006 A 
ATOM     18  C   UNL     1      -0.856   2.994  24.738  0.00  0.00    -0.001 A 
ATOM     19  C   UNL     1      -0.152   2.594  24.580  0.00  0.00    +0.018 A 
ATOM     20  C   UNL     1      -0.043   1.824  24.855  0.00  0.00    +0.091 A 
ATOM     32  C   UNL     1      -0.639   1.454  25.290  0.00  0.00    +0.018 A 
ATOM     33  C   UNL     1      -1.343   1.853  25.449  0.00  0.00    -0.001 A 
ENDROOT
BRANCH  17   4
ATOM      3  C   UNL     1      -2.827   2.872  24.874  0.00  0.00    +0.140 C 
ATOM      4  C   UNL     1      -2.156   3.022  25.331  0.00  0.00    +0.159 C 
ATOM      5  O   UNL     1      -2.190   3.571  25.946  0.00  0.00    -0.341 OA
ATOM      6  C   UNL     1      -2.895   3.970  26.105  0.00  0.00    +0.227 C 
ATOM      7  C   UNL     1      -3.565   3.819  25.648  0.00  0.00    +0.256 C 
ATOM      8  O   UNL     1      -4.270   4.218  25.806  0.00  0.00    -0.272 OA
ATOM      9  N   UNL     1      -3.531   3.271  25.033  0.00  0.00    -0.270 N 
BRANCH   3   2
ATOM      1  O   UNL     1      -2.824   2.579  23.476  0.00  0.00    -0.218 OA
ATOM      2  C   UNL     1      -2.792   2.323  24.259  0.00  0.00    +0.205 C 
ENDBRANCH   3   2
BRANCH   9  10
ATOM     10  C   UNL     1      -4.201   3.120  24.576  0.00  0.00    +0.120 C 
BRANCH  10  11
ATOM     11  C   UNL     1      -4.807   2.646  24.876  0.00  0.00    -0.002 A 
ATOM     12  C   UNL     1      -4.828   1.841  24.698  0.00  0.00    -0.003 A 
ATOM     13  C   UNL     1      -5.434   1.367  24.998  0.00  0.00    -0.000 A 
ATOM     14  C   UNL     1      -6.017   1.699  25.477  0.00  0.00    -0.000 A 
ATOM     15  C   UNL     1      -5.996   2.504  25.655  0.00  0.00    -0.000 A 
ATOM     16  C   UNL     1      -5.392   2.978  25.355  0.00  0.00    -0.003 A 
ENDBRANCH  10  11
ENDBRANCH   9  10
ENDBRANCH  17   4
BRANCH  20  21
ATOM     21  N   UNL     1       0.661   1.424  24.697  0.00  0.00    -0.100 NA
BRANCH  21  22
ATOM     22  S   UNL     1       0.872   1.254  23.918  0.00  0.00    +0.077 S 
ATOM     23  O   UNL     1       0.462   0.540  23.963  0.00  0.00    -0.153 OA
ATOM     24  O   UNL     1       1.282   1.969  23.873  0.00  0.00    -0.153 OA
BRANCH  22  25
ATOM     25  C   UNL     1       1.083   1.084  23.139  0.00  0.00    +0.201 C 
BRANCH  25  26
ATOM     26  C   UNL     1       1.815   0.741  22.975  0.00  0.00    +0.003 A 
ATOM     27  C   UNL     1       2.504   1.189  23.036  0.00  0.00    -0.003 A 
ATOM     28  C   UNL     1       3.236   0.844  22.871  0.00  0.00    -0.000 A 
ATOM     29  C   UNL     1       3.277   0.052  22.646  0.00  0.00    -0.000 A 
ATOM     30  C   UNL     1       2.588  -0.396  22.586  0.00  0.00    -0.000 A 
ATOM     31  C   UNL     1       1.857  -0.053  22.750  0.00  0.00    -0.003 A 
ENDBRANCH  25  26
ENDBRANCH  22  25
ENDBRANCH  21  22
ENDBRANCH  20  21
TORSDOF 8
ENDMDL
