MODEL 1
REMARK VINA RESULT:     -10.8      0.000      0.000
REMARK  Name = 
REMARK  9 active torsions:
REMARK  status: ('A' for Active; 'I' for Inactive)
REMARK    1  A    between atoms: C_2  and  C_4
REMARK    2  A    between atoms: C_6  and  C_7
REMARK    3  A    between atoms: C_7  and  C_8
REMARK    4  A    between atoms: N_10  and  C_11
REMARK    5  A    between atoms: C_11  and  C_12
REMARK    6  A    between atoms: C_21  and  C_22
REMARK    7  A    between atoms: C_22  and  N_23
REMARK    8  A    between atoms: N_23  and  S_24
REMARK    9  A    between atoms: S_24  and  C_27
REMARK                            x       y       z     vdW  Elec       q    Type
REMARK                         _______ _______ _______ _____ _____    ______ ____
ROOT
ATOM      4  C   UNL     1      -3.622   1.907  24.178  0.00  0.00    +0.006 C 
ATOM      5  C   UNL     1      -3.672   2.694  24.419  0.00  0.00    +0.005 C 
ATOM      6  C   UNL     1      -4.261   2.925  24.948  0.00  0.00    +0.027 C 
ATOM     18  C   UNL     1      -4.800   2.370  25.235  0.00  0.00    -0.048 C 
ATOM     19  C   UNL     1      -5.389   2.603  25.764  0.00  0.00    +0.026 C 
ATOM     20  C   UNL     1      -4.749   1.584  24.993  0.00  0.00    -0.033 C 
ATOM     21  C   UNL     1      -4.161   1.352  24.465  0.00  0.00    +0.041 C 
ENDROOT
BRANCH   4   2
ATOM      1  C   UNL     1      -2.307   1.405  23.933  0.00  0.00    +0.000 C 
ATOM      2  C   UNL     1      -3.032   1.675  23.648  0.00  0.00    +0.000 C 
ATOM      3  C   UNL     1      -3.169   1.712  22.836  0.00  0.00    +0.000 C 
ENDBRANCH   4   2
BRANCH   6   7
ATOM      7  C   UNL     1      -4.311   3.713  25.190  0.00  0.00    +0.091 C 
BRANCH   7   8
ATOM      8  C   UNL     1      -3.700   4.048  25.633  0.00  0.00    +0.242 C 
ATOM      9  O   UNL     1      -3.738   4.045  26.457  0.00  0.00    -0.273 OA
ATOM     10  N   UNL     1      -3.052   4.386  25.251  0.00  0.00    -0.200 NA
BRANCH  10  11
ATOM     11  C   UNL     1      -2.442   4.721  25.693  0.00  0.00    +0.143 C 
BRANCH  11  12
ATOM     12  C   UNL     1      -1.711   4.871  25.340  0.00  0.00    +0.019 A 
ATOM     13  C   UNL     1      -1.125   4.290  25.341  0.00  0.00    +0.001 A 
ATOM     14  C   UNL     1      -0.395   4.440  24.989  0.00  0.00    +0.020 A 
ATOM     15  C   UNL     1      -0.250   5.171  24.635  0.00  0.00    +0.099 A 
ATOM     16  N   UNL     1      -0.836   5.752  24.634  0.00  0.00    -0.243 NA
ATOM     17  C   UNL     1      -1.567   5.602  24.987  0.00  0.00    +0.096 A 
ENDBRANCH  11  12
ENDBRANCH  10  11
ENDBRANCH   7   8
ENDBRANCH   6   7
BRANCH  21  22
ATOM     22  C   UNL     1      -4.110   0.565  24.222  0.00  0.00    +0.120 C 
BRANCH  22  23
ATOM     23  N   UNL     1      -4.493  -0.025  24.654  0.00  0.00    -0.077 NA
BRANCH  23  24
ATOM     24  S   UNL     1      -4.259  -0.812  24.575  0.00  0.00    +0.077 S 
ATOM     25  O   UNL     1      -4.624  -0.846  23.836  0.00  0.00    -0.152 OA
ATOM     26  O   UNL     1      -3.894  -0.779  25.314  0.00  0.00    -0.152 OA
BRANCH  24  27
ATOM     27  C   UNL     1      -4.025  -1.599  24.495  0.00  0.00    +0.124 A 
ATOM     28  C   UNL     1      -3.542  -1.946  25.067  0.00  0.00    +0.020 A 
ATOM     29  C   UNL     1      -3.309  -2.733  24.987  0.00  0.00    -0.003 A 
ATOM     30  C   UNL     1      -3.558  -3.174  24.336  0.00  0.00    -0.022 A 
ATOM     31  C   UNL     1      -3.325  -3.960  24.256  0.00  0.00    +0.031 C 
ATOM     32  C   UNL     1      -4.041  -2.827  23.764  0.00  0.00    -0.003 A 
ATOM     33  C   UNL     1      -4.275  -2.039  23.843  0.00  0.00    +0.020 A 
ENDBRANCH  24  27
ENDBRANCH  23  24
ENDBRANCH  22  23
ENDBRANCH  21  22
TORSDOF 9
ENDMDL
MODEL 2
REMARK VINA RESULT:     -10.7      3.707      5.481
REMARK  Name = 
REMARK  9 active torsions:
REMARK  status: ('A' for Active; 'I' for Inactive)
REMARK    1  A    between atoms: C_2  and  C_4
REMARK    2  A    between atoms: C_6  and  C_7
REMARK    3  A    between atoms: C_7  and  C_8
REMARK    4  A    between atoms: N_10  and  C_11
REMARK    5  A    between atoms: C_11  and  C_12
REMARK    6  A    between atoms: C_21  and  C_22
REMARK    7  A    between atoms: C_22  and  N_23
REMARK    8  A    between atoms: N_23  and  S_24
REMARK    9  A    between atoms: S_24  and  C_27
REMARK                            x       y       z     vdW  Elec       q    Type
REMARK                         _______ _______ _______ _____ _____    ______ ____
ROOT
ATOM      4  C   UNL     1      -0.591   1.380  24.308  0.00  0.00    +0.006 C 
ATOM      5  C   UNL     1       0.045   0.893  24.109  0.00  0.00    +0.005 C 
ATOM      6  C   UNL     1      -0.081   0.091  23.965  0.00  0.00    +0.027 C 
ATOM     18  C   UNL     1      -0.841  -0.225  24.021  0.00  0.00    -0.048 C 
ATOM     19  C   UNL     1      -0.965  -1.028  23.877  0.00  0.00    +0.026 C 
ATOM     20  C   UNL     1      -1.476   0.262  24.220  0.00  0.00    -0.033 C 
ATOM     21  C   UNL     1      -1.351   1.064  24.364  0.00  0.00    +0.041 C 
ENDROOT
BRANCH   4   2
ATOM      1  C   UNL     1      -0.281   2.441  25.214  0.00  0.00    +0.000 C 
ATOM      2  C   UNL     1      -0.466   2.183  24.452  0.00  0.00    +0.000 C 
ATOM      3  C   UNL     1      -0.525   2.727  23.835  0.00  0.00    +0.000 C 
ENDBRANCH   4   2
BRANCH   6   7
ATOM      7  C   UNL     1       0.555  -0.396  23.765  0.00  0.00    +0.091 C 
BRANCH   7   8
ATOM      8  C   UNL     1       1.055  -0.187  23.142  0.00  0.00    +0.242 C 
ATOM      9  O   UNL     1       0.749  -0.083  22.384  0.00  0.00    -0.273 OA
ATOM     10  N   UNL     1       1.862  -0.082  23.280  0.00  0.00    -0.200 NA
BRANCH  10  11
ATOM     11  C   UNL     1       2.361   0.127  22.658  0.00  0.00    +0.143 C 
BRANCH  11  12
ATOM     12  C   UNL     1       3.167   0.240  22.797  0.00  0.00    +0.019 A 
ATOM     13  C   UNL     1       3.510   0.978  22.661  0.00  0.00    +0.001 A 
ATOM     14  C   UNL     1       4.315   1.092  22.800  0.00  0.00    +0.020 A 
ATOM     15  C   UNL     1       4.778   0.465  23.074  0.00  0.00    +0.099 A 
ATOM     16  N   UNL     1       4.436  -0.273  23.209  0.00  0.00    -0.243 NA
ATOM     17  C   UNL     1       3.630  -0.386  23.071  0.00  0.00    +0.096 A 
ENDBRANCH  11  12
ENDBRANCH  10  11
ENDBRANCH   7   8
ENDBRANCH   6   7
BRANCH  21  22
ATOM     22  C   UNL     1      -1.986   1.552  24.564  0.00  0.00    +0.120 C 
BRANCH  22  23
ATOM     23  N   UNL     1      -2.760   1.285  24.459  0.00  0.00    -0.077 NA
BRANCH  23  24
ATOM     24  S   UNL     1      -3.394   1.755  24.696  0.00  0.00    +0.077 S 
ATOM     25  O   UNL     1      -3.300   1.493  25.472  0.00  0.00    -0.152 OA
ATOM     26  O   UNL     1      -3.489   2.019  23.920  0.00  0.00    -0.152 OA
BRANCH  24  27
ATOM     27  C   UNL     1      -4.029   2.227  24.933  0.00  0.00    +0.124 A 
ATOM     28  C   UNL     1      -3.923   3.038  25.039  0.00  0.00    +0.020 A 
ATOM     29  C   UNL     1      -4.558   3.508  25.275  0.00  0.00    -0.003 A 
ATOM     30  C   UNL     1      -5.298   3.169  25.406  0.00  0.00    -0.022 A 
ATOM     31  C   UNL     1      -5.933   3.639  25.642  0.00  0.00    +0.031 C 
ATOM     32  C   UNL     1      -5.404   2.357  25.299  0.00  0.00    -0.003 A 
ATOM     33  C   UNL     1      -4.769   1.886  25.063  0.00  0.00    +0.020 A 
ENDBRANCH  24  27
ENDBRANCH  23  24
ENDBRANCH  22  23
ENDBRANCH  21  22
TORSDOF 9
ENDMDL
MODEL 3
REMARK VINA RESULT:     -10.0      3.247      5.109
REMARK  Name = 
REMARK  9 active torsions:
REMARK  status: ('A' for Active; 'I' for Inactive)
REMARK    1  A    between atoms: C_2  and  C_4
REMARK    2  A    between atoms: C_6  and  C_7
REMARK    3  A    between atoms: C_7  and  C_8
REMARK    4  A    between atoms: N_10  and  C_11
REMARK    5  A    between atoms: C_11  and  C_12
REMARK    6  A    between atoms: C_21  and  C_22
REMARK    7  A    between atoms: C_22  and  N_23
REMARK    8  A    between atoms: N_23  and  S_24
REMARK    9  A    between atoms: S_24  and  C_27
REMARK                            x       y       z     vdW  Elec       q    Type
REMARK                         _______ _______ _______ _____ _____    ______ ____
ROOT
ATOM      4  C   UNL     1      -1.560   0.834  24.551  0.00  0.00    +0.006 C 
ATOM      5  C   UNL     1      -2.309   0.667  24.854  0.00  0.00    +0.005 C 
ATOM      6  C   UNL     1      -2.580  -0.112  24.876  0.00  0.00    +0.027 C 
ATOM     18  C   UNL     1      -2.103  -0.723  24.596  0.00  0.00    -0.048 C 
ATOM     19  C   UNL     1      -2.375  -1.502  24.619  0.00  0.00    +0.026 C 
ATOM     20  C   UNL     1      -1.354  -0.556  24.293  0.00  0.00    -0.033 C 
ATOM     21  C   UNL     1      -1.083   0.222  24.271  0.00  0.00    +0.041 C 
ENDROOT
BRANCH   4   2
ATOM      1  C   UNL     1      -1.406   2.071  23.853  0.00  0.00    +0.000 C 
ATOM      2  C   UNL     1      -1.288   1.613  24.529  0.00  0.00    +0.000 C 
ATOM      3  C   UNL     1      -0.899   1.933  25.182  0.00  0.00    +0.000 C 
ENDBRANCH   4   2
BRANCH   6   7
ATOM      7  C   UNL     1      -3.330  -0.279  25.180  0.00  0.00    +0.091 C 
BRANCH   7   8
ATOM      8  C   UNL     1      -3.995   0.094  24.863  0.00  0.00    +0.242 C 
ATOM      9  O   UNL     1      -4.318  -0.173  24.152  0.00  0.00    -0.273 OA
ATOM     10  N   UNL     1      -4.337   0.732  25.258  0.00  0.00    -0.200 NA
BRANCH  10  11
ATOM     11  C   UNL     1      -5.001   1.104  24.941  0.00  0.00    +0.143 C 
BRANCH  11  12
ATOM     12  C   UNL     1      -5.224   1.851  25.213  0.00  0.00    +0.019 A 
ATOM     13  C   UNL     1      -4.937   2.529  24.839  0.00  0.00    +0.001 A 
ATOM     14  C   UNL     1      -5.160   3.275  25.110  0.00  0.00    +0.020 A 
ATOM     15  C   UNL     1      -5.670   3.345  25.755  0.00  0.00    +0.099 A 
ATOM     16  N   UNL     1      -5.957   2.667  26.129  0.00  0.00    -0.243 NA
ATOM     17  C   UNL     1      -5.734   1.920  25.858  0.00  0.00    +0.096 A 
ENDBRANCH  11  12
ENDBRANCH  10  11
ENDBRANCH   7   8
ENDBRANCH   6   7
BRANCH  21  22
ATOM     22  C   UNL     1      -0.334   0.390  23.968  0.00  0.00    +0.120 C 
BRANCH  22  23
ATOM     23  N   UNL     1       0.087  -0.194  23.564  0.00  0.00    -0.077 NA
BRANCH  23  24
ATOM     24  S   UNL     1       0.846  -0.034  23.283  0.00  0.00    +0.077 S 
ATOM     25  O   UNL     1       0.528   0.214  22.564  0.00  0.00    -0.152 OA
ATOM     26  O   UNL     1       1.165  -0.283  24.002  0.00  0.00    -0.152 OA
BRANCH  24  27
ATOM     27  C   UNL     1       1.605   0.125  23.001  0.00  0.00    +0.124 A 
ATOM     28  C   UNL     1       2.077   0.686  23.381  0.00  0.00    +0.020 A 
ATOM     29  C   UNL     1       2.835   0.845  23.100  0.00  0.00    -0.003 A 
ATOM     30  C   UNL     1       3.124   0.444  22.439  0.00  0.00    -0.022 A 
ATOM     31  C   UNL     1       3.882   0.603  22.158  0.00  0.00    +0.031 C 
ATOM     32  C   UNL     1       2.652  -0.117  22.059  0.00  0.00    -0.003 A 
ATOM     33  C   UNL     1       1.893  -0.276  22.341  0.00  0.00    +0.020 A 
ENDBRANCH  24  27
ENDBRANCH  23  24
ENDBRANCH  22  23
ENDBRANCH  21  22
TORSDOF 9
ENDMDL
MODEL 4
REMARK VINA RESULT:      -9.9      2.477      6.435
REMARK  Name = 
REMARK  9 active torsions:
REMARK  status: ('A' for Active; 'I' for Inactive)
REMARK    1  A    between atoms: C_2  and  C_4
REMARK    2  A    between atoms: C_6  and  C_7
REMARK    3  A    between atoms: C_7  and  C_8
REMARK    4  A    between atoms: N_10  and  C_11
REMARK    5  A    between atoms: C_11  and  C_12
REMARK    6  A    between atoms: C_21  and  C_22
REMARK    7  A    between atoms: C_22  and  N_23
REMARK    8  A    between atoms: N_23  and  S_24
REMARK    9  A    between atoms: S_24  and  C_27
REMARK                            x       y       z     vdW  Elec       q    Type
REMARK                         _______ _______ _______ _____ _____    ______ ____
ROOT
ATOM      4  C   UNL     1      -0.470   0.345  24.510  0.00  0.00    +0.006 C 
ATOM      5  C   UNL     1      -0.504  -0.475  24.594  0.00  0.00    +0.005 C 
ATOM      6  C   UNL     1      -0.764  -0.806  25.303  0.00  0.00    +0.027 C 
ATOM     18  C   UNL     1      -0.990  -0.317  25.928  0.00  0.00    -0.048 C 
ATOM     19  C   UNL     1      -1.250  -0.650  26.637  0.00  0.00    +0.026 C 
ATOM     20  C   UNL     1      -0.956   0.502  25.844  0.00  0.00    -0.033 C 
ATOM     21  C   UNL     1      -0.696   0.834  25.136  0.00  0.00    +0.041 C 
ENDROOT
BRANCH   4   2
ATOM      1  C   UNL     1      -0.754   0.859  23.207  0.00  0.00    +0.000 C 
ATOM      2  C   UNL     1      -0.210   0.677  23.800  0.00  0.00    +0.000 C 
ATOM      3  C   UNL     1       0.593   0.826  23.685  0.00  0.00    +0.000 C 
ENDBRANCH   4   2
BRANCH   6   7
ATOM      7  C   UNL     1      -0.798  -1.626  25.387  0.00  0.00    +0.091 C 
BRANCH   7   8
ATOM      8  C   UNL     1      -1.179  -2.084  24.815  0.00  0.00    +0.242 C 
ATOM      9  O   UNL     1      -0.737  -2.497  24.254  0.00  0.00    -0.273 OA
ATOM     10  N   UNL     1      -2.003  -2.128  24.805  0.00  0.00    -0.200 NA
BRANCH  10  11
ATOM     11  C   UNL     1      -2.383  -2.586  24.234  0.00  0.00    +0.143 C 
BRANCH  11  12
ATOM     12  C   UNL     1      -3.194  -2.495  24.106  0.00  0.00    +0.019 A 
ATOM     13  C   UNL     1      -3.508  -1.744  23.969  0.00  0.00    +0.001 A 
ATOM     14  C   UNL     1      -4.318  -1.653  23.841  0.00  0.00    +0.020 A 
ATOM     15  C   UNL     1      -4.814  -2.313  23.850  0.00  0.00    +0.099 A 
ATOM     16  N   UNL     1      -4.500  -3.063  23.987  0.00  0.00    -0.243 NA
ATOM     17  C   UNL     1      -3.689  -3.154  24.115  0.00  0.00    +0.096 A 
ENDBRANCH  11  12
ENDBRANCH  10  11
ENDBRANCH   7   8
ENDBRANCH   6   7
BRANCH  21  22
ATOM     22  C   UNL     1      -0.662   1.654  25.051  0.00  0.00    +0.120 C 
BRANCH  22  23
ATOM     23  N   UNL     1      -0.913   2.142  25.667  0.00  0.00    -0.077 NA
BRANCH  23  24
ATOM     24  S   UNL     1      -1.068   2.939  25.524  0.00  0.00    +0.077 S 
ATOM     25  O   UNL     1      -1.852   2.756  25.348  0.00  0.00    -0.152 OA
ATOM     26  O   UNL     1      -0.283   3.124  25.699  0.00  0.00    -0.152 OA
BRANCH  24  27
ATOM     27  C   UNL     1      -1.223   3.737  25.381  0.00  0.00    +0.124 A 
ATOM     28  C   UNL     1      -0.662   4.204  24.995  0.00  0.00    +0.020 A 
ATOM     29  C   UNL     1      -0.817   5.001  24.852  0.00  0.00    -0.003 A 
ATOM     30  C   UNL     1      -1.533   5.333  25.095  0.00  0.00    -0.022 A 
ATOM     31  C   UNL     1      -1.688   6.130  24.952  0.00  0.00    +0.031 C 
ATOM     32  C   UNL     1      -2.093   4.866  25.481  0.00  0.00    -0.003 A 
ATOM     33  C   UNL     1      -1.938   4.068  25.624  0.00  0.00    +0.020 A 
ENDBRANCH  24  27
ENDBRANCH  23  24
ENDBRANCH  22  23
ENDBRANCH  21  22
TORSDOF 9
ENDMDL
MODEL 5
REMARK VINA RESULT:      -9.5      1.821      3.026
REMARK  Name = 
REMARK  9 active torsions:
REMARK  status: ('A' for Active; 'I' for Inactive)
REMARK    1  A    between atoms: C_2  and  C_4
REMARK    2  A    between atoms: C_6  and  C_7
REMARK    3  A    between atoms: C_7  and  C_8
REMARK    4  A    between atoms: N_10  and  C_11
REMARK    5  A    between atoms: C_11  and  C_12
REMARK    6  A    between atoms: C_21  and  C_22
REMARK    7  A    between atoms: C_22  and  N_23
REMARK    8  A    between atoms: N_23  and  S_24
REMARK    9  A    between atoms: S_24  and  C_27
REMARK                            x       y       z     vdW  Elec       q    Type
REMARK                         _______ _______ _______ _____ _____    ______ ____
ROOT
ATOM      4  C   UNL     1      -0.655   1.542  24.367  0.00  0.00    +0.006 C 
ATOM      5  C   UNL     1      -0.542   2.340  24.544  0.00  0.00    +0.005 C 
ATOM      6  C   UNL     1      -0.431   2.576  25.326  0.00  0.00    +0.027 C 
ATOM     18  C   UNL     1      -0.432   2.015  25.931  0.00  0.00    -0.048 C 
ATOM     19  C   UNL     1      -0.320   2.253  26.714  0.00  0.00    +0.026 C 
ATOM     20  C   UNL     1      -0.544   1.218  25.754  0.00  0.00    -0.033 C 
ATOM     21  C   UNL     1      -0.656   0.981  24.972  0.00  0.00    +0.041 C 
ENDROOT
BRANCH   4   2
ATOM      1  C   UNL     1      -1.506   1.391  23.229  0.00  0.00    +0.000 C 
ATOM      2  C   UNL     1      -0.766   1.305  23.584  0.00  0.00    +0.000 C 
ATOM      3  C   UNL     1      -0.138   0.983  23.157  0.00  0.00    +0.000 C 
ENDBRANCH   4   2
BRANCH   6   7
ATOM      7  C   UNL     1      -0.318   3.374  25.504  0.00  0.00    +0.091 C 
BRANCH   7   8
ATOM      8  C   UNL     1      -0.886   3.931  25.280  0.00  0.00    +0.242 C 
ATOM      9  O   UNL     1      -0.682   4.546  24.769  0.00  0.00    -0.273 OA
ATOM     10  N   UNL     1      -1.657   3.871  25.568  0.00  0.00    -0.200 NA
BRANCH  10  11
ATOM     11  C   UNL     1      -2.223   4.427  25.344  0.00  0.00    +0.143 C 
BRANCH  11  12
ATOM     12  C   UNL     1      -3.025   4.234  25.374  0.00  0.00    +0.019 A 
ATOM     13  C   UNL     1      -3.447   4.111  24.676  0.00  0.00    +0.001 A 
ATOM     14  C   UNL     1      -4.248   3.918  24.706  0.00  0.00    +0.020 A 
ATOM     15  C   UNL     1      -4.628   3.846  25.435  0.00  0.00    +0.099 A 
ATOM     16  N   UNL     1      -4.206   3.969  26.134  0.00  0.00    -0.243 NA
ATOM     17  C   UNL     1      -3.404   4.162  26.103  0.00  0.00    +0.096 A 
ENDBRANCH  11  12
ENDBRANCH  10  11
ENDBRANCH   7   8
ENDBRANCH   6   7
BRANCH  21  22
ATOM     22  C   UNL     1      -0.768   0.183  24.794  0.00  0.00    +0.120 C 
BRANCH  22  23
ATOM     23  N   UNL     1      -1.007  -0.341  25.385  0.00  0.00    -0.077 NA
BRANCH  23  24
ATOM     24  S   UNL     1      -1.530  -0.953  25.206  0.00  0.00    +0.077 S 
ATOM     25  O   UNL     1      -0.932  -1.345  24.795  0.00  0.00    -0.152 OA
ATOM     26  O   UNL     1      -2.129  -0.561  25.617  0.00  0.00    -0.152 OA
BRANCH  24  27
ATOM     27  C   UNL     1      -2.054  -1.565  25.028  0.00  0.00    +0.124 A 
ATOM     28  C   UNL     1      -1.788  -2.230  24.618  0.00  0.00    +0.020 A 
ATOM     29  C   UNL     1      -2.312  -2.841  24.440  0.00  0.00    -0.003 A 
ATOM     30  C   UNL     1      -3.103  -2.788  24.672  0.00  0.00    -0.022 A 
ATOM     31  C   UNL     1      -3.626  -3.400  24.494  0.00  0.00    +0.031 C 
ATOM     32  C   UNL     1      -3.368  -2.124  25.082  0.00  0.00    -0.003 A 
ATOM     33  C   UNL     1      -2.844  -1.511  25.260  0.00  0.00    +0.020 A 
ENDBRANCH  24  27
ENDBRANCH  23  24
ENDBRANCH  22  23
ENDBRANCH  21  22
TORSDOF 9
ENDMDL
MODEL 6
REMARK VINA RESULT:      -9.1      1.603      5.731
REMARK  Name = 
REMARK  9 active torsions:
REMARK  status: ('A' for Active; 'I' for Inactive)
REMARK    1  A    between atoms: C_2  and  C_4
REMARK    2  A    between atoms: C_6  and  C_7
REMARK    3  A    between atoms: C_7  and  C_8
REMARK    4  A    between atoms: N_10  and  C_11
REMARK    5  A    between atoms: C_11  and  C_12
REMARK    6  A    between atoms: C_21  and  C_22
REMARK    7  A    between atoms: C_22  and  N_23
REMARK    8  A    between atoms: N_23  and  S_24
REMARK    9  A    between atoms: S_24  and  C_27
REMARK                            x       y       z     vdW  Elec       q    Type
REMARK                         _______ _______ _______ _____ _____    ______ ____
ROOT
ATOM      4  C   UNL     1      -3.376   1.042  23.736  0.00  0.00    +0.006 C 
ATOM      5  C   UNL     1      -3.742   0.303  23.762  0.00  0.00    +0.005 C 
ATOM      6  C   UNL     1      -4.240   0.112  24.392  0.00  0.00    +0.027 C 
ATOM     18  C   UNL     1      -4.371   0.659  24.995  0.00  0.00    -0.048 C 
ATOM     19  C   UNL     1      -4.869   0.467  25.624  0.00  0.00    +0.026 C 
ATOM     20  C   UNL     1      -4.005   1.398  24.968  0.00  0.00    -0.033 C 
ATOM     21  C   UNL     1      -3.508   1.589  24.339  0.00  0.00    +0.041 C 
ENDROOT
BRANCH   4   2
ATOM      1  C   UNL     1      -3.169   1.670  22.470  0.00  0.00    +0.000 C 
ATOM      2  C   UNL     1      -2.878   1.233  23.106  0.00  0.00    +0.000 C 
ATOM      3  C   UNL     1      -2.091   0.988  23.113  0.00  0.00    +0.000 C 
ENDBRANCH   4   2
BRANCH   6   7
ATOM      7  C   UNL     1      -4.606  -0.627  24.418  0.00  0.00    +0.091 C 
BRANCH   7   8
ATOM      8  C   UNL     1      -4.188  -1.303  24.194  0.00  0.00    +0.242 C 
ATOM      9  O   UNL     1      -4.360  -1.677  23.479  0.00  0.00    -0.273 OA
ATOM     10  N   UNL     1      -3.598  -1.604  24.686  0.00  0.00    -0.200 NA
BRANCH  10  11
ATOM     11  C   UNL     1      -3.180  -2.279  24.462  0.00  0.00    +0.143 C 
BRANCH  11  12
ATOM     12  C   UNL     1      -2.372  -2.336  24.622  0.00  0.00    +0.019 A 
ATOM     13  C   UNL     1      -2.076  -2.079  25.348  0.00  0.00    +0.001 A 
ATOM     14  C   UNL     1      -1.269  -2.135  25.508  0.00  0.00    +0.020 A 
ATOM     15  C   UNL     1      -0.757  -2.449  24.941  0.00  0.00    +0.099 A 
ATOM     16  N   UNL     1      -1.053  -2.706  24.215  0.00  0.00    -0.243 NA
ATOM     17  C   UNL     1      -1.862  -2.650  24.055  0.00  0.00    +0.096 A 
ENDBRANCH  11  12
ENDBRANCH  10  11
ENDBRANCH   7   8
ENDBRANCH   6   7
BRANCH  21  22
ATOM     22  C   UNL     1      -3.141   2.328  24.312  0.00  0.00    +0.120 C 
BRANCH  22  23
ATOM     23  N   UNL     1      -3.040   2.763  25.006  0.00  0.00    -0.077 NA
BRANCH  23  24
ATOM     24  S   UNL     1      -2.551   3.426  25.009  0.00  0.00    +0.077 S 
ATOM     25  O   UNL     1      -3.143   3.866  24.638  0.00  0.00    -0.152 OA
ATOM     26  O   UNL     1      -1.958   2.988  25.379  0.00  0.00    -0.152 OA
BRANCH  24  27
ATOM     27  C   UNL     1      -2.060   4.091  25.011  0.00  0.00    +0.124 A 
ATOM     28  C   UNL     1      -2.382   4.841  25.132  0.00  0.00    +0.020 A 
ATOM     29  C   UNL     1      -1.892   5.504  25.134  0.00  0.00    -0.003 A 
ATOM     30  C   UNL     1      -1.080   5.418  25.017  0.00  0.00    -0.022 A 
ATOM     31  C   UNL     1      -0.590   6.080  25.019  0.00  0.00    +0.031 C 
ATOM     32  C   UNL     1      -0.758   4.668  24.896  0.00  0.00    -0.003 A 
ATOM     33  C   UNL     1      -1.248   4.003  24.894  0.00  0.00    +0.020 A 
ENDBRANCH  24  27
ENDBRANCH  23  24
ENDBRANCH  22  23
ENDBRANCH  21  22
TORSDOF 9
ENDMDL
MODEL 7
REMARK VINA RESULT:      -9.0      2.967      4.692
REMARK  Name = 
REMARK  9 active torsions:
REMARK  status: ('A' for Active; 'I' for Inactive)
REMARK    1  A    between atoms: C_2  and  C_4
REMARK    2  A    between atoms: C_6  and  C_7
REMARK    3  A    between atoms: C_7  and  C_8
REMARK    4  A    between atoms: N_10  and  C_11
REMARK    5  A    between atoms: C_11  and  C_12
REMARK    6  A    between atoms: C_21  and  C_22
REMARK    7  A    between atoms: C_22  and  N_23
REMARK    8  A    between atoms: N_23  and  S_24
REMARK    9  A    between atoms: S_24  and  C_27
REMARK                            x       y       z     vdW  Elec       q    Type
REMARK                         _______ _______ _______ _____ _____    ______ ____
ROOT
ATOM      4  C   UNL     1      -2.066   2.243  23.914  0.00  0.00    +0.006 C 
ATOM      5  C   UNL     1      -2.581   2.786  24.260  0.00  0.00    +0.005 C 
ATOM      6  C   UNL     1      -2.342   3.217  24.922  0.00  0.00    +0.027 C 
ATOM     18  C   UNL     1      -1.587   3.106  25.236  0.00  0.00    -0.048 C 
ATOM     19  C   UNL     1      -1.348   3.538  25.897  0.00  0.00    +0.026 C 
ATOM     20  C   UNL     1      -1.072   2.563  24.889  0.00  0.00    -0.033 C 
ATOM     21  C   UNL     1      -1.311   2.132  24.229  0.00  0.00    +0.041 C 
ENDROOT
BRANCH   4   2
ATOM      1  C   UNL     1      -2.664   1.075  23.349  0.00  0.00    +0.000 C 
ATOM      2  C   UNL     1      -2.305   1.812  23.253  0.00  0.00    +0.000 C 
ATOM      3  C   UNL     1      -2.186   2.117  22.495  0.00  0.00    +0.000 C 
ENDBRANCH   4   2
BRANCH   6   7
ATOM      7  C   UNL     1      -2.857   3.761  25.268  0.00  0.00    +0.091 C 
BRANCH   7   8
ATOM      8  C   UNL     1      -3.652   3.777  25.044  0.00  0.00    +0.242 C 
ATOM      9  O   UNL     1      -3.888   4.225  24.393  0.00  0.00    -0.273 OA
ATOM     10  N   UNL     1      -4.209   3.345  25.472  0.00  0.00    -0.200 NA
BRANCH  10  11
ATOM     11  C   UNL     1      -5.003   3.361  25.247  0.00  0.00    +0.143 C 
BRANCH  11  12
ATOM     12  C   UNL     1      -5.517   2.770  25.509  0.00  0.00    +0.019 A 
ATOM     13  C   UNL     1      -5.797   2.203  24.979  0.00  0.00    +0.001 A 
ATOM     14  C   UNL     1      -6.311   1.613  25.240  0.00  0.00    +0.020 A 
ATOM     15  C   UNL     1      -6.545   1.590  26.032  0.00  0.00    +0.099 A 
ATOM     16  N   UNL     1      -6.265   2.158  26.561  0.00  0.00    -0.243 NA
ATOM     17  C   UNL     1      -5.751   2.748  26.300  0.00  0.00    +0.096 A 
ENDBRANCH  11  12
ENDBRANCH  10  11
ENDBRANCH   7   8
ENDBRANCH   6   7
BRANCH  21  22
ATOM     22  C   UNL     1      -0.796   1.588  23.882  0.00  0.00    +0.120 C 
BRANCH  22  23
ATOM     23  N   UNL     1      -0.101   1.374  24.269  0.00  0.00    -0.077 NA
BRANCH  23  24
ATOM     24  S   UNL     1       0.529   1.058  23.842  0.00  0.00    +0.077 S 
ATOM     25  O   UNL     1       0.181   0.311  23.881  0.00  0.00    -0.152 OA
ATOM     26  O   UNL     1       0.878   1.804  23.802  0.00  0.00    -0.152 OA
BRANCH  24  27
ATOM     27  C   UNL     1       1.160   0.741  23.413  0.00  0.00    +0.124 A 
ATOM     28  C   UNL     1       1.045   0.073  22.943  0.00  0.00    +0.020 A 
ATOM     29  C   UNL     1       1.675  -0.243  22.515  0.00  0.00    -0.003 A 
ATOM     30  C   UNL     1       2.420   0.108  22.557  0.00  0.00    -0.022 A 
ATOM     31  C   UNL     1       3.050  -0.208  22.129  0.00  0.00    +0.031 C 
ATOM     32  C   UNL     1       2.535   0.776  23.027  0.00  0.00    -0.003 A 
ATOM     33  C   UNL     1       1.904   1.093  23.456  0.00  0.00    +0.020 A 
ENDBRANCH  24  27
ENDBRANCH  23  24
ENDBRANCH  22  23
ENDBRANCH  21  22
TORSDOF 9
ENDMDL
MODEL 8
REMARK VINA RESULT:      -8.7      3.437      5.818
REMARK  Name = 
REMARK  9 active torsions:
REMARK  status: ('A' for Active; 'I' for Inactive)
REMARK    1  A    between atoms: C_2  and  C_4
REMARK    2  A    between atoms: C_6  and  C_7
REMARK    3  A    between atoms: C_7  and  C_8
REMARK    4  A    between atoms: N_10  and  C_11
REMARK    5  A    between atoms: C_11  and  C_12
REMARK    6  A    between atoms: C_21  and  C_22
REMARK    7  A    between atoms: C_22  and  N_23
REMARK    8  A    between atoms: N_23  and  S_24
REMARK    9  A    between atoms: S_24  and  C_27
REMARK                            x       y       z     vdW  Elec       q    Type
REMARK                         _______ _______ _______ _____ _____    ______ ____
ROOT
ATOM      4  C   UNL     1      -1.129   1.047  24.688  0.00  0.00    +0.006 C 
ATOM      5  C   UNL     1      -1.945   1.153  24.745  0.00  0.00    +0.005 C 
ATOM      6  C   UNL     1      -2.384   1.333  24.071  0.00  0.00    +0.027 C 
ATOM     18  C   UNL     1      -2.008   1.407  23.340  0.00  0.00    -0.048 C 
ATOM     19  C   UNL     1      -2.448   1.588  22.666  0.00  0.00    +0.026 C 
ATOM     20  C   UNL     1      -1.192   1.302  23.284  0.00  0.00    -0.033 C 
ATOM     21  C   UNL     1      -0.752   1.122  23.958  0.00  0.00    +0.041 C 
ENDROOT
BRANCH   4   2
ATOM      1  C   UNL     1      -0.589   0.081  25.592  0.00  0.00    +0.000 C 
ATOM      2  C   UNL     1      -0.689   0.867  25.363  0.00  0.00    +0.000 C 
ATOM      3  C   UNL     1      -0.349   1.473  25.809  0.00  0.00    +0.000 C 
ENDBRANCH   4   2
BRANCH   6   7
ATOM      7  C   UNL     1      -3.201   1.439  24.127  0.00  0.00    +0.091 C 
BRANCH   7   8
ATOM      8  C   UNL     1      -3.661   0.890  24.539  0.00  0.00    +0.242 C 
ATOM      9  O   UNL     1      -4.038   1.111  25.238  0.00  0.00    -0.273 OA
ATOM     10  N   UNL     1      -3.742   0.122  24.249  0.00  0.00    -0.200 NA
BRANCH  10  11
ATOM     11  C   UNL     1      -4.202  -0.425  24.661  0.00  0.00    +0.143 C 
BRANCH  11  12
ATOM     12  C   UNL     1      -4.087  -1.234  24.539  0.00  0.00    +0.019 A 
ATOM     13  C   UNL     1      -3.688  -1.684  25.103  0.00  0.00    +0.001 A 
ATOM     14  C   UNL     1      -3.573  -2.492  24.981  0.00  0.00    +0.020 A 
ATOM     15  C   UNL     1      -3.859  -2.850  24.294  0.00  0.00    +0.099 A 
ATOM     16  N   UNL     1      -4.258  -2.399  23.730  0.00  0.00    -0.243 NA
ATOM     17  C   UNL     1      -4.372  -1.591  23.852  0.00  0.00    +0.096 A 
ENDBRANCH  11  12
ENDBRANCH  10  11
ENDBRANCH   7   8
ENDBRANCH   6   7
BRANCH  21  22
ATOM     22  C   UNL     1       0.064   1.016  23.903  0.00  0.00    +0.120 C 
BRANCH  22  23
ATOM     23  N   UNL     1       0.413   0.883  23.167  0.00  0.00    -0.077 NA
BRANCH  23  24
ATOM     24  S   UNL     1       1.227   0.760  23.113  0.00  0.00    +0.077 S 
ATOM     25  O   UNL     1       1.094  -0.010  22.850  0.00  0.00    -0.152 OA
ATOM     26  O   UNL     1       1.361   1.531  23.377  0.00  0.00    -0.152 OA
BRANCH  24  27
ATOM     27  C   UNL     1       2.041   0.638  23.059  0.00  0.00    +0.124 A 
ATOM     28  C   UNL     1       2.557   1.281  23.068  0.00  0.00    +0.020 A 
ATOM     29  C   UNL     1       3.370   1.159  23.014  0.00  0.00    -0.003 A 
ATOM     30  C   UNL     1       3.670   0.392  22.952  0.00  0.00    -0.022 A 
ATOM     31  C   UNL     1       4.483   0.269  22.898  0.00  0.00    +0.031 C 
ATOM     32  C   UNL     1       3.154  -0.252  22.943  0.00  0.00    -0.003 A 
ATOM     33  C   UNL     1       2.339  -0.129  22.997  0.00  0.00    +0.020 A 
ENDBRANCH  24  27
ENDBRANCH  23  24
ENDBRANCH  22  23
ENDBRANCH  21  22
TORSDOF 9
ENDMDL
