MODEL 1
REMARK VINA RESULT:      -9.5      0.000      0.000
REMARK  Name = 
REMARK  9 active torsions:
REMARK  status: ('A' for Active; 'I' for Inactive)
REMARK    1  A    between atoms: N_2  and  C_4
REMARK    2  A    between atoms: C_4  and  C_5
REMARK    3  A    between atoms: C_5  and  N_6
REMARK    4  A    between atoms: N_6  and  C_8
REMARK    5  A    between atoms: C_8  and  C_9
REMARK    6  A    between atoms: C_16  and  C_17
REMARK    7  A    between atoms: C_17  and  N_18
REMARK    8  A    between atoms: C_19  and  C_21
REMARK    9  A    between atoms: C_24  and  N_27
REMARK                            x       y       z     vdW  Elec       q    Type
REMARK                         _______ _______ _______ _____ _____    ______ ____
ROOT
ATOM      9  C   UNL     1      -2.853   3.534  25.411  0.00  0.00    +0.032 C 
ATOM     10  C   UNL     1      -2.707   2.956  24.911  0.00  0.00    +0.073 C 
ATOM     11  N   UNL     1      -3.426   3.105  25.288  0.00  0.00    -0.272 NA
ATOM     12  C   UNL     1      -3.290   3.950  25.893  0.00  0.00    +0.072 C 
ATOM     13  C   UNL     1      -3.523   4.389  26.317  0.00  0.00    +0.017 C 
ATOM     14  C   UNL     1      -3.561   3.673  25.778  0.00  0.00    +0.005 C 
ATOM     15  C   UNL     1      -4.334   3.260  25.740  0.00  0.00    +0.018 C 
ATOM     16  C   UNL     1      -4.233   2.680  25.254  0.00  0.00    +0.079 C 
ENDROOT
BRANCH   9   8
ATOM      8  C   UNL     1      -2.231   4.050  25.584  0.00  0.00    +0.074 C 
BRANCH   8   6
ATOM      6  N   UNL     1      -1.470   3.884  25.311  0.00  0.00    -0.270 NA
ATOM      7  C   UNL     1      -1.158   4.308  24.677  0.00  0.00    +0.090 C 
BRANCH   6   5
ATOM      5  C   UNL     1      -1.022   3.293  25.674  0.00  0.00    +0.090 C 
BRANCH   5   4
ATOM      4  C   UNL     1      -0.204   3.270  25.564  0.00  0.00    +0.090 C 
BRANCH   4   2
ATOM      1  C   UNL     1       0.408   2.529  26.620  0.00  0.00    +0.090 C 
ATOM      2  N   UNL     1       0.227   2.615  25.820  0.00  0.00    -0.269 NA
ATOM      3  C   UNL     1       0.478   2.048  25.276  0.00  0.00    +0.090 C 
ENDBRANCH   4   2
ENDBRANCH   5   4
ENDBRANCH   6   5
ENDBRANCH   8   6
ENDBRANCH   9   8
BRANCH  16  17
ATOM     17  C   UNL     1      -4.624   2.044  24.904  0.00  0.00    +0.131 C 
BRANCH  17  18
ATOM     18  N   UNL     1      -4.257   1.306  24.863  0.00  0.00    -0.200 NA
ATOM     19  C   UNL     1      -4.707   0.630  24.719  0.00  0.00    +0.265 C 
ATOM     20  O   UNL     1      -5.523   0.690  24.618  0.00  0.00    -0.268 OA
BRANCH  19  21
ATOM     21  C   UNL     1      -4.340  -0.108  24.678  0.00  0.00    +0.055 A 
ATOM     22  C   UNL     1      -4.017  -0.447  25.357  0.00  0.00    +0.006 A 
ATOM     23  C   UNL     1      -3.650  -1.185  25.316  0.00  0.00    +0.015 A 
ATOM     24  C   UNL     1      -3.607  -1.584  24.595  0.00  0.00    +0.048 A 
ATOM     25  C   UNL     1      -3.930  -1.245  23.915  0.00  0.00    +0.015 A 
ATOM     26  C   UNL     1      -4.296  -0.508  23.957  0.00  0.00    +0.006 A 
BRANCH  24  27
ATOM     27  N   UNL     1      -3.240  -2.322  24.552  0.00  0.00    -0.304 N 
ATOM     28  C   UNL     1      -2.417  -2.375  24.576  0.00  0.00    +0.112 C 
ATOM     29  C   UNL     1      -3.696  -3.006  24.486  0.00  0.00    +0.112 C 
ENDBRANCH  24  27
ENDBRANCH  19  21
ENDBRANCH  17  18
ENDBRANCH  16  17
TORSDOF 9
ENDMDL
MODEL 2
REMARK VINA RESULT:      -9.4      2.279      4.489
REMARK  Name = 
REMARK  9 active torsions:
REMARK  status: ('A' for Active; 'I' for Inactive)
REMARK    1  A    between atoms: N_2  and  C_4
REMARK    2  A    between atoms: C_4  and  C_5
REMARK    3  A    between atoms: C_5  and  N_6
REMARK    4  A    between atoms: N_6  and  C_8
REMARK    5  A    between atoms: C_8  and  C_9
REMARK    6  A    between atoms: C_16  and  C_17
REMARK    7  A    between atoms: C_17  and  N_18
REMARK    8  A    between atoms: C_19  and  C_21
REMARK    9  A    between atoms: C_24  and  N_27
REMARK                            x       y       z     vdW  Elec       q    Type
REMARK                         _______ _______ _______ _____ _____    ______ ____
ROOT
ATOM      9  C   UNL     1      -0.817  -0.603  24.370  0.00  0.00    +0.032 C 
ATOM     10  C   UNL     1      -1.240  -0.115  23.936  0.00  0.00    +0.073 C 
ATOM     11  N   UNL     1      -1.534  -0.670  24.472  0.00  0.00    -0.272 NA
ATOM     12  C   UNL     1      -0.709  -1.164  24.890  0.00  0.00    +0.072 C 
ATOM     13  C   UNL     1      -0.461  -1.612  25.296  0.00  0.00    +0.017 C 
ATOM     14  C   UNL     1      -1.113  -1.145  24.894  0.00  0.00    +0.005 C 
ATOM     15  C   UNL     1      -1.934  -1.349  25.129  0.00  0.00    +0.018 C 
ATOM     16  C   UNL     1      -2.384  -0.887  24.721  0.00  0.00    +0.079 C 
ENDROOT
BRANCH   9   8
ATOM      8  C   UNL     1       0.004  -0.565  24.290  0.00  0.00    +0.074 C 
BRANCH   8   6
ATOM      6  N   UNL     1       0.345   0.013  23.810  0.00  0.00    -0.270 NA
ATOM      7  C   UNL     1       0.192   0.810  23.953  0.00  0.00    +0.090 C 
BRANCH   6   5
ATOM      5  C   UNL     1       0.840  -0.208  23.187  0.00  0.00    +0.090 C 
BRANCH   5   4
ATOM      4  C   UNL     1       1.467   0.280  22.965  0.00  0.00    +0.090 C 
BRANCH   4   2
ATOM      1  C   UNL     1       2.828   0.118  22.565  0.00  0.00    +0.090 C 
ATOM      2  N   UNL     1       2.023   0.014  22.417  0.00  0.00    -0.269 NA
ATOM      3  C   UNL     1       1.774  -0.356  21.724  0.00  0.00    +0.090 C 
ENDBRANCH   4   2
ENDBRANCH   5   4
ENDBRANCH   6   5
ENDBRANCH   8   6
ENDBRANCH   9   8
BRANCH  16  17
ATOM     17  C   UNL     1      -3.175  -0.697  24.586  0.00  0.00    +0.131 C 
BRANCH  17  18
ATOM     18  N   UNL     1      -3.461   0.050  24.789  0.00  0.00    -0.200 NA
ATOM     19  C   UNL     1      -4.244   0.250  24.622  0.00  0.00    +0.265 C 
ATOM     20  O   UNL     1      -4.740  -0.295  24.252  0.00  0.00    -0.268 OA
BRANCH  19  21
ATOM     21  C   UNL     1      -4.530   0.997  24.825  0.00  0.00    +0.055 A 
ATOM     22  C   UNL     1      -4.212   1.671  24.471  0.00  0.00    +0.006 A 
ATOM     23  C   UNL     1      -4.498   2.418  24.674  0.00  0.00    +0.015 A 
ATOM     24  C   UNL     1      -5.102   2.490  25.232  0.00  0.00    +0.048 A 
ATOM     25  C   UNL     1      -5.419   1.816  25.586  0.00  0.00    +0.015 A 
ATOM     26  C   UNL     1      -5.133   1.070  25.383  0.00  0.00    +0.006 A 
BRANCH  24  27
ATOM     27  N   UNL     1      -5.388   3.237  25.436  0.00  0.00    -0.304 N 
ATOM     28  C   UNL     1      -4.901   3.899  25.363  0.00  0.00    +0.112 C 
ATOM     29  C   UNL     1      -6.161   3.321  25.712  0.00  0.00    +0.112 C 
ENDBRANCH  24  27
ENDBRANCH  19  21
ENDBRANCH  17  18
ENDBRANCH  16  17
TORSDOF 9
ENDMDL
MODEL 3
REMARK VINA RESULT:      -9.4      1.899      5.166
REMARK  Name = 
REMARK  9 active torsions:
REMARK  status: ('A' for Active; 'I' for Inactive)
REMARK    1  A    between atoms: N_2  and  C_4
REMARK    2  A    between atoms: C_4  and  C_5
REMARK    3  A    between atoms: C_5  and  N_6
REMARK    4  A    between atoms: N_6  and  C_8
REMARK    5  A    between atoms: C_8  and  C_9
REMARK    6  A    between atoms: C_16  and  C_17
REMARK    7  A    between atoms: C_17  and  N_18
REMARK    8  A    between atoms: C_19  and  C_21
REMARK    9  A    between atoms: C_24  and  N_27
REMARK                            x       y       z     vdW  Elec       q    Type
REMARK                         _______ _______ _______ _____ _____    ______ ____
ROOT
ATOM      9  C   UNL     1      -0.575   0.069  24.437  0.00  0.00    +0.032 C 
ATOM     10  C   UNL     1      -1.056   0.338  24.986  0.00  0.00    +0.073 C 
ATOM     11  N   UNL     1      -0.619   0.794  24.455  0.00  0.00    -0.272 NA
ATOM     12  C   UNL     1      -0.075   0.131  23.852  0.00  0.00    +0.072 C 
ATOM     13  C   UNL     1       0.347   0.022  23.365  0.00  0.00    +0.017 C 
ATOM     14  C   UNL     1      -0.149   0.523  23.920  0.00  0.00    +0.005 C 
ATOM     15  C   UNL     1      -0.090   1.392  23.811  0.00  0.00    +0.018 C 
ATOM     16  C   UNL     1      -0.553   1.697  24.336  0.00  0.00    +0.079 C 
ENDROOT
BRANCH   9   8
ATOM      8  C   UNL     1      -0.490  -0.751  24.377  0.00  0.00    +0.074 C 
BRANCH   8   6
ATOM      6  N   UNL     1      -0.929  -1.247  24.868  0.00  0.00    -0.270 NA
ATOM      7  C   UNL     1      -0.634  -1.460  25.609  0.00  0.00    +0.090 C 
BRANCH   6   5
ATOM      5  C   UNL     1      -1.663  -1.531  24.619  0.00  0.00    +0.090 C 
BRANCH   5   4
ATOM      4  C   UNL     1      -1.936  -2.261  24.889  0.00  0.00    +0.090 C 
BRANCH   4   2
ATOM      1  C   UNL     1      -2.774  -2.973  23.977  0.00  0.00    +0.090 C 
ATOM      2  N   UNL     1      -2.684  -2.530  24.667  0.00  0.00    -0.269 NA
ATOM      3  C   UNL     1      -3.341  -2.355  25.135  0.00  0.00    +0.090 C 
ENDBRANCH   4   2
ENDBRANCH   5   4
ENDBRANCH   6   5
ENDBRANCH   8   6
ENDBRANCH   9   8
BRANCH  16  17
ATOM     17  C   UNL     1      -0.830   2.417  24.625  0.00  0.00    +0.131 C 
BRANCH  17  18
ATOM     18  N   UNL     1      -1.636   2.525  24.763  0.00  0.00    -0.200 NA
ATOM     19  C   UNL     1      -1.927   3.276  24.942  0.00  0.00    +0.265 C 
ATOM     20  O   UNL     1      -1.412   3.919  24.984  0.00  0.00    -0.268 OA
BRANCH  19  21
ATOM     21  C   UNL     1      -2.733   3.383  25.079  0.00  0.00    +0.055 A 
ATOM     22  C   UNL     1      -2.996   3.623  25.824  0.00  0.00    +0.006 A 
ATOM     23  C   UNL     1      -3.803   3.730  25.961  0.00  0.00    +0.015 A 
ATOM     24  C   UNL     1      -4.346   3.599  25.354  0.00  0.00    +0.048 A 
ATOM     25  C   UNL     1      -4.082   3.359  24.610  0.00  0.00    +0.015 A 
ATOM     26  C   UNL     1      -3.277   3.252  24.473  0.00  0.00    +0.006 A 
BRANCH  24  27
ATOM     27  N   UNL     1      -5.152   3.706  25.491  0.00  0.00    -0.304 N 
ATOM     28  C   UNL     1      -5.630   3.057  25.668  0.00  0.00    +0.112 C 
ATOM     29  C   UNL     1      -5.481   4.462  25.450  0.00  0.00    +0.112 C 
ENDBRANCH  24  27
ENDBRANCH  19  21
ENDBRANCH  17  18
ENDBRANCH  16  17
TORSDOF 9
ENDMDL
MODEL 4
REMARK VINA RESULT:      -9.1      1.637      3.174
REMARK  Name = 
REMARK  9 active torsions:
REMARK  status: ('A' for Active; 'I' for Inactive)
REMARK    1  A    between atoms: N_2  and  C_4
REMARK    2  A    between atoms: C_4  and  C_5
REMARK    3  A    between atoms: C_5  and  N_6
REMARK    4  A    between atoms: N_6  and  C_8
REMARK    5  A    between atoms: C_8  and  C_9
REMARK    6  A    between atoms: C_16  and  C_17
REMARK    7  A    between atoms: C_17  and  N_18
REMARK    8  A    between atoms: C_19  and  C_21
REMARK    9  A    between atoms: C_24  and  N_27
REMARK                            x       y       z     vdW  Elec       q    Type
REMARK                         _______ _______ _______ _____ _____    ______ ____
ROOT
ATOM      9  C   UNL     1      -2.139   2.889  25.143  0.00  0.00    +0.032 C 
ATOM     10  C   UNL     1      -2.443   2.214  24.903  0.00  0.00    +0.073 C 
ATOM     11  N   UNL     1      -1.711   2.315  25.270  0.00  0.00    -0.272 NA
ATOM     12  C   UNL     1      -1.602   3.340  25.465  0.00  0.00    +0.072 C 
ATOM     13  C   UNL     1      -1.253   3.839  25.702  0.00  0.00    +0.017 C 
ATOM     14  C   UNL     1      -1.420   2.980  25.503  0.00  0.00    +0.005 C 
ATOM     15  C   UNL     1      -0.795   2.405  25.724  0.00  0.00    +0.018 C 
ATOM     16  C   UNL     1      -1.057   1.723  25.503  0.00  0.00    +0.079 C 
ENDROOT
BRANCH   9   8
ATOM      8  C   UNL     1      -2.589   3.570  25.020  0.00  0.00    +0.074 C 
BRANCH   8   6
ATOM      6  N   UNL     1      -3.353   3.511  24.714  0.00  0.00    -0.270 NA
ATOM      7  C   UNL     1      -3.468   3.456  23.900  0.00  0.00    +0.090 C 
BRANCH   6   5
ATOM      5  C   UNL     1      -4.002   3.506  25.224  0.00  0.00    +0.090 C 
BRANCH   5   4
ATOM      4  C   UNL     1      -4.755   3.677  24.935  0.00  0.00    +0.090 C 
BRANCH   4   2
ATOM      1  C   UNL     1      -5.772   4.379  25.652  0.00  0.00    +0.090 C 
ATOM      2  N   UNL     1      -5.404   3.670  25.444  0.00  0.00    -0.269 NA
ATOM      3  C   UNL     1      -5.685   2.956  25.745  0.00  0.00    +0.090 C 
ENDBRANCH   4   2
ENDBRANCH   5   4
ENDBRANCH   6   5
ENDBRANCH   8   6
ENDBRANCH   9   8
BRANCH  16  17
ATOM     17  C   UNL     1      -0.863   0.922  25.486  0.00  0.00    +0.131 C 
BRANCH  17  18
ATOM     18  N   UNL     1      -1.432   0.363  25.274  0.00  0.00    -0.200 NA
ATOM     19  C   UNL     1      -1.273  -0.441  25.362  0.00  0.00    +0.265 C 
ATOM     20  O   UNL     1      -0.544  -0.688  25.661  0.00  0.00    -0.268 OA
BRANCH  19  21
ATOM     21  C   UNL     1      -1.842  -1.000  25.150  0.00  0.00    +0.055 A 
ATOM     22  C   UNL     1      -2.547  -1.053  25.576  0.00  0.00    +0.006 A 
ATOM     23  C   UNL     1      -3.116  -1.611  25.365  0.00  0.00    +0.015 A 
ATOM     24  C   UNL     1      -2.980  -2.117  24.727  0.00  0.00    +0.048 A 
ATOM     25  C   UNL     1      -2.276  -2.064  24.301  0.00  0.00    +0.015 A 
ATOM     26  C   UNL     1      -1.707  -1.506  24.512  0.00  0.00    +0.006 A 
BRANCH  24  27
ATOM     27  N   UNL     1      -3.549  -2.676  24.515  0.00  0.00    -0.304 N 
ATOM     28  C   UNL     1      -3.520  -3.435  24.836  0.00  0.00    +0.112 C 
ATOM     29  C   UNL     1      -4.146  -2.475  23.982  0.00  0.00    +0.112 C 
ENDBRANCH  24  27
ENDBRANCH  19  21
ENDBRANCH  17  18
ENDBRANCH  16  17
TORSDOF 9
ENDMDL
MODEL 5
REMARK VINA RESULT:      -9.0      2.348      4.065
REMARK  Name = 
REMARK  9 active torsions:
REMARK  status: ('A' for Active; 'I' for Inactive)
REMARK    1  A    between atoms: N_2  and  C_4
REMARK    2  A    between atoms: C_4  and  C_5
REMARK    3  A    between atoms: C_5  and  N_6
REMARK    4  A    between atoms: N_6  and  C_8
REMARK    5  A    between atoms: C_8  and  C_9
REMARK    6  A    between atoms: C_16  and  C_17
REMARK    7  A    between atoms: C_17  and  N_18
REMARK    8  A    between atoms: C_19  and  C_21
REMARK    9  A    between atoms: C_24  and  N_27
REMARK                            x       y       z     vdW  Elec       q    Type
REMARK                         _______ _______ _______ _____ _____    ______ ____
ROOT
ATOM      9  C   UNL     1      -0.255   1.915  24.557  0.00  0.00    +0.032 C 
ATOM     10  C   UNL     1      -0.830   1.859  24.036  0.00  0.00    +0.073 C 
ATOM     11  N   UNL     1      -0.781   2.407  24.651  0.00  0.00    -0.272 NA
ATOM     12  C   UNL     1       0.111   2.215  25.167  0.00  0.00    +0.072 C 
ATOM     13  C   UNL     1       0.529   2.353  25.649  0.00  0.00    +0.017 C 
ATOM     14  C   UNL     1      -0.214   2.456  25.158  0.00  0.00    +0.005 C 
ATOM     15  C   UNL     1      -0.753   3.103  25.404  0.00  0.00    +0.018 C 
ATOM     16  C   UNL     1      -1.337   3.082  24.913  0.00  0.00    +0.079 C 
ENDROOT
BRANCH   9   8
ATOM      8  C   UNL     1       0.367   1.376  24.492  0.00  0.00    +0.074 C 
BRANCH   8   6
ATOM      6  N   UNL     1       0.317   0.751  23.955  0.00  0.00    -0.270 NA
ATOM      7  C   UNL     1      -0.261   0.171  24.050  0.00  0.00    +0.090 C 
BRANCH   6   5
ATOM      5  C   UNL     1       0.846   0.707  23.323  0.00  0.00    +0.090 C 
BRANCH   5   4
ATOM      4  C   UNL     1       1.190  -0.016  23.122  0.00  0.00    +0.090 C 
BRANCH   4   2
ATOM      1  C   UNL     1       1.554  -0.315  21.774  0.00  0.00    +0.090 C 
ATOM      2  N   UNL     1       1.761  -0.050  22.528  0.00  0.00    -0.269 NA
ATOM      3  C   UNL     1       2.536   0.181  22.686  0.00  0.00    +0.090 C 
ENDBRANCH   4   2
ENDBRANCH   5   4
ENDBRANCH   6   5
ENDBRANCH   8   6
ENDBRANCH   9   8
BRANCH  16  17
ATOM     17  C   UNL     1      -2.050   3.452  24.728  0.00  0.00    +0.131 C 
BRANCH  17  18
ATOM     18  N   UNL     1      -2.766   3.087  24.914  0.00  0.00    -0.200 NA
ATOM     19  C   UNL     1      -3.478   3.452  24.717  0.00  0.00    +0.265 C 
ATOM     20  O   UNL     1      -3.476   4.182  24.333  0.00  0.00    -0.268 OA
BRANCH  19  21
ATOM     21  C   UNL     1      -4.194   3.087  24.904  0.00  0.00    +0.055 A 
ATOM     22  C   UNL     1      -4.443   2.424  24.479  0.00  0.00    +0.006 A 
ATOM     23  C   UNL     1      -5.158   2.059  24.666  0.00  0.00    +0.015 A 
ATOM     24  C   UNL     1      -5.626   2.356  25.277  0.00  0.00    +0.048 A 
ATOM     25  C   UNL     1      -5.378   3.019  25.701  0.00  0.00    +0.015 A 
ATOM     26  C   UNL     1      -4.663   3.384  25.515  0.00  0.00    +0.006 A 
BRANCH  24  27
ATOM     27  N   UNL     1      -6.342   1.991  25.464  0.00  0.00    -0.304 N 
ATOM     28  C   UNL     1      -6.846   1.739  24.861  0.00  0.00    +0.112 C 
ATOM     29  C   UNL     1      -6.554   1.879  26.253  0.00  0.00    +0.112 C 
ENDBRANCH  24  27
ENDBRANCH  19  21
ENDBRANCH  17  18
ENDBRANCH  16  17
TORSDOF 9
ENDMDL
MODEL 6
REMARK VINA RESULT:      -9.0      2.841      4.821
REMARK  Name = 
REMARK  9 active torsions:
REMARK  status: ('A' for Active; 'I' for Inactive)
REMARK    1  A    between atoms: N_2  and  C_4
REMARK    2  A    between atoms: C_4  and  C_5
REMARK    3  A    between atoms: C_5  and  N_6
REMARK    4  A    between atoms: N_6  and  C_8
REMARK    5  A    between atoms: C_8  and  C_9
REMARK    6  A    between atoms: C_16  and  C_17
REMARK    7  A    between atoms: C_17  and  N_18
REMARK    8  A    between atoms: C_19  and  C_21
REMARK    9  A    between atoms: C_24  and  N_27
REMARK                            x       y       z     vdW  Elec       q    Type
REMARK                         _______ _______ _______ _____ _____    ______ ____
ROOT
ATOM      9  C   UNL     1       0.322   0.251  23.500  0.00  0.00    +0.032 C 
ATOM     10  C   UNL     1       0.375   0.952  23.165  0.00  0.00    +0.073 C 
ATOM     11  N   UNL     1      -0.216   0.704  23.686  0.00  0.00    -0.272 NA
ATOM     12  C   UNL     1       0.003  -0.286  23.954  0.00  0.00    +0.072 C 
ATOM     13  C   UNL     1      -0.142  -0.829  24.286  0.00  0.00    +0.017 C 
ATOM     14  C   UNL     1      -0.261   0.016  24.011  0.00  0.00    +0.005 C 
ATOM     15  C   UNL     1      -0.965   0.430  24.331  0.00  0.00    +0.018 C 
ATOM     16  C   UNL     1      -0.950   1.128  24.023  0.00  0.00    +0.079 C 
ENDROOT
BRANCH   9   8
ATOM      8  C   UNL     1       0.911  -0.299  23.320  0.00  0.00    +0.074 C 
BRANCH   8   6
ATOM      6  N   UNL     1       1.489  -0.116  22.761  0.00  0.00    -0.270 NA
ATOM      7  C   UNL     1       1.327  -0.202  21.957  0.00  0.00    +0.090 C 
BRANCH   6   5
ATOM      5  C   UNL     1       2.229   0.153  23.007  0.00  0.00    +0.090 C 
BRANCH   5   4
ATOM      4  C   UNL     1       2.892   0.029  22.530  0.00  0.00    +0.090 C 
BRANCH   4   2
ATOM      1  C   UNL     1       4.084  -0.286  23.251  0.00  0.00    +0.090 C 
ATOM      2  N   UNL     1       3.641   0.245  22.802  0.00  0.00    -0.269 NA
ATOM      3  C   UNL     1       3.945   0.991  22.624  0.00  0.00    +0.090 C 
ENDBRANCH   4   2
ENDBRANCH   5   4
ENDBRANCH   6   5
ENDBRANCH   8   6
ENDBRANCH   9   8
BRANCH  16  17
ATOM     17  C   UNL     1      -1.358   1.845  24.005  0.00  0.00    +0.131 C 
BRANCH  17  18
ATOM     18  N   UNL     1      -2.120   1.894  24.317  0.00  0.00    -0.200 NA
ATOM     19  C   UNL     1      -2.542   2.600  24.263  0.00  0.00    +0.265 C 
ATOM     20  O   UNL     1      -2.203   3.258  23.898  0.00  0.00    -0.268 OA
BRANCH  19  21
ATOM     21  C   UNL     1      -3.304   2.650  24.575  0.00  0.00    +0.055 A 
ATOM     22  C   UNL     1      -3.440   3.076  25.268  0.00  0.00    +0.006 A 
ATOM     23  C   UNL     1      -4.203   3.125  25.580  0.00  0.00    +0.015 A 
ATOM     24  C   UNL     1      -4.829   2.748  25.198  0.00  0.00    +0.048 A 
ATOM     25  C   UNL     1      -4.693   2.322  24.505  0.00  0.00    +0.015 A 
ATOM     26  C   UNL     1      -3.932   2.272  24.194  0.00  0.00    +0.006 A 
BRANCH  24  27
ATOM     27  N   UNL     1      -5.592   2.797  25.509  0.00  0.00    -0.304 N 
ATOM     28  C   UNL     1      -5.926   3.534  25.668  0.00  0.00    +0.112 C 
ATOM     29  C   UNL     1      -6.020   2.109  25.662  0.00  0.00    +0.112 C 
ENDBRANCH  24  27
ENDBRANCH  19  21
ENDBRANCH  17  18
ENDBRANCH  16  17
TORSDOF 9
ENDMDL
MODEL 7
REMARK VINA RESULT:      -8.9      3.743      6.256
REMARK  Name = 
REMARK  9 active torsions:
REMARK  status: ('A' for Active; 'I' for Inactive)
REMARK    1  A    between atoms: N_2  and  C_4
REMARK    2  A    between atoms: C_4  and  C_5
REMARK    3  A    between atoms: C_5  and  N_6
REMARK    4  A    between atoms: N_6  and  C_8
REMARK    5  A    between atoms: C_8  and  C_9
REMARK    6  A    between atoms: C_16  and  C_17
REMARK    7  A    between atoms: C_17  and  N_18
REMARK    8  A    between atoms: C_19  and  C_21
REMARK    9  A    between atoms: C_24  and  N_27
REMARK                            x       y       z     vdW  Elec       q    Type
REMARK                         _______ _______ _______ _____ _____    ______ ____
ROOT
ATOM      9  C   UNL     1      -0.961   0.667  24.329  0.00  0.00    +0.032 C 
ATOM     10  C   UNL     1      -0.673   1.190  23.830  0.00  0.00    +0.073 C 
ATOM     11  N   UNL     1      -0.413   0.413  23.926  0.00  0.00    -0.272 NA
ATOM     12  C   UNL     1      -1.006  -0.023  24.673  0.00  0.00    +0.072 C 
ATOM     13  C   UNL     1      -1.164  -0.536  25.046  0.00  0.00    +0.017 C 
ATOM     14  C   UNL     1      -0.700  -0.094  24.417  0.00  0.00    +0.005 C 
ATOM     15  C   UNL     1      -0.064  -0.548  24.018  0.00  0.00    +0.018 C 
ATOM     16  C   UNL     1       0.247  -0.065  23.515  0.00  0.00    +0.079 C 
ENDROOT
BRANCH   9   8
ATOM      8  C   UNL     1      -1.587   0.909  24.811  0.00  0.00    +0.074 C 
BRANCH   8   6
ATOM      6  N   UNL     1      -1.857   1.688  24.776  0.00  0.00    -0.270 NA
ATOM      7  C   UNL     1      -1.391   2.300  25.074  0.00  0.00    +0.090 C 
BRANCH   6   5
ATOM      5  C   UNL     1      -2.593   1.855  24.443  0.00  0.00    +0.090 C 
BRANCH   5   4
ATOM      4  C   UNL     1      -3.123   2.349  24.839  0.00  0.00    +0.090 C 
BRANCH   4   2
ATOM      1  C   UNL     1      -3.977   3.012  23.905  0.00  0.00    +0.090 C 
ATOM      2  N   UNL     1      -3.875   2.479  24.528  0.00  0.00    -0.269 NA
ATOM      3  C   UNL     1      -4.526   2.079  24.838  0.00  0.00    +0.090 C 
ENDBRANCH   4   2
ENDBRANCH   5   4
ENDBRANCH   6   5
ENDBRANCH   8   6
ENDBRANCH   9   8
BRANCH  16  17
ATOM     17  C   UNL     1       0.835  -0.009  22.939  0.00  0.00    +0.131 C 
BRANCH  17  18
ATOM     18  N   UNL     1       1.628   0.036  23.161  0.00  0.00    -0.200 NA
ATOM     19  C   UNL     1       2.218   0.017  22.586  0.00  0.00    +0.265 C 
ATOM     20  O   UNL     1       2.016  -0.046  21.788  0.00  0.00    -0.268 OA
BRANCH  19  21
ATOM     21  C   UNL     1       3.012   0.062  22.808  0.00  0.00    +0.055 A 
ATOM     22  C   UNL     1       3.384  -0.594  23.143  0.00  0.00    +0.006 A 
ATOM     23  C   UNL     1       4.178  -0.550  23.365  0.00  0.00    +0.015 A 
ATOM     24  C   UNL     1       4.599   0.151  23.252  0.00  0.00    +0.048 A 
ATOM     25  C   UNL     1       4.226   0.807  22.917  0.00  0.00    +0.015 A 
ATOM     26  C   UNL     1       3.434   0.762  22.695  0.00  0.00    +0.006 A 
BRANCH  24  27
ATOM     27  N   UNL     1       5.392   0.196  23.473  0.00  0.00    -0.304 N 
ATOM     28  C   UNL     1       5.605   0.597  24.163  0.00  0.00    +0.112 C 
ATOM     29  C   UNL     1       5.972  -0.158  23.006  0.00  0.00    +0.112 C 
ENDBRANCH  24  27
ENDBRANCH  19  21
ENDBRANCH  17  18
ENDBRANCH  16  17
TORSDOF 9
ENDMDL
MODEL 8
REMARK VINA RESULT:      -8.9      1.358      4.989
REMARK  Name = 
REMARK  9 active torsions:
REMARK  status: ('A' for Active; 'I' for Inactive)
REMARK    1  A    between atoms: N_2  and  C_4
REMARK    2  A    between atoms: C_4  and  C_5
REMARK    3  A    between atoms: C_5  and  N_6
REMARK    4  A    between atoms: N_6  and  C_8
REMARK    5  A    between atoms: C_8  and  C_9
REMARK    6  A    between atoms: C_16  and  C_17
REMARK    7  A    between atoms: C_17  and  N_18
REMARK    8  A    between atoms: C_19  and  C_21
REMARK    9  A    between atoms: C_24  and  N_27
REMARK                            x       y       z     vdW  Elec       q    Type
REMARK                         _______ _______ _______ _____ _____    ______ ____
ROOT
ATOM      9  C   UNL     1      -3.744  -0.656  24.909  0.00  0.00    +0.032 C 
ATOM     10  C   UNL     1      -3.429  -0.181  25.439  0.00  0.00    +0.073 C 
ATOM     11  N   UNL     1      -4.053   0.002  24.930  0.00  0.00    -0.272 NA
ATOM     12  C   UNL     1      -4.235  -0.849  24.346  0.00  0.00    +0.072 C 
ATOM     13  C   UNL     1      -4.572  -1.155  23.876  0.00  0.00    +0.017 C 
ATOM     14  C   UNL     1      -4.356  -0.469  24.413  0.00  0.00    +0.005 C 
ATOM     15  C   UNL     1      -4.830   0.263  24.313  0.00  0.00    +0.018 C 
ATOM     16  C   UNL     1      -4.550   0.759  24.821  0.00  0.00    +0.079 C 
ENDROOT
BRANCH   9   8
ATOM      8  C   UNL     1      -3.426  -1.415  24.846  0.00  0.00    +0.074 C 
BRANCH   8   6
ATOM      6  N   UNL     1      -2.766  -1.625  25.296  0.00  0.00    -0.270 NA
ATOM      7  C   UNL     1      -2.866  -1.994  26.026  0.00  0.00    +0.090 C 
BRANCH   6   5
ATOM      5  C   UNL     1      -2.008  -1.464  25.014  0.00  0.00    +0.090 C 
BRANCH   5   4
ATOM      4  C   UNL     1      -1.421  -2.043  25.057  0.00  0.00    +0.090 C 
BRANCH   4   2
ATOM      1  C   UNL     1      -0.040  -2.135  25.409  0.00  0.00    +0.090 C 
ATOM      2  N   UNL     1      -0.633  -1.842  24.917  0.00  0.00    -0.269 NA
ATOM      3  C   UNL     1      -0.439  -1.349  24.285  0.00  0.00    +0.090 C 
ENDBRANCH   4   2
ENDBRANCH   5   4
ENDBRANCH   6   5
ENDBRANCH   8   6
ENDBRANCH   9   8
BRANCH  16  17
ATOM     17  C   UNL     1      -4.643   1.528  25.103  0.00  0.00    +0.131 C 
BRANCH  17  18
ATOM     18  N   UNL     1      -4.017   2.064  25.057  0.00  0.00    -0.200 NA
ATOM     19  C   UNL     1      -4.119   2.840  25.316  0.00  0.00    +0.265 C 
ATOM     20  O   UNL     1      -4.846   3.081  25.622  0.00  0.00    -0.268 OA
BRANCH  19  21
ATOM     21  C   UNL     1      -3.493   3.375  25.270  0.00  0.00    +0.055 A 
ATOM     22  C   UNL     1      -3.244   3.657  24.535  0.00  0.00    +0.006 A 
ATOM     23  C   UNL     1      -2.618   4.192  24.488  0.00  0.00    +0.015 A 
ATOM     24  C   UNL     1      -2.241   4.446  25.177  0.00  0.00    +0.048 A 
ATOM     25  C   UNL     1      -2.490   4.165  25.911  0.00  0.00    +0.015 A 
ATOM     26  C   UNL     1      -3.115   3.630  25.958  0.00  0.00    +0.006 A 
BRANCH  24  27
ATOM     27  N   UNL     1      -1.615   4.982  25.131  0.00  0.00    -0.304 N 
ATOM     28  C   UNL     1      -0.840   4.705  25.059  0.00  0.00    +0.112 C 
ATOM     29  C   UNL     1      -1.762   5.793  25.157  0.00  0.00    +0.112 C 
ENDBRANCH  24  27
ENDBRANCH  19  21
ENDBRANCH  17  18
ENDBRANCH  16  17
TORSDOF 9
ENDMDL
