MODEL 1
REMARK VINA RESULT:     -10.3      0.000      0.000
REMARK  Name = 
REMARK  9 active torsions:
REMARK  status: ('A' for Active; 'I' for Inactive)
REMARK    1  A    between atoms: O_2  and  C_3
REMARK    2  A    between atoms: C_3  and  C_4
REMARK    3  A    between atoms: C_11  and  C_12
REMARK    4  A    between atoms: N_14  and  C_15
REMARK    5  A    between atoms: C_15  and  C_16
REMARK    6  A    between atoms: C_15  and  C_23
REMARK    7  A    between atoms: C_16  and  C_17
REMARK    8  A    between atoms: C_23  and  O_25
REMARK    9  A    between atoms: C_27  and  C_29
REMARK                            x       y       z     vdW  Elec       q    Type
REMARK                         _______ _______ _______ _____ _____    ______ ____
ROOT
ATOM      4  C   UNL     1       0.101   0.131  23.764  0.00  0.00    +0.256 C 
ATOM      5  O   UNL     1       0.536  -0.455  23.379  0.00  0.00    -0.272 OA
ATOM      6  N   UNL     1      -0.658  -0.034  24.042  0.00  0.00    -0.268 N 
ATOM      7  C   UNL     1      -0.981  -0.786  23.936  0.00  0.00    +0.115 C 
ATOM      8  C   UNL     1      -1.740  -0.951  24.214  0.00  0.00    +0.115 C 
ATOM      9  N   UNL     1      -2.176  -0.365  24.599  0.00  0.00    -0.272 N 
ATOM     10  C   UNL     1      -1.851   0.386  24.705  0.00  0.00    +0.123 C 
ATOM     11  C   UNL     1      -1.093   0.552  24.427  0.00  0.00    +0.174 C 
ATOM     27  C   UNL     1      -2.934  -0.530  24.877  0.00  0.00    +0.249 C 
ATOM     28  O   UNL     1      -3.369   0.056  25.262  0.00  0.00    -0.270 OA
ENDROOT
BRANCH  27  29
ATOM     29  C   UNL     1      -3.258  -1.282  24.771  0.00  0.00    +0.056 A 
ATOM     30  C   UNL     1      -3.091  -1.882  25.311  0.00  0.00    +0.005 A 
ATOM     31  C   UNL     1      -3.415  -2.634  25.205  0.00  0.00    +0.002 A 
ATOM     32  C   UNL     1      -3.905  -2.784  24.559  0.00  0.00    +0.030 A 
ATOM     33  C   UNL     1      -4.072  -2.183  24.019  0.00  0.00    +0.140 A 
ATOM     34  F   UNL     1      -4.563  -2.333  23.372  0.00  0.00    -0.204 F 
ATOM     35  C   UNL     1      -3.748  -1.432  24.125  0.00  0.00    +0.034 A 
ENDBRANCH  27  29
BRANCH  11  12
ATOM     12  C   UNL     1      -0.769   1.302  24.533  0.00  0.00    +0.262 C 
ATOM     13  O   UNL     1      -0.286   1.631  23.950  0.00  0.00    -0.271 OA
ATOM     14  N   UNL     1      -0.929   1.726  25.222  0.00  0.00    -0.194 NA
BRANCH  14  15
ATOM     15  C   UNL     1      -0.605   2.478  25.329  0.00  0.00    +0.198 C 
BRANCH  15  23
ATOM     23  C   UNL     1      -0.052   2.608  25.928  0.00  0.00    +0.337 C 
ATOM     24  O   UNL     1       0.627   3.050  25.772  0.00  0.00    -0.248 OA
BRANCH  23  25
ATOM     25  O   UNL     1      -0.177   2.295  26.681  0.00  0.00    -0.443 OA
ATOM     26  C   UNL     1       0.409   2.360  27.257  0.00  0.00    +0.256 C 
ENDBRANCH  23  25
ENDBRANCH  15  23
BRANCH  15  16
ATOM     16  C   UNL     1      -0.835   3.100  24.838  0.00  0.00    +0.061 C 
BRANCH  16  17
ATOM     17  C   UNL     1      -1.401   3.643  25.095  0.00  0.00    -0.001 A 
ATOM     18  C   UNL     1      -1.233   4.450  25.085  0.00  0.00    -0.001 A 
ATOM     19  C   UNL     1      -1.799   4.992  25.342  0.00  0.00    +0.020 A 
ATOM     20  C   UNL     1      -2.533   4.726  25.610  0.00  0.00    +0.099 A 
ATOM     21  N   UNL     1      -2.701   3.919  25.620  0.00  0.00    -0.243 NA
ATOM     22  C   UNL     1      -2.135   3.377  25.363  0.00  0.00    +0.095 A 
ENDBRANCH  16  17
ENDBRANCH  15  16
ENDBRANCH  14  15
ENDBRANCH  11  12
BRANCH   4   3
ATOM      3  C   UNL     1       0.425   0.882  23.870  0.00  0.00    +0.227 C 
BRANCH   3   2
ATOM      1  C   UNL     1       1.817   0.838  23.549  0.00  0.00    +0.175 C 
ATOM      2  O   UNL     1       1.059   1.128  23.403  0.00  0.00    -0.342 OA
ENDBRANCH   3   2
ENDBRANCH   4   3
TORSDOF 9
ENDMDL
MODEL 2
REMARK VINA RESULT:      -9.6      2.257      3.870
REMARK  Name = 
REMARK  9 active torsions:
REMARK  status: ('A' for Active; 'I' for Inactive)
REMARK    1  A    between atoms: O_2  and  C_3
REMARK    2  A    between atoms: C_3  and  C_4
REMARK    3  A    between atoms: C_11  and  C_12
REMARK    4  A    between atoms: N_14  and  C_15
REMARK    5  A    between atoms: C_15  and  C_16
REMARK    6  A    between atoms: C_15  and  C_23
REMARK    7  A    between atoms: C_16  and  C_17
REMARK    8  A    between atoms: C_23  and  O_25
REMARK    9  A    between atoms: C_27  and  C_29
REMARK                            x       y       z     vdW  Elec       q    Type
REMARK                         _______ _______ _______ _____ _____    ______ ____
ROOT
ATOM      4  C   UNL     1      -5.447   1.776  25.588  0.00  0.00    +0.256 C 
ATOM      5  O   UNL     1      -6.202   1.535  25.822  0.00  0.00    -0.272 OA
ATOM      6  N   UNL     1      -4.905   1.220  25.310  0.00  0.00    -0.268 N 
ATOM      7  C   UNL     1      -5.117   0.424  25.266  0.00  0.00    +0.115 C 
ATOM      8  C   UNL     1      -4.574  -0.132  24.988  0.00  0.00    +0.115 C 
ATOM      9  N   UNL     1      -3.820   0.108  24.754  0.00  0.00    -0.272 N 
ATOM     10  C   UNL     1      -3.609   0.904  24.799  0.00  0.00    +0.123 C 
ATOM     11  C   UNL     1      -4.152   1.460  25.077  0.00  0.00    +0.174 C 
ATOM     27  C   UNL     1      -3.278  -0.447  24.476  0.00  0.00    +0.249 C 
ATOM     28  O   UNL     1      -2.524  -0.207  24.243  0.00  0.00    -0.270 OA
ENDROOT
BRANCH  27  29
ATOM     29  C   UNL     1      -3.489  -1.244  24.432  0.00  0.00    +0.056 A 
ATOM     30  C   UNL     1      -3.905  -1.524  23.777  0.00  0.00    +0.005 A 
ATOM     31  C   UNL     1      -4.116  -2.321  23.732  0.00  0.00    +0.002 A 
ATOM     32  C   UNL     1      -3.912  -2.837  24.343  0.00  0.00    +0.030 A 
ATOM     33  C   UNL     1      -3.496  -2.555  24.998  0.00  0.00    +0.140 A 
ATOM     34  F   UNL     1      -3.291  -3.072  25.609  0.00  0.00    -0.204 F 
ATOM     35  C   UNL     1      -3.285  -1.760  25.042  0.00  0.00    +0.034 A 
ENDBRANCH  27  29
BRANCH  11  12
ATOM     12  C   UNL     1      -3.940   2.256  25.121  0.00  0.00    +0.262 C 
ATOM     13  O   UNL     1      -4.242   2.731  25.725  0.00  0.00    -0.271 OA
ATOM     14  N   UNL     1      -3.426   2.578  24.561  0.00  0.00    -0.194 NA
BRANCH  14  15
ATOM     15  C   UNL     1      -3.214   3.375  24.606  0.00  0.00    +0.198 C 
BRANCH  15  23
ATOM     23  C   UNL     1      -3.496   3.908  24.042  0.00  0.00    +0.337 C 
ATOM     24  O   UNL     1      -3.706   4.673  24.267  0.00  0.00    -0.248 OA
BRANCH  23  25
ATOM     25  O   UNL     1      -3.566   3.676  23.253  0.00  0.00    -0.443 OA
ATOM     26  C   UNL     1      -3.988   4.144  22.722  0.00  0.00    +0.256 C 
ENDBRANCH  23  25
ENDBRANCH  15  23
BRANCH  15  16
ATOM     16  C   UNL     1      -2.722   3.638  25.213  0.00  0.00    +0.061 C 
BRANCH  16  17
ATOM     17  C   UNL     1      -1.916   3.746  25.073  0.00  0.00    -0.001 A 
ATOM     18  C   UNL     1      -1.577   4.491  25.174  0.00  0.00    -0.001 A 
ATOM     19  C   UNL     1      -0.771   4.599  25.034  0.00  0.00    +0.020 A 
ATOM     20  C   UNL     1      -0.305   3.963  24.794  0.00  0.00    +0.099 A 
ATOM     21  N   UNL     1      -0.644   3.218  24.693  0.00  0.00    -0.243 NA
ATOM     22  C   UNL     1      -1.449   3.110  24.832  0.00  0.00    +0.095 A 
ENDBRANCH  16  17
ENDBRANCH  15  16
ENDBRANCH  14  15
ENDBRANCH  11  12
BRANCH   4   3
ATOM      3  C   UNL     1      -5.237   2.572  25.633  0.00  0.00    +0.227 C 
BRANCH   3   2
ATOM      1  C   UNL     1      -6.279   3.544  25.738  0.00  0.00    +0.175 C 
ATOM      2  O   UNL     1      -5.685   3.093  26.089  0.00  0.00    -0.342 OA
ENDBRANCH   3   2
ENDBRANCH   4   3
TORSDOF 9
ENDMDL
MODEL 3
REMARK VINA RESULT:      -9.2      2.037      2.859
REMARK  Name = 
REMARK  9 active torsions:
REMARK  status: ('A' for Active; 'I' for Inactive)
REMARK    1  A    between atoms: O_2  and  C_3
REMARK    2  A    between atoms: C_3  and  C_4
REMARK    3  A    between atoms: C_11  and  C_12
REMARK    4  A    between atoms: N_14  and  C_15
REMARK    5  A    between atoms: C_15  and  C_16
REMARK    6  A    between atoms: C_15  and  C_23
REMARK    7  A    between atoms: C_16  and  C_17
REMARK    8  A    between atoms: C_23  and  O_25
REMARK    9  A    between atoms: C_27  and  C_29
REMARK                            x       y       z     vdW  Elec       q    Type
REMARK                         _______ _______ _______ _____ _____    ______ ____
ROOT
ATOM      4  C   UNL     1      -1.241   1.124  24.961  0.00  0.00    +0.256 C 
ATOM      5  O   UNL     1      -0.473   0.822  24.992  0.00  0.00    -0.272 OA
ATOM      6  N   UNL     1      -1.883   0.612  24.881  0.00  0.00    -0.268 N 
ATOM      7  C   UNL     1      -1.758  -0.202  24.832  0.00  0.00    +0.115 C 
ATOM      8  C   UNL     1      -2.400  -0.713  24.752  0.00  0.00    +0.115 C 
ATOM      9  N   UNL     1      -3.167  -0.411  24.721  0.00  0.00    -0.272 N 
ATOM     10  C   UNL     1      -3.291   0.403  24.771  0.00  0.00    +0.123 C 
ATOM     11  C   UNL     1      -2.649   0.915  24.851  0.00  0.00    +0.174 C 
ATOM     27  C   UNL     1      -3.809  -0.922  24.641  0.00  0.00    +0.249 C 
ATOM     28  O   UNL     1      -4.576  -0.620  24.611  0.00  0.00    -0.270 OA
ENDROOT
BRANCH  27  29
ATOM     29  C   UNL     1      -3.684  -1.736  24.592  0.00  0.00    +0.056 A 
ATOM     30  C   UNL     1      -3.700  -2.111  23.857  0.00  0.00    +0.005 A 
ATOM     31  C   UNL     1      -3.576  -2.926  23.808  0.00  0.00    +0.002 A 
ATOM     32  C   UNL     1      -3.435  -3.364  24.492  0.00  0.00    +0.030 A 
ATOM     33  C   UNL     1      -3.420  -2.988  25.227  0.00  0.00    +0.140 A 
ATOM     34  F   UNL     1      -3.279  -3.427  25.912  0.00  0.00    -0.204 F 
ATOM     35  C   UNL     1      -3.544  -2.175  25.276  0.00  0.00    +0.034 A 
ENDBRANCH  27  29
BRANCH  11  12
ATOM     12  C   UNL     1      -2.774   1.728  24.900  0.00  0.00    +0.262 C 
ATOM     13  O   UNL     1      -2.227   2.207  25.290  0.00  0.00    -0.271 OA
ATOM     14  N   UNL     1      -3.446   2.064  24.559  0.00  0.00    -0.194 NA
BRANCH  14  15
ATOM     15  C   UNL     1      -3.571   2.878  24.608  0.00  0.00    +0.198 C 
BRANCH  15  23
ATOM     23  C   UNL     1      -3.472   3.352  23.939  0.00  0.00    +0.337 C 
ATOM     24  O   UNL     1      -3.086   4.078  24.003  0.00  0.00    -0.248 OA
BRANCH  23  25
ATOM     25  O   UNL     1      -3.758   3.100  23.208  0.00  0.00    -0.443 OA
ATOM     26  C   UNL     1      -3.577   3.525  22.526  0.00  0.00    +0.256 C 
ENDBRANCH  23  25
ENDBRANCH  15  23
BRANCH  15  16
ATOM     16  C   UNL     1      -3.796   3.219  25.325  0.00  0.00    +0.061 C 
BRANCH  16  17
ATOM     17  C   UNL     1      -4.596   3.302  25.510  0.00  0.00    -0.001 A 
ATOM     18  C   UNL     1      -5.052   2.635  25.677  0.00  0.00    -0.001 A 
ATOM     19  C   UNL     1      -5.851   2.718  25.862  0.00  0.00    +0.020 A 
ATOM     20  C   UNL     1      -6.195   3.468  25.880  0.00  0.00    +0.099 A 
ATOM     21  N   UNL     1      -5.739   4.134  25.713  0.00  0.00    -0.243 NA
ATOM     22  C   UNL     1      -4.940   4.051  25.528  0.00  0.00    +0.095 A 
ENDBRANCH  16  17
ENDBRANCH  15  16
ENDBRANCH  14  15
ENDBRANCH  11  12
BRANCH   4   3
ATOM      3  C   UNL     1      -1.365   1.938  25.011  0.00  0.00    +0.227 C 
BRANCH   3   2
ATOM      1  C   UNL     1      -0.284   2.682  25.577  0.00  0.00    +0.175 C 
ATOM      2  O   UNL     1      -0.731   2.459  24.921  0.00  0.00    -0.342 OA
ENDBRANCH   3   2
ENDBRANCH   4   3
TORSDOF 9
ENDMDL
MODEL 4
REMARK VINA RESULT:      -8.4      2.284      3.516
REMARK  Name = 
REMARK  9 active torsions:
REMARK  status: ('A' for Active; 'I' for Inactive)
REMARK    1  A    between atoms: O_2  and  C_3
REMARK    2  A    between atoms: C_3  and  C_4
REMARK    3  A    between atoms: C_11  and  C_12
REMARK    4  A    between atoms: N_14  and  C_15
REMARK    5  A    between atoms: C_15  and  C_16
REMARK    6  A    between atoms: C_15  and  C_23
REMARK    7  A    between atoms: C_16  and  C_17
REMARK    8  A    between atoms: C_23  and  O_25
REMARK    9  A    between atoms: C_27  and  C_29
REMARK                            x       y       z     vdW  Elec       q    Type
REMARK                         _______ _______ _______ _____ _____    ______ ____
ROOT
ATOM      4  C   UNL     1      -2.767  -1.166  24.966  0.00  0.00    +0.256 C 
ATOM      5  O   UNL     1      -3.212  -1.860  25.024  0.00  0.00    -0.272 OA
ATOM      6  N   UNL     1      -3.143  -0.432  24.994  0.00  0.00    -0.268 N 
ATOM      7  C   UNL     1      -3.963  -0.392  25.081  0.00  0.00    +0.115 C 
ATOM      8  C   UNL     1      -4.338   0.342  25.109  0.00  0.00    +0.115 C 
ATOM      9  N   UNL     1      -3.894   1.036  25.050  0.00  0.00    -0.272 N 
ATOM     10  C   UNL     1      -3.075   0.994  24.963  0.00  0.00    +0.123 C 
ATOM     11  C   UNL     1      -2.699   0.260  24.935  0.00  0.00    +0.174 C 
ATOM     27  C   UNL     1      -4.269   1.769  25.078  0.00  0.00    +0.249 C 
ATOM     28  O   UNL     1      -3.826   2.462  25.019  0.00  0.00    -0.270 OA
ENDROOT
BRANCH  27  29
ATOM     29  C   UNL     1      -5.089   1.810  25.165  0.00  0.00    +0.056 A 
ATOM     30  C   UNL     1      -5.575   1.789  24.499  0.00  0.00    +0.005 A 
ATOM     31  C   UNL     1      -6.395   1.830  24.586  0.00  0.00    +0.002 A 
ATOM     32  C   UNL     1      -6.728   1.893  25.339  0.00  0.00    +0.030 A 
ATOM     33  C   UNL     1      -6.240   1.914  26.004  0.00  0.00    +0.140 A 
ATOM     34  F   UNL     1      -6.573   1.977  26.758  0.00  0.00    -0.204 F 
ATOM     35  C   UNL     1      -5.421   1.873  25.918  0.00  0.00    +0.034 A 
ENDBRANCH  27  29
BRANCH  11  12
ATOM     12  C   UNL     1      -1.881   0.219  24.848  0.00  0.00    +0.262 C 
ATOM     13  O   UNL     1      -1.459  -0.404  25.188  0.00  0.00    -0.271 OA
ATOM     14  N   UNL     1      -1.482   0.801  24.420  0.00  0.00    -0.194 NA
BRANCH  14  15
ATOM     15  C   UNL     1      -0.662   0.760  24.333  0.00  0.00    +0.198 C 
BRANCH  15  23
ATOM     23  C   UNL     1      -0.335   0.492  23.624  0.00  0.00    +0.337 C 
ATOM     24  O   UNL     1      -0.701   0.674  22.907  0.00  0.00    -0.248 OA
BRANCH  23  25
ATOM     25  O   UNL     1       0.356   0.042  23.632  0.00  0.00    -0.443 OA
ATOM     26  C   UNL     1       0.735  -0.145  22.924  0.00  0.00    +0.256 C 
ENDBRANCH  23  25
ENDBRANCH  15  23
BRANCH  15  16
ATOM     16  C   UNL     1      -0.169   0.988  24.954  0.00  0.00    +0.061 C 
BRANCH  16  17
ATOM     17  C   UNL     1      -0.116   1.783  25.169  0.00  0.00    -0.001 A 
ATOM     18  C   UNL     1      -0.107   1.994  25.967  0.00  0.00    -0.001 A 
ATOM     19  C   UNL     1      -0.054   2.789  26.181  0.00  0.00    +0.020 A 
ATOM     20  C   UNL     1      -0.011   3.372  25.599  0.00  0.00    +0.099 A 
ATOM     21  N   UNL     1      -0.020   3.160  24.803  0.00  0.00    -0.243 NA
ATOM     22  C   UNL     1      -0.072   2.366  24.587  0.00  0.00    +0.095 A 
ENDBRANCH  16  17
ENDBRANCH  15  16
ENDBRANCH  14  15
ENDBRANCH  11  12
BRANCH   4   3
ATOM      3  C   UNL     1      -1.948  -1.208  24.879  0.00  0.00    +0.227 C 
BRANCH   3   2
ATOM      1  C   UNL     1      -1.585  -2.524  24.455  0.00  0.00    +0.175 C 
ATOM      2  O   UNL     1      -1.554  -1.920  25.016  0.00  0.00    -0.342 OA
ENDBRANCH   3   2
ENDBRANCH   4   3
TORSDOF 9
ENDMDL
MODEL 5
REMARK VINA RESULT:      -8.1      1.917      4.609
REMARK  Name = 
REMARK  9 active torsions:
REMARK  status: ('A' for Active; 'I' for Inactive)
REMARK    1  A    between atoms: O_2  and  C_3
REMARK    2  A    between atoms: C_3  and  C_4
REMARK    3  A    between atoms: C_11  and  C_12
REMARK    4  A    between atoms: N_14  and  C_15
REMARK    5  A    between atoms: C_15  and  C_16
REMARK    6  A    between atoms: C_15  and  C_23
REMARK    7  A    between atoms: C_16  and  C_17
REMARK    8  A    between atoms: C_23  and  O_25
REMARK    9  A    between atoms: C_27  and  C_29
REMARK                            x       y       z     vdW  Elec       q    Type
REMARK                         _______ _______ _______ _____ _____    ______ ____
ROOT
ATOM      4  C   UNL     1      -0.231   1.264  23.917  0.00  0.00    +0.256 C 
ATOM      5  O   UNL     1       0.330   1.831  23.703  0.00  0.00    -0.272 OA
ATOM      6  N   UNL     1      -0.973   1.500  24.190  0.00  0.00    -0.268 N 
ATOM      7  C   UNL     1      -1.153   2.303  24.249  0.00  0.00    +0.115 C 
ATOM      8  C   UNL     1      -1.895   2.540  24.522  0.00  0.00    +0.115 C 
ATOM      9  N   UNL     1      -2.456   1.973  24.736  0.00  0.00    -0.272 N 
ATOM     10  C   UNL     1      -2.275   1.171  24.676  0.00  0.00    +0.123 C 
ATOM     11  C   UNL     1      -1.533   0.934  24.403  0.00  0.00    +0.174 C 
ATOM     27  C   UNL     1      -3.197   2.209  25.009  0.00  0.00    +0.249 C 
ATOM     28  O   UNL     1      -3.758   1.643  25.222  0.00  0.00    -0.270 OA
ENDROOT
BRANCH  27  29
ATOM     29  C   UNL     1      -3.378   3.012  25.068  0.00  0.00    +0.056 A 
ATOM     30  C   UNL     1      -3.755   3.397  24.443  0.00  0.00    +0.005 A 
ATOM     31  C   UNL     1      -3.936   4.200  24.503  0.00  0.00    +0.002 A 
ATOM     32  C   UNL     1      -3.741   4.618  25.187  0.00  0.00    +0.030 A 
ATOM     33  C   UNL     1      -3.364   4.232  25.812  0.00  0.00    +0.140 A 
ATOM     34  F   UNL     1      -3.168   4.650  26.497  0.00  0.00    -0.204 F 
ATOM     35  C   UNL     1      -3.183   3.430  25.753  0.00  0.00    +0.034 A 
ENDBRANCH  27  29
BRANCH  11  12
ATOM     12  C   UNL     1      -1.352   0.132  24.343  0.00  0.00    +0.262 C 
ATOM     13  O   UNL     1      -0.817  -0.130  23.772  0.00  0.00    -0.271 OA
ATOM     14  N   UNL     1      -1.706  -0.409  24.855  0.00  0.00    -0.194 NA
BRANCH  14  15
ATOM     15  C   UNL     1      -1.526  -1.213  24.796  0.00  0.00    +0.198 C 
BRANCH  15  23
ATOM     23  C   UNL     1      -1.012  -1.562  25.340  0.00  0.00    +0.337 C 
ATOM     24  O   UNL     1      -1.042  -1.340  26.134  0.00  0.00    -0.248 OA
BRANCH  23  25
ATOM     25  O   UNL     1      -0.470  -2.131  25.091  0.00  0.00    -0.443 OA
ATOM     26  C   UNL     1       0.078  -2.440  25.623  0.00  0.00    +0.256 C 
ENDBRANCH  23  25
ENDBRANCH  15  23
BRANCH  15  16
ATOM     16  C   UNL     1      -1.858  -1.667  24.192  0.00  0.00    +0.061 C 
BRANCH  16  17
ATOM     17  C   UNL     1      -2.624  -1.964  24.273  0.00  0.00    -0.001 A 
ATOM     18  C   UNL     1      -3.254  -1.583  23.900  0.00  0.00    -0.001 A 
ATOM     19  C   UNL     1      -4.019  -1.880  23.981  0.00  0.00    +0.020 A 
ATOM     20  C   UNL     1      -4.155  -2.556  24.434  0.00  0.00    +0.099 A 
ATOM     21  N   UNL     1      -3.525  -2.936  24.805  0.00  0.00    -0.243 NA
ATOM     22  C   UNL     1      -2.759  -2.640  24.725  0.00  0.00    +0.095 A 
ENDBRANCH  16  17
ENDBRANCH  15  16
ENDBRANCH  14  15
ENDBRANCH  11  12
BRANCH   4   3
ATOM      3  C   UNL     1      -0.049   0.461  23.857  0.00  0.00    +0.227 C 
BRANCH   3   2
ATOM      1  C   UNL     1       0.991   0.093  22.949  0.00  0.00    +0.175 C 
ATOM      2  O   UNL     1       0.728   0.223  23.720  0.00  0.00    -0.342 OA
ENDBRANCH   3   2
ENDBRANCH   4   3
TORSDOF 9
ENDMDL
