MODEL 1
REMARK VINA RESULT:      -9.8      0.000      0.000
REMARK  Name = 
REMARK  6 active torsions:
REMARK  status: ('A' for Active; 'I' for Inactive)
REMARK    1  A    between atoms: C_4  and  C_26
REMARK    2  A    between atoms: C_6  and  C_7
REMARK    3  A    between atoms: C_14  and  C_15
REMARK    4  A    between atoms: C_15  and  O_16
REMARK    5  A    between atoms: O_16  and  C_17
REMARK    6  A    between atoms: N_19  and  C_20
REMARK                            x       y       z     vdW  Elec       q    Type
REMARK                         _______ _______ _______ _____ _____    ______ ____
ROOT
ATOM      7  C   UNL     1      -3.522   2.742  25.188  0.00  0.00    +0.056 C 
ATOM      8  C   UNL     1      -3.411   2.116  25.636  0.00  0.00    +0.078 C 
ATOM      9  N   UNL     1      -3.938   2.175  25.003  0.00  0.00    -0.270 NA
ATOM     10  C   UNL     1      -3.845   3.144  24.613  0.00  0.00    +0.072 C 
ATOM     11  C   UNL     1      -4.020   3.601  24.179  0.00  0.00    +0.018 C 
ATOM     12  C   UNL     1      -4.041   2.793  24.568  0.00  0.00    +0.010 C 
ATOM     13  C   UNL     1      -4.603   2.213  24.223  0.00  0.00    +0.020 C 
ATOM     14  C   UNL     1      -4.524   1.578  24.639  0.00  0.00    +0.102 C 
ENDROOT
BRANCH   7   6
ATOM      1  C   UNL     1      -3.813   3.895  26.533  0.00  0.00    +0.153 C 
ATOM      2  N   UNL     1      -3.206   3.943  25.976  0.00  0.00    -0.253 N 
ATOM      3  N   UNL     1      -2.626   4.529  25.940  0.00  0.00    -0.169 NA
ATOM      4  C   UNL     1      -2.135   4.362  25.299  0.00  0.00    +0.108 A 
ATOM      5  C   UNL     1      -2.410   3.672  24.939  0.00  0.00    +0.036 A 
ATOM      6  C   UNL     1      -3.072   3.414  25.358  0.00  0.00    +0.058 A 
BRANCH   4  26
ATOM     26  C   UNL     1      -1.482   4.806  25.060  0.00  0.00    +0.049 A 
ATOM     27  C   UNL     1      -1.465   5.623  24.951  0.00  0.00    +0.009 A 
ATOM     28  C   UNL     1      -0.704   5.833  24.712  0.00  0.00    +0.008 A 
ATOM     29  C   UNL     1      -0.251   5.145  24.673  0.00  0.00    +0.035 A 
ATOM     30  S   UNL     1      -0.731   4.510  24.888  0.00  0.00    -0.085 S 
ENDBRANCH   4  26
ENDBRANCH   7   6
BRANCH  14  15
ATOM     15  C   UNL     1      -4.804   0.806  24.714  0.00  0.00    +0.226 C 
BRANCH  15  16
ATOM     16  O   UNL     1      -4.618   0.242  24.142  0.00  0.00    -0.432 OA
BRANCH  16  17
ATOM     17  C   UNL     1      -4.404  -0.521  24.370  0.00  0.00    +0.425 C 
ATOM     18  O   UNL     1      -4.683  -0.834  25.080  0.00  0.00    -0.224 OA
ATOM     19  N   UNL     1      -3.910  -0.972  23.887  0.00  0.00    -0.142 NA
BRANCH  19  20
ATOM     20  C   UNL     1      -3.695  -1.735  24.114  0.00  0.00    +0.077 A 
ATOM     21  C   UNL     1      -3.013  -1.855  24.563  0.00  0.00    +0.017 A 
ATOM     22  C   UNL     1      -2.797  -2.619  24.790  0.00  0.00    +0.001 A 
ATOM     23  C   UNL     1      -3.265  -3.262  24.569  0.00  0.00    +0.000 A 
ATOM     24  C   UNL     1      -3.947  -3.142  24.121  0.00  0.00    +0.001 A 
ATOM     25  C   UNL     1      -4.162  -2.379  23.894  0.00  0.00    +0.017 A 
ENDBRANCH  19  20
ENDBRANCH  16  17
ENDBRANCH  15  16
ENDBRANCH  14  15
TORSDOF 6
ENDMDL
MODEL 2
REMARK VINA RESULT:      -9.8      4.130      5.319
REMARK  Name = 
REMARK  6 active torsions:
REMARK  status: ('A' for Active; 'I' for Inactive)
REMARK    1  A    between atoms: C_4  and  C_26
REMARK    2  A    between atoms: C_6  and  C_7
REMARK    3  A    between atoms: C_14  and  C_15
REMARK    4  A    between atoms: C_15  and  O_16
REMARK    5  A    between atoms: O_16  and  C_17
REMARK    6  A    between atoms: N_19  and  C_20
REMARK                            x       y       z     vdW  Elec       q    Type
REMARK                         _______ _______ _______ _____ _____    ______ ____
ROOT
ATOM      7  C   UNL     1      -1.905   1.715  23.938  0.00  0.00    +0.056 C 
ATOM      8  C   UNL     1      -1.383   2.281  23.828  0.00  0.00    +0.078 C 
ATOM      9  N   UNL     1      -1.218   1.480  23.939  0.00  0.00    -0.270 NA
ATOM     10  C   UNL     1      -2.136   0.988  24.057  0.00  0.00    +0.072 C 
ATOM     11  C   UNL     1      -2.478   0.440  24.155  0.00  0.00    +0.018 C 
ATOM     12  C   UNL     1      -1.735   0.931  24.046  0.00  0.00    +0.010 C 
ATOM     13  C   UNL     1      -0.976   0.492  24.074  0.00  0.00    +0.020 C 
ATOM     14  C   UNL     1      -0.432   1.018  23.969  0.00  0.00    +0.102 C 
ENDROOT
BRANCH   7   6
ATOM      1  C   UNL     1      -2.868   2.248  22.518  0.00  0.00    +0.153 C 
ATOM      2  N   UNL     1      -3.144   2.177  23.292  0.00  0.00    -0.253 N 
ATOM      3  N   UNL     1      -3.911   2.339  23.550  0.00  0.00    -0.169 NA
ATOM      4  C   UNL     1      -3.943   2.194  24.362  0.00  0.00    +0.108 A 
ATOM      5  C   UNL     1      -3.196   1.942  24.605  0.00  0.00    +0.036 A 
ATOM      6  C   UNL     1      -2.702   1.932  23.945  0.00  0.00    +0.058 A 
BRANCH   4  26
ATOM     26  C   UNL     1      -4.606   2.284  24.844  0.00  0.00    +0.049 A 
ATOM     27  C   UNL     1      -5.247   1.767  24.890  0.00  0.00    +0.009 A 
ATOM     28  C   UNL     1      -5.782   2.072  25.440  0.00  0.00    +0.008 A 
ATOM     29  C   UNL     1      -5.470   2.776  25.734  0.00  0.00    +0.035 A 
ATOM     30  S   UNL     1      -4.744   2.908  25.367  0.00  0.00    -0.085 S 
ENDBRANCH   4  26
ENDBRANCH   7   6
BRANCH  14  15
ATOM     15  C   UNL     1       0.386   1.111  23.914  0.00  0.00    +0.226 C 
BRANCH  15  16
ATOM     16  O   UNL     1       0.819   0.654  23.382  0.00  0.00    -0.432 OA
BRANCH  16  17
ATOM     17  C   UNL     1       1.641   0.717  23.359  0.00  0.00    +0.425 C 
ATOM     18  O   UNL     1       2.023   1.306  23.793  0.00  0.00    -0.224 OA
ATOM     19  N   UNL     1       2.083   0.191  22.902  0.00  0.00    -0.142 NA
BRANCH  19  20
ATOM     20  C   UNL     1       2.905   0.253  22.878  0.00  0.00    +0.077 A 
ATOM     21  C   UNL     1       3.372  -0.298  23.275  0.00  0.00    +0.017 A 
ATOM     22  C   UNL     1       4.195  -0.236  23.252  0.00  0.00    +0.001 A 
ATOM     23  C   UNL     1       4.549   0.379  22.831  0.00  0.00    +0.000 A 
ATOM     24  C   UNL     1       4.082   0.931  22.434  0.00  0.00    +0.001 A 
ATOM     25  C   UNL     1       3.260   0.868  22.458  0.00  0.00    +0.017 A 
ENDBRANCH  19  20
ENDBRANCH  16  17
ENDBRANCH  15  16
ENDBRANCH  14  15
TORSDOF 6
ENDMDL
MODEL 3
REMARK VINA RESULT:      -9.5      2.228      2.894
REMARK  Name = 
REMARK  6 active torsions:
REMARK  status: ('A' for Active; 'I' for Inactive)
REMARK    1  A    between atoms: C_4  and  C_26
REMARK    2  A    between atoms: C_6  and  C_7
REMARK    3  A    between atoms: C_14  and  C_15
REMARK    4  A    between atoms: C_15  and  O_16
REMARK    5  A    between atoms: O_16  and  C_17
REMARK    6  A    between atoms: N_19  and  C_20
REMARK                            x       y       z     vdW  Elec       q    Type
REMARK                         _______ _______ _______ _____ _____    ______ ____
ROOT
ATOM      7  C   UNL     1      -0.706   1.514  24.820  0.00  0.00    +0.056 C 
ATOM      8  C   UNL     1      -0.837   1.092  24.180  0.00  0.00    +0.078 C 
ATOM      9  N   UNL     1      -0.760   0.801  24.948  0.00  0.00    -0.270 NA
ATOM     10  C   UNL     1      -0.590   1.623  25.576  0.00  0.00    +0.072 C 
ATOM     11  C   UNL     1      -0.483   1.871  26.170  0.00  0.00    +0.018 C 
ATOM     12  C   UNL     1      -0.631   1.221  25.571  0.00  0.00    +0.010 C 
ATOM     13  C   UNL     1      -0.669   0.404  25.890  0.00  0.00    +0.020 C 
ATOM     14  C   UNL     1      -0.798  -0.046  25.287  0.00  0.00    +0.102 C 
ENDROOT
BRANCH   7   6
ATOM      1  C   UNL     1       0.626   2.372  23.976  0.00  0.00    +0.153 C 
ATOM      2  N   UNL     1      -0.025   2.725  24.339  0.00  0.00    -0.253 N 
ATOM      3  N   UNL     1      -0.179   3.535  24.377  0.00  0.00    -0.169 NA
ATOM      4  C   UNL     1      -0.886   3.642  24.788  0.00  0.00    +0.108 A 
ATOM      5  C   UNL     1      -1.169   2.898  25.004  0.00  0.00    +0.036 A 
ATOM      6  C   UNL     1      -0.637   2.332  24.726  0.00  0.00    +0.058 A 
BRANCH   4  26
ATOM     26  C   UNL     1      -1.245   4.365  24.954  0.00  0.00    +0.049 A 
ATOM     27  C   UNL     1      -0.890   5.108  24.901  0.00  0.00    +0.009 A 
ATOM     28  C   UNL     1      -1.449   5.674  25.116  0.00  0.00    +0.008 A 
ATOM     29  C   UNL     1      -2.150   5.282  25.303  0.00  0.00    +0.035 A 
ATOM     30  S   UNL     1      -2.025   4.473  25.202  0.00  0.00    -0.085 S 
ENDBRANCH   4  26
ENDBRANCH   7   6
BRANCH  14  15
ATOM     15  C   UNL     1      -0.907  -0.834  25.069  0.00  0.00    +0.226 C 
BRANCH  15  16
ATOM     16  O   UNL     1      -1.496  -1.284  25.431  0.00  0.00    -0.432 OA
BRANCH  16  17
ATOM     17  C   UNL     1      -2.036  -1.703  24.969  0.00  0.00    +0.425 C 
ATOM     18  O   UNL     1      -1.768  -2.190  24.360  0.00  0.00    -0.224 OA
ATOM     19  N   UNL     1      -2.845  -1.634  25.116  0.00  0.00    -0.142 NA
BRANCH  19  20
ATOM     20  C   UNL     1      -3.386  -2.053  24.655  0.00  0.00    +0.077 A 
ATOM     21  C   UNL     1      -3.438  -2.873  24.722  0.00  0.00    +0.017 A 
ATOM     22  C   UNL     1      -3.978  -3.292  24.260  0.00  0.00    +0.001 A 
ATOM     23  C   UNL     1      -4.467  -2.889  23.731  0.00  0.00    +0.000 A 
ATOM     24  C   UNL     1      -4.416  -2.068  23.664  0.00  0.00    +0.001 A 
ATOM     25  C   UNL     1      -3.875  -1.650  24.126  0.00  0.00    +0.017 A 
ENDBRANCH  19  20
ENDBRANCH  16  17
ENDBRANCH  15  16
ENDBRANCH  14  15
TORSDOF 6
ENDMDL
MODEL 4
REMARK VINA RESULT:      -9.3      1.967      5.861
REMARK  Name = 
REMARK  6 active torsions:
REMARK  status: ('A' for Active; 'I' for Inactive)
REMARK    1  A    between atoms: C_4  and  C_26
REMARK    2  A    between atoms: C_6  and  C_7
REMARK    3  A    between atoms: C_14  and  C_15
REMARK    4  A    between atoms: C_15  and  O_16
REMARK    5  A    between atoms: O_16  and  C_17
REMARK    6  A    between atoms: N_19  and  C_20
REMARK                            x       y       z     vdW  Elec       q    Type
REMARK                         _______ _______ _______ _____ _____    ______ ____
ROOT
ATOM      7  C   UNL     1      -3.618   0.652  24.612  0.00  0.00    +0.056 C 
ATOM      8  C   UNL     1      -3.130   1.113  24.218  0.00  0.00    +0.078 C 
ATOM      9  N   UNL     1      -3.832   1.347  24.585  0.00  0.00    -0.270 NA
ATOM     10  C   UNL     1      -4.251   0.493  25.025  0.00  0.00    +0.072 C 
ATOM     11  C   UNL     1      -4.725   0.207  25.372  0.00  0.00    +0.018 C 
ATOM     12  C   UNL     1      -4.305   0.890  24.969  0.00  0.00    +0.010 C 
ATOM     13  C   UNL     1      -4.697   1.673  25.029  0.00  0.00    +0.020 C 
ATOM     14  C   UNL     1      -4.245   2.158  24.651  0.00  0.00    +0.102 C 
ENDROOT
BRANCH   7   6
ATOM      1  C   UNL     1      -2.215  -0.023  25.505  0.00  0.00    +0.153 C 
ATOM      2  N   UNL     1      -2.774  -0.457  25.082  0.00  0.00    -0.253 N 
ATOM      3  N   UNL     1      -2.787  -1.277  24.994  0.00  0.00    -0.169 NA
ATOM      4  C   UNL     1      -3.440  -1.474  24.529  0.00  0.00    +0.108 A 
ATOM      5  C   UNL     1      -3.830  -0.776  24.330  0.00  0.00    +0.036 A 
ATOM      6  C   UNL     1      -3.419  -0.147  24.671  0.00  0.00    +0.058 A 
BRANCH   4  26
ATOM     26  C   UNL     1      -3.662  -2.236  24.304  0.00  0.00    +0.049 A 
ATOM     27  C   UNL     1      -4.236  -2.428  23.743  0.00  0.00    +0.009 A 
ATOM     28  C   UNL     1      -4.278  -3.251  23.694  0.00  0.00    +0.008 A 
ATOM     29  C   UNL     1      -3.730  -3.566  24.224  0.00  0.00    +0.035 A 
ATOM     30  S   UNL     1      -3.350  -2.940  24.602  0.00  0.00    -0.085 S 
ENDBRANCH   4  26
ENDBRANCH   7   6
BRANCH  14  15
ATOM     15  C   UNL     1      -4.173   2.949  24.431  0.00  0.00    +0.226 C 
BRANCH  15  16
ATOM     16  O   UNL     1      -3.908   3.507  24.978  0.00  0.00    -0.432 OA
BRANCH  16  17
ATOM     17  C   UNL     1      -3.248   3.971  24.806  0.00  0.00    +0.425 C 
ATOM     18  O   UNL     1      -3.189   4.351  24.077  0.00  0.00    -0.224 OA
ATOM     19  N   UNL     1      -2.646   4.054  25.365  0.00  0.00    -0.142 NA
BRANCH  19  20
ATOM     20  C   UNL     1      -1.985   4.518  25.194  0.00  0.00    +0.077 A 
ATOM     21  C   UNL     1      -2.044   5.341  25.209  0.00  0.00    +0.017 A 
ATOM     22  C   UNL     1      -1.383   5.805  25.038  0.00  0.00    +0.001 A 
ATOM     23  C   UNL     1      -0.665   5.445  24.851  0.00  0.00    +0.000 A 
ATOM     24  C   UNL     1      -0.606   4.622  24.836  0.00  0.00    +0.001 A 
ATOM     25  C   UNL     1      -1.266   4.159  25.007  0.00  0.00    +0.017 A 
ENDBRANCH  19  20
ENDBRANCH  16  17
ENDBRANCH  15  16
ENDBRANCH  14  15
TORSDOF 6
ENDMDL
MODEL 5
REMARK VINA RESULT:      -9.2      2.919      6.383
REMARK  Name = 
REMARK  6 active torsions:
REMARK  status: ('A' for Active; 'I' for Inactive)
REMARK    1  A    between atoms: C_4  and  C_26
REMARK    2  A    between atoms: C_6  and  C_7
REMARK    3  A    between atoms: C_14  and  C_15
REMARK    4  A    between atoms: C_15  and  O_16
REMARK    5  A    between atoms: O_16  and  C_17
REMARK    6  A    between atoms: N_19  and  C_20
REMARK                            x       y       z     vdW  Elec       q    Type
REMARK                         _______ _______ _______ _____ _____    ______ ____
ROOT
ATOM      7  C   UNL     1      -1.050  -0.227  24.939  0.00  0.00    +0.056 C 
ATOM      8  C   UNL     1      -1.117   0.214  25.577  0.00  0.00    +0.078 C 
ATOM      9  N   UNL     1      -0.646   0.377  24.919  0.00  0.00    -0.270 NA
ATOM     10  C   UNL     1      -0.780  -0.410  24.239  0.00  0.00    +0.072 C 
ATOM     11  C   UNL     1      -0.647  -0.695  23.666  0.00  0.00    +0.018 C 
ATOM     12  C   UNL     1      -0.585  -0.060  24.297  0.00  0.00    +0.010 C 
ATOM     13  C   UNL     1      -0.049   0.611  24.117  0.00  0.00    +0.020 C 
ATOM     14  C   UNL     1      -0.087   1.072  24.725  0.00  0.00    +0.102 C 
ENDROOT
BRANCH   7   6
ATOM      1  C   UNL     1      -0.572  -1.802  25.657  0.00  0.00    +0.153 C 
ATOM      2  N   UNL     1      -1.270  -1.649  25.245  0.00  0.00    -0.253 N 
ATOM      3  N   UNL     1      -1.871  -2.193  25.090  0.00  0.00    -0.169 NA
ATOM      4  C   UNL     1      -2.462  -1.805  24.664  0.00  0.00    +0.108 A 
ATOM      5  C   UNL     1      -2.226  -1.022  24.556  0.00  0.00    +0.036 A 
ATOM      6  C   UNL     1      -1.490  -0.926  24.915  0.00  0.00    +0.058 A 
BRANCH   4  26
ATOM     26  C   UNL     1      -3.165  -2.142  24.395  0.00  0.00    +0.049 A 
ATOM     27  C   UNL     1      -3.843  -1.732  24.165  0.00  0.00    +0.009 A 
ATOM     28  C   UNL     1      -4.410  -2.285  23.936  0.00  0.00    +0.008 A 
ATOM     29  C   UNL     1      -4.083  -3.037  24.024  0.00  0.00    +0.035 A 
ATOM     30  S   UNL     1      -3.313  -2.949  24.307  0.00  0.00    -0.085 S 
ENDBRANCH   4  26
ENDBRANCH   7   6
BRANCH  14  15
ATOM     15  C   UNL     1       0.205   1.781  25.028  0.00  0.00    +0.226 C 
BRANCH  15  16
ATOM     16  O   UNL     1       0.169   2.470  24.575  0.00  0.00    -0.432 OA
BRANCH  16  17
ATOM     17  C   UNL     1      -0.199   3.143  24.878  0.00  0.00    +0.425 C 
ATOM     18  O   UNL     1       0.004   3.422  25.628  0.00  0.00    -0.224 OA
ATOM     19  N   UNL     1      -0.769   3.538  24.432  0.00  0.00    -0.142 NA
BRANCH  19  20
ATOM     20  C   UNL     1      -1.137   4.211  24.735  0.00  0.00    +0.077 A 
ATOM     21  C   UNL     1      -1.861   4.145  25.125  0.00  0.00    +0.017 A 
ATOM     22  C   UNL     1      -2.229   4.819  25.428  0.00  0.00    +0.001 A 
ATOM     23  C   UNL     1      -1.873   5.558  25.340  0.00  0.00    +0.000 A 
ATOM     24  C   UNL     1      -1.149   5.624  24.950  0.00  0.00    +0.001 A 
ATOM     25  C   UNL     1      -0.782   4.951  24.647  0.00  0.00    +0.017 A 
ENDBRANCH  19  20
ENDBRANCH  16  17
ENDBRANCH  15  16
ENDBRANCH  14  15
TORSDOF 6
ENDMDL
MODEL 6
REMARK VINA RESULT:      -8.7      4.932      6.386
REMARK  Name = 
REMARK  6 active torsions:
REMARK  status: ('A' for Active; 'I' for Inactive)
REMARK    1  A    between atoms: C_4  and  C_26
REMARK    2  A    between atoms: C_6  and  C_7
REMARK    3  A    between atoms: C_14  and  C_15
REMARK    4  A    between atoms: C_15  and  O_16
REMARK    5  A    between atoms: O_16  and  C_17
REMARK    6  A    between atoms: N_19  and  C_20
REMARK                            x       y       z     vdW  Elec       q    Type
REMARK                         _______ _______ _______ _____ _____    ______ ____
ROOT
ATOM      7  C   UNL     1      -0.632  -0.105  24.141  0.00  0.00    +0.056 C 
ATOM      8  C   UNL     1      -0.238  -0.767  24.033  0.00  0.00    +0.078 C 
ATOM      9  N   UNL     1      -0.007  -0.016  23.783  0.00  0.00    -0.270 NA
ATOM     10  C   UNL     1      -0.754   0.655  24.083  0.00  0.00    +0.072 C 
ATOM     11  C   UNL     1      -0.993   1.262  24.115  0.00  0.00    +0.018 C 
ATOM     12  C   UNL     1      -0.399   0.629  23.892  0.00  0.00    +0.010 C 
ATOM     13  C   UNL     1       0.312   0.904  23.457  0.00  0.00    +0.020 C 
ATOM     14  C   UNL     1       0.730   0.277  23.330  0.00  0.00    +0.102 C 
ENDROOT
BRANCH   7   6
ATOM      1  C   UNL     1      -0.857  -0.652  25.837  0.00  0.00    +0.153 C 
ATOM      2  N   UNL     1      -1.454  -0.407  25.323  0.00  0.00    -0.253 N 
ATOM      3  N   UNL     1      -2.260  -0.369  25.498  0.00  0.00    -0.169 NA
ATOM      4  C   UNL     1      -2.655  -0.095  24.828  0.00  0.00    +0.108 A 
ATOM      5  C   UNL     1      -2.093   0.037  24.238  0.00  0.00    +0.036 A 
ATOM      6  C   UNL     1      -1.352  -0.155  24.544  0.00  0.00    +0.058 A 
BRANCH   4  26
ATOM     26  C   UNL     1      -3.468   0.026  24.760  0.00  0.00    +0.049 A 
ATOM     27  C   UNL     1      -4.004  -0.480  24.389  0.00  0.00    +0.009 A 
ATOM     28  C   UNL     1      -4.755  -0.144  24.451  0.00  0.00    +0.008 A 
ATOM     29  C   UNL     1      -4.683   0.568  24.860  0.00  0.00    +0.035 A 
ATOM     30  S   UNL     1      -3.887   0.674  25.051  0.00  0.00    -0.085 S 
ENDBRANCH   4  26
ENDBRANCH   7   6
BRANCH  14  15
ATOM     15  C   UNL     1       1.433   0.018  22.986  0.00  0.00    +0.226 C 
BRANCH  15  16
ATOM     16  O   UNL     1       2.065   0.540  22.896  0.00  0.00    -0.432 OA
BRANCH  16  17
ATOM     17  C   UNL     1       2.839   0.253  22.889  0.00  0.00    +0.425 C 
ATOM     18  O   UNL     1       3.063  -0.318  22.337  0.00  0.00    -0.224 OA
ATOM     19  N   UNL     1       3.388   0.538  23.434  0.00  0.00    -0.142 NA
BRANCH  19  20
ATOM     20  C   UNL     1       4.162   0.251  23.428  0.00  0.00    +0.077 A 
ATOM     21  C   UNL     1       4.337  -0.471  23.785  0.00  0.00    +0.017 A 
ATOM     22  C   UNL     1       5.111  -0.758  23.779  0.00  0.00    +0.001 A 
ATOM     23  C   UNL     1       5.709  -0.321  23.416  0.00  0.00    +0.000 A 
ATOM     24  C   UNL     1       5.534   0.402  23.059  0.00  0.00    +0.001 A 
ATOM     25  C   UNL     1       4.761   0.688  23.065  0.00  0.00    +0.017 A 
ENDBRANCH  19  20
ENDBRANCH  16  17
ENDBRANCH  15  16
ENDBRANCH  14  15
TORSDOF 6
ENDMDL
MODEL 7
REMARK VINA RESULT:      -8.5      3.594      4.948
REMARK  Name = 
REMARK  6 active torsions:
REMARK  status: ('A' for Active; 'I' for Inactive)
REMARK    1  A    between atoms: C_4  and  C_26
REMARK    2  A    between atoms: C_6  and  C_7
REMARK    3  A    between atoms: C_14  and  C_15
REMARK    4  A    between atoms: C_15  and  O_16
REMARK    5  A    between atoms: O_16  and  C_17
REMARK    6  A    between atoms: N_19  and  C_20
REMARK                            x       y       z     vdW  Elec       q    Type
REMARK                         _______ _______ _______ _____ _____    ______ ____
ROOT
ATOM      7  C   UNL     1      -0.637   1.331  23.880  0.00  0.00    +0.056 C 
ATOM      8  C   UNL     1      -1.329   1.195  23.552  0.00  0.00    +0.078 C 
ATOM      9  N   UNL     1      -1.143   1.821  24.057  0.00  0.00    -0.270 NA
ATOM     10  C   UNL     1      -0.134   1.716  24.321  0.00  0.00    +0.072 C 
ATOM     11  C   UNL     1       0.392   1.926  24.646  0.00  0.00    +0.018 C 
ATOM     12  C   UNL     1      -0.462   1.947  24.375  0.00  0.00    +0.010 C 
ATOM     13  C   UNL     1      -0.948   2.611  24.681  0.00  0.00    +0.020 C 
ATOM     14  C   UNL     1      -1.642   2.514  24.380  0.00  0.00    +0.102 C 
ENDROOT
BRANCH   7   6
ATOM      1  C   UNL     1      -0.548  -0.383  24.410  0.00  0.00    +0.153 C 
ATOM      2  N   UNL     1       0.013   0.013  23.953  0.00  0.00    -0.253 N 
ATOM      3  N   UNL     1       0.714  -0.308  23.659  0.00  0.00    -0.169 NA
ATOM      4  C   UNL     1       1.106   0.280  23.234  0.00  0.00    +0.108 A 
ATOM      5  C   UNL     1       0.648   0.965  23.265  0.00  0.00    +0.036 A 
ATOM      6  C   UNL     1      -0.027   0.800  23.709  0.00  0.00    +0.058 A 
BRANCH   4  26
ATOM     26  C   UNL     1       1.830   0.197  22.846  0.00  0.00    +0.049 A 
ATOM     27  C   UNL     1       2.561   0.461  23.121  0.00  0.00    +0.009 A 
ATOM     28  C   UNL     1       3.132   0.262  22.560  0.00  0.00    +0.008 A 
ATOM     29  C   UNL     1       2.753  -0.126  21.938  0.00  0.00    +0.035 A 
ATOM     30  S   UNL     1       1.948  -0.166  22.114  0.00  0.00    -0.085 S 
ENDBRANCH   4  26
ENDBRANCH   7   6
BRANCH  14  15
ATOM     15  C   UNL     1      -2.398   2.842  24.358  0.00  0.00    +0.226 C 
BRANCH  15  16
ATOM     16  O   UNL     1      -2.852   2.880  25.046  0.00  0.00    -0.432 OA
BRANCH  16  17
ATOM     17  C   UNL     1      -3.674   2.830  25.001  0.00  0.00    +0.425 C 
ATOM     18  O   UNL     1      -4.094   3.350  24.518  0.00  0.00    -0.224 OA
ATOM     19  N   UNL     1      -4.076   2.258  25.439  0.00  0.00    -0.142 NA
BRANCH  19  20
ATOM     20  C   UNL     1      -4.899   2.207  25.395  0.00  0.00    +0.077 A 
ATOM     21  C   UNL     1      -5.251   1.654  24.894  0.00  0.00    +0.017 A 
ATOM     22  C   UNL     1      -6.074   1.603  24.849  0.00  0.00    +0.001 A 
ATOM     23  C   UNL     1      -6.543   2.105  25.306  0.00  0.00    +0.000 A 
ATOM     24  C   UNL     1      -6.190   2.658  25.806  0.00  0.00    +0.001 A 
ATOM     25  C   UNL     1      -5.369   2.709  25.850  0.00  0.00    +0.017 A 
ENDBRANCH  19  20
ENDBRANCH  16  17
ENDBRANCH  15  16
ENDBRANCH  14  15
TORSDOF 6
ENDMDL
