MODEL 1
REMARK VINA RESULT:     -15.5      0.000      0.000
REMARK  Name = 
REMARK  5 active torsions:
REMARK  status: ('A' for Active; 'I' for Inactive)
REMARK    1  A    between atoms: C_2  and  N_4
REMARK    2  A    between atoms: C_5  and  C_7
REMARK    3  A    between atoms: C_7  and  C_8
REMARK    4  A    between atoms: C_13  and  C_15
REMARK    5  A    between atoms: C_26  and  C_28
REMARK                            x       y       z     vdW  Elec       q    Type
REMARK                         _______ _______ _______ _____ _____    ______ ____
ROOT
ATOM      8  C   UNL     1      -3.566   0.271  24.373  0.00  0.00    +0.050 C 
ATOM      9  C   UNL     1      -2.882   0.700  24.545  0.00  0.00    +0.063 A 
ATOM     10  C   UNL     1      -2.181   0.305  24.729  0.00  0.00    +0.023 A 
ATOM     11  C   UNL     1      -2.165  -0.520  24.741  0.00  0.00    +0.034 C 
ATOM     12  C   UNL     1      -2.848  -0.949  24.570  0.00  0.00    +0.010 C 
ATOM     13  C   UNL     1      -2.831  -1.773  24.583  0.00  0.00    +0.059 C 
ATOM     14  C   UNL     1      -2.047  -1.611  24.782  0.00  0.00    +0.005 C 
ATOM     17  C   UNL     1      -3.514  -2.203  24.411  0.00  0.00    +0.154 C 
ATOM     18  O   UNL     1      -3.498  -3.028  24.424  0.00  0.00    -0.223 OA
ATOM     19  C   UNL     1      -4.214  -1.808  24.227  0.00  0.00    +0.033 C 
ATOM     20  C   UNL     1      -4.232  -0.983  24.214  0.00  0.00    +0.003 C 
ATOM     21  C   UNL     1      -3.548  -0.554  24.386  0.00  0.00    +0.006 C 
ATOM     22  C   UNL     1      -4.248  -0.159  24.202  0.00  0.00    +0.000 C 
ATOM     23  S   UNL     1      -1.599   0.871  24.873  0.00  0.00    -0.054 S 
ATOM     24  C   UNL     1      -1.939   1.616  24.778  0.00  0.00    +0.185 A 
ATOM     25  N   UNL     1      -1.555   2.340  24.869  0.00  0.00    -0.154 NA
ATOM     26  C   UNL     1      -1.969   3.045  24.756  0.00  0.00    +0.247 C 
ATOM     27  O   UNL     1      -2.768   3.025  24.551  0.00  0.00    -0.273 OA
ATOM     34  N   UNL     1      -2.732   1.511  24.575  0.00  0.00    -0.227 NA
ENDROOT
BRANCH  26  28
ATOM     28  C   UNL     1      -1.584   3.769  24.848  0.00  0.00    +0.079 C 
ATOM     29  C   UNL     1      -0.808   3.859  24.585  0.00  0.00    +0.009 C 
ATOM     30  C   UNL     1      -0.424   4.583  24.677  0.00  0.00    +0.000 C 
ATOM     31  C   UNL     1      -0.815   5.217  25.031  0.00  0.00    +0.000 C 
ATOM     32  C   UNL     1      -1.593   5.126  25.294  0.00  0.00    +0.000 C 
ATOM     33  C   UNL     1      -1.977   4.402  25.202  0.00  0.00    +0.009 C 
ENDBRANCH  26  28
BRANCH  13  15
ATOM     15  C   UNL     1      -2.542  -2.542  24.665  0.00  0.00    +0.184 C 
ATOM     16  O   UNL     1      -1.729  -2.679  24.674  0.00  0.00    -0.220 OA
ENDBRANCH  13  15
BRANCH   8   7
ATOM      7  C   UNL     1      -4.265   0.665  24.189  0.00  0.00    +0.093 C 
BRANCH   7   5
ATOM      4  N   UNL     1      -5.267   1.587  24.624  0.00  0.00    -0.207 NA
ATOM      5  C   UNL     1      -4.730   0.984  24.792  0.00  0.00    +0.242 C 
ATOM      6  O   UNL     1      -4.658   0.697  25.562  0.00  0.00    -0.273 OA
BRANCH   4   2
ATOM      1  C   UNL     1      -5.487   2.587  25.620  0.00  0.00    +0.023 C 
ATOM      2  C   UNL     1      -5.732   1.904  25.226  0.00  0.00    +0.095 C 
ATOM      3  C   UNL     1      -6.442   1.540  25.437  0.00  0.00    +0.023 C 
ENDBRANCH   4   2
ENDBRANCH   7   5
ENDBRANCH   8   7
TORSDOF 5
ENDMDL
MODEL 2
REMARK VINA RESULT:     -14.8      1.208      4.897
REMARK  Name = 
REMARK  5 active torsions:
REMARK  status: ('A' for Active; 'I' for Inactive)
REMARK    1  A    between atoms: C_2  and  N_4
REMARK    2  A    between atoms: C_5  and  C_7
REMARK    3  A    between atoms: C_7  and  C_8
REMARK    4  A    between atoms: C_13  and  C_15
REMARK    5  A    between atoms: C_26  and  C_28
REMARK                            x       y       z     vdW  Elec       q    Type
REMARK                         _______ _______ _______ _____ _____    ______ ____
ROOT
ATOM      8  C   UNL     1      -2.732   2.741  25.358  0.00  0.00    +0.050 C 
ATOM      9  C   UNL     1      -2.544   2.018  25.007  0.00  0.00    +0.063 A 
ATOM     10  C   UNL     1      -1.857   1.943  24.557  0.00  0.00    +0.023 A 
ATOM     11  C   UNL     1      -1.358   2.593  24.457  0.00  0.00    +0.034 C 
ATOM     12  C   UNL     1      -1.545   3.316  24.806  0.00  0.00    +0.010 C 
ATOM     13  C   UNL     1      -1.046   3.964  24.706  0.00  0.00    +0.059 C 
ATOM     14  C   UNL     1      -0.636   3.398  24.268  0.00  0.00    +0.005 C 
ATOM     17  C   UNL     1      -1.234   4.688  25.056  0.00  0.00    +0.154 C 
ATOM     18  O   UNL     1      -0.734   5.337  24.956  0.00  0.00    -0.223 OA
ATOM     19  C   UNL     1      -1.921   4.762  25.507  0.00  0.00    +0.033 C 
ATOM     20  C   UNL     1      -2.421   4.112  25.607  0.00  0.00    +0.003 C 
ATOM     21  C   UNL     1      -2.232   3.390  25.257  0.00  0.00    +0.006 C 
ATOM     22  C   UNL     1      -2.919   3.464  25.708  0.00  0.00    +0.000 C 
ATOM     23  S   UNL     1      -1.816   1.167  24.280  0.00  0.00    -0.054 S 
ATOM     24  C   UNL     1      -2.477   0.762  24.560  0.00  0.00    +0.185 A 
ATOM     25  N   UNL     1      -2.657  -0.030  24.416  0.00  0.00    -0.154 NA
ATOM     26  C   UNL     1      -3.342  -0.362  24.735  0.00  0.00    +0.247 C 
ATOM     27  O   UNL     1      -3.847   0.098  25.197  0.00  0.00    -0.273 OA
ATOM     34  N   UNL     1      -2.928   1.287  25.010  0.00  0.00    -0.227 NA
ENDROOT
BRANCH  26  28
ATOM     28  C   UNL     1      -3.522  -1.155  24.591  0.00  0.00    +0.079 C 
ATOM     29  C   UNL     1      -3.187  -1.745  25.058  0.00  0.00    +0.009 C 
ATOM     30  C   UNL     1      -3.367  -2.537  24.914  0.00  0.00    +0.000 C 
ATOM     31  C   UNL     1      -3.882  -2.739  24.302  0.00  0.00    +0.000 C 
ATOM     32  C   UNL     1      -4.218  -2.147  23.835  0.00  0.00    +0.000 C 
ATOM     33  C   UNL     1      -4.038  -1.355  23.979  0.00  0.00    +0.009 C 
ENDBRANCH  26  28
BRANCH  13  15
ATOM     15  C   UNL     1      -0.404   4.417  24.453  0.00  0.00    +0.184 C 
ATOM     16  O   UNL     1       0.091   4.135  23.858  0.00  0.00    -0.220 OA
ENDBRANCH  13  15
BRANCH   8   7
ATOM      7  C   UNL     1      -3.418   2.815  25.808  0.00  0.00    +0.093 C 
BRANCH   7   5
ATOM      4  N   UNL     1      -4.846   2.848  25.864  0.00  0.00    -0.207 NA
ATOM      5  C   UNL     1      -4.145   2.932  25.436  0.00  0.00    +0.242 C 
ATOM      6  O   UNL     1      -4.171   3.132  24.637  0.00  0.00    -0.273 OA
BRANCH   4   2
ATOM      1  C   UNL     1      -5.895   3.722  25.446  0.00  0.00    +0.023 C 
ATOM      2  C   UNL     1      -5.572   2.964  25.492  0.00  0.00    +0.095 C 
ATOM      3  C   UNL     1      -5.977   2.323  25.165  0.00  0.00    +0.023 C 
ENDBRANCH   4   2
ENDBRANCH   7   5
ENDBRANCH   8   7
TORSDOF 5
ENDMDL
MODEL 3
REMARK VINA RESULT:     -13.4      1.498      3.071
REMARK  Name = 
REMARK  5 active torsions:
REMARK  status: ('A' for Active; 'I' for Inactive)
REMARK    1  A    between atoms: C_2  and  N_4
REMARK    2  A    between atoms: C_5  and  C_7
REMARK    3  A    between atoms: C_7  and  C_8
REMARK    4  A    between atoms: C_13  and  C_15
REMARK    5  A    between atoms: C_26  and  C_28
REMARK                            x       y       z     vdW  Elec       q    Type
REMARK                         _______ _______ _______ _____ _____    ______ ____
ROOT
ATOM      8  C   UNL     1      -1.711  -0.301  24.692  0.00  0.00    +0.050 C 
ATOM      9  C   UNL     1      -2.093   0.430  24.735  0.00  0.00    +0.063 A 
ATOM     10  C   UNL     1      -2.915   0.469  24.681  0.00  0.00    +0.023 A 
ATOM     11  C   UNL     1      -3.355  -0.222  24.584  0.00  0.00    +0.034 C 
ATOM     12  C   UNL     1      -2.974  -0.952  24.541  0.00  0.00    +0.010 C 
ATOM     13  C   UNL     1      -3.414  -1.642  24.444  0.00  0.00    +0.059 C 
ATOM     14  C   UNL     1      -4.022  -1.085  24.454  0.00  0.00    +0.005 C 
ATOM     17  C   UNL     1      -3.033  -2.373  24.401  0.00  0.00    +0.154 C 
ATOM     18  O   UNL     1      -3.473  -3.064  24.303  0.00  0.00    -0.223 OA
ATOM     19  C   UNL     1      -2.210  -2.412  24.455  0.00  0.00    +0.033 C 
ATOM     20  C   UNL     1      -1.769  -1.721  24.552  0.00  0.00    +0.003 C 
ATOM     21  C   UNL     1      -2.152  -0.991  24.595  0.00  0.00    +0.006 C 
ATOM     22  C   UNL     1      -1.329  -1.030  24.649  0.00  0.00    +0.000 C 
ATOM     23  S   UNL     1      -3.137   1.262  24.741  0.00  0.00    -0.054 S 
ATOM     24  C   UNL     1      -2.452   1.711  24.832  0.00  0.00    +0.185 A 
ATOM     25  N   UNL     1      -2.419   2.532  24.913  0.00  0.00    -0.154 NA
ATOM     26  C   UNL     1      -1.689   2.908  25.001  0.00  0.00    +0.247 C 
ATOM     27  O   UNL     1      -0.994   2.464  25.007  0.00  0.00    -0.273 OA
ATOM     34  N   UNL     1      -1.807   1.198  24.829  0.00  0.00    -0.227 NA
ENDROOT
BRANCH  26  28
ATOM     28  C   UNL     1      -1.655   3.729  25.082  0.00  0.00    +0.079 C 
ATOM     29  C   UNL     1      -2.280   4.134  25.434  0.00  0.00    +0.009 C 
ATOM     30  C   UNL     1      -2.246   4.954  25.515  0.00  0.00    +0.000 C 
ATOM     31  C   UNL     1      -1.587   5.369  25.243  0.00  0.00    +0.000 C 
ATOM     32  C   UNL     1      -0.961   4.963  24.890  0.00  0.00    +0.000 C 
ATOM     33  C   UNL     1      -0.995   4.143  24.809  0.00  0.00    +0.009 C 
ENDBRANCH  26  28
BRANCH  13  15
ATOM     15  C   UNL     1      -4.066  -2.140  24.350  0.00  0.00    +0.184 C 
ATOM     16  O   UNL     1      -4.726  -1.881  23.929  0.00  0.00    -0.220 OA
ENDBRANCH  13  15
BRANCH   8   7
ATOM      7  C   UNL     1      -0.889  -0.340  24.746  0.00  0.00    +0.093 C 
BRANCH   7   5
ATOM      4  N   UNL     1       0.393  -0.056  24.182  0.00  0.00    -0.207 NA
ATOM      5  C   UNL     1      -0.423  -0.146  24.094  0.00  0.00    +0.242 C 
ATOM      6  O   UNL     1      -0.772  -0.042  23.355  0.00  0.00    -0.273 OA
BRANCH   4   2
ATOM      1  C   UNL     1       1.165   0.901  23.455  0.00  0.00    +0.023 C 
ATOM      2  C   UNL     1       0.858   0.139  23.530  0.00  0.00    +0.095 C 
ATOM      3  C   UNL     1       1.018  -0.429  22.953  0.00  0.00    +0.023 C 
ENDBRANCH   4   2
ENDBRANCH   7   5
ENDBRANCH   8   7
TORSDOF 5
ENDMDL
MODEL 4
REMARK VINA RESULT:     -13.2      1.589      5.622
REMARK  Name = 
REMARK  5 active torsions:
REMARK  status: ('A' for Active; 'I' for Inactive)
REMARK    1  A    between atoms: C_2  and  N_4
REMARK    2  A    between atoms: C_5  and  C_7
REMARK    3  A    between atoms: C_7  and  C_8
REMARK    4  A    between atoms: C_13  and  C_15
REMARK    5  A    between atoms: C_26  and  C_28
REMARK                            x       y       z     vdW  Elec       q    Type
REMARK                         _______ _______ _______ _____ _____    ______ ____
ROOT
ATOM      8  C   UNL     1      -1.341   1.952  25.018  0.00  0.00    +0.050 C 
ATOM      9  C   UNL     1      -2.039   1.526  24.911  0.00  0.00    +0.063 A 
ATOM     10  C   UNL     1      -2.764   1.919  24.893  0.00  0.00    +0.023 A 
ATOM     11  C   UNL     1      -2.790   2.739  24.983  0.00  0.00    +0.034 C 
ATOM     12  C   UNL     1      -2.093   3.165  25.090  0.00  0.00    +0.010 C 
ATOM     13  C   UNL     1      -2.119   3.984  25.180  0.00  0.00    +0.059 C 
ATOM     14  C   UNL     1      -2.924   3.823  25.093  0.00  0.00    +0.005 C 
ATOM     17  C   UNL     1      -1.421   4.411  25.287  0.00  0.00    +0.154 C 
ATOM     18  O   UNL     1      -1.447   5.231  25.377  0.00  0.00    -0.223 OA
ATOM     19  C   UNL     1      -0.696   4.018  25.305  0.00  0.00    +0.033 C 
ATOM     20  C   UNL     1      -0.670   3.197  25.215  0.00  0.00    +0.003 C 
ATOM     21  C   UNL     1      -1.368   2.772  25.108  0.00  0.00    +0.006 C 
ATOM     22  C   UNL     1      -0.643   2.378  25.126  0.00  0.00    +0.000 C 
ATOM     23  S   UNL     1      -3.357   1.356  24.779  0.00  0.00    -0.054 S 
ATOM     24  C   UNL     1      -2.999   0.616  24.727  0.00  0.00    +0.185 A 
ATOM     25  N   UNL     1      -3.386  -0.103  24.613  0.00  0.00    -0.154 NA
ATOM     26  C   UNL     1      -2.952  -0.804  24.571  0.00  0.00    +0.247 C 
ATOM     27  O   UNL     1      -2.131  -0.785  24.643  0.00  0.00    -0.273 OA
ATOM     34  N   UNL     1      -2.184   0.720  24.808  0.00  0.00    -0.227 NA
ENDROOT
BRANCH  26  28
ATOM     28  C   UNL     1      -3.340  -1.523  24.457  0.00  0.00    +0.079 C 
ATOM     29  C   UNL     1      -3.944  -1.582  23.899  0.00  0.00    +0.009 C 
ATOM     30  C   UNL     1      -4.331  -2.301  23.785  0.00  0.00    +0.000 C 
ATOM     31  C   UNL     1      -4.115  -2.962  24.229  0.00  0.00    +0.000 C 
ATOM     32  C   UNL     1      -3.510  -2.903  24.788  0.00  0.00    +0.000 C 
ATOM     33  C   UNL     1      -3.122  -2.184  24.902  0.00  0.00    +0.009 C 
ENDBRANCH  26  28
BRANCH  13  15
ATOM     15  C   UNL     1      -2.425   4.748  25.240  0.00  0.00    +0.184 C 
ATOM     16  O   UNL     1      -3.216   4.862  25.443  0.00  0.00    -0.220 OA
ENDBRANCH  13  15
BRANCH   8   7
ATOM      7  C   UNL     1      -0.617   1.559  25.036  0.00  0.00    +0.093 C 
BRANCH   7   5
ATOM      4  N   UNL     1       0.361   0.779  24.344  0.00  0.00    -0.207 NA
ATOM      5  C   UNL     1      -0.255   1.328  24.332  0.00  0.00    +0.242 C 
ATOM      6  O   UNL     1      -0.510   1.646  23.615  0.00  0.00    -0.273 OA
BRANCH   4   2
ATOM      1  C   UNL     1       1.362   0.977  23.345  0.00  0.00    +0.023 C 
ATOM      2  C   UNL     1       0.722   0.549  23.640  0.00  0.00    +0.095 C 
ATOM      3  C   UNL     1       0.444  -0.111  23.229  0.00  0.00    +0.023 C 
ENDBRANCH   4   2
ENDBRANCH   7   5
ENDBRANCH   8   7
TORSDOF 5
ENDMDL
MODEL 5
REMARK VINA RESULT:     -13.0      1.619      5.375
REMARK  Name = 
REMARK  5 active torsions:
REMARK  status: ('A' for Active; 'I' for Inactive)
REMARK    1  A    between atoms: C_2  and  N_4
REMARK    2  A    between atoms: C_5  and  C_7
REMARK    3  A    between atoms: C_7  and  C_8
REMARK    4  A    between atoms: C_13  and  C_15
REMARK    5  A    between atoms: C_26  and  C_28
REMARK                            x       y       z     vdW  Elec       q    Type
REMARK                         _______ _______ _______ _____ _____    ______ ____
ROOT
ATOM      8  C   UNL     1      -3.538   2.134  24.358  0.00  0.00    +0.050 C 
ATOM      9  C   UNL     1      -3.886   1.415  24.566  0.00  0.00    +0.063 A 
ATOM     10  C   UNL     1      -4.586   1.406  25.002  0.00  0.00    +0.023 A 
ATOM     11  C   UNL     1      -4.938   2.116  25.231  0.00  0.00    +0.034 C 
ATOM     12  C   UNL     1      -4.591   2.835  25.024  0.00  0.00    +0.010 C 
ATOM     13  C   UNL     1      -4.943   3.544  25.253  0.00  0.00    +0.059 C 
ATOM     14  C   UNL     1      -5.477   3.007  25.579  0.00  0.00    +0.005 C 
ATOM     17  C   UNL     1      -4.596   4.263  25.046  0.00  0.00    +0.154 C 
ATOM     18  O   UNL     1      -4.948   4.974  25.275  0.00  0.00    -0.223 OA
ATOM     19  C   UNL     1      -3.896   4.272  24.609  0.00  0.00    +0.033 C 
ATOM     20  C   UNL     1      -3.543   3.562  24.380  0.00  0.00    +0.003 C 
ATOM     21  C   UNL     1      -3.891   2.844  24.588  0.00  0.00    +0.006 C 
ATOM     22  C   UNL     1      -3.191   2.853  24.151  0.00  0.00    +0.000 C 
ATOM     23  S   UNL     1      -4.799   0.618  25.125  0.00  0.00    -0.054 S 
ATOM     24  C   UNL     1      -4.232   0.141  24.765  0.00  0.00    +0.185 A 
ATOM     25  N   UNL     1      -4.229  -0.683  24.752  0.00  0.00    -0.154 NA
ATOM     26  C   UNL     1      -3.621  -1.088  24.367  0.00  0.00    +0.247 C 
ATOM     27  O   UNL     1      -3.016  -0.668  23.996  0.00  0.00    -0.273 OA
ATOM     34  N   UNL     1      -3.666   0.633  24.419  0.00  0.00    -0.227 NA
ENDROOT
BRANCH  26  28
ATOM     28  C   UNL     1      -3.618  -1.913  24.355  0.00  0.00    +0.079 C 
ATOM     29  C   UNL     1      -3.152  -2.332  24.891  0.00  0.00    +0.009 C 
ATOM     30  C   UNL     1      -3.149  -3.157  24.878  0.00  0.00    +0.000 C 
ATOM     31  C   UNL     1      -3.612  -3.563  24.329  0.00  0.00    +0.000 C 
ATOM     32  C   UNL     1      -4.078  -3.144  23.793  0.00  0.00    +0.000 C 
ATOM     33  C   UNL     1      -4.081  -2.319  23.805  0.00  0.00    +0.009 C 
ENDBRANCH  26  28
BRANCH  13  15
ATOM     15  C   UNL     1      -5.481   4.068  25.595  0.00  0.00    +0.184 C 
ATOM     16  O   UNL     1      -6.211   3.794  25.862  0.00  0.00    -0.220 OA
ENDBRANCH  13  15
BRANCH   8   7
ATOM      7  C   UNL     1      -2.838   2.143  23.922  0.00  0.00    +0.093 C 
BRANCH   7   5
ATOM      4  N   UNL     1      -1.428   1.925  23.858  0.00  0.00    -0.207 NA
ATOM      5  C   UNL     1      -2.114   2.038  24.302  0.00  0.00    +0.242 C 
ATOM      6  O   UNL     1      -2.076   2.045  25.126  0.00  0.00    -0.273 OA
BRANCH   4   2
ATOM      1  C   UNL     1      -0.416   1.058  24.372  0.00  0.00    +0.023 C 
ATOM      2  C   UNL     1      -0.704   1.820  24.238  0.00  0.00    +0.095 C 
ATOM      3  C   UNL     1      -0.266   2.475  24.484  0.00  0.00    +0.023 C 
ENDBRANCH   4   2
ENDBRANCH   7   5
ENDBRANCH   8   7
TORSDOF 5
ENDMDL
MODEL 6
REMARK VINA RESULT:     -12.6      1.394      3.181
REMARK  Name = 
REMARK  5 active torsions:
REMARK  status: ('A' for Active; 'I' for Inactive)
REMARK    1  A    between atoms: C_2  and  N_4
REMARK    2  A    between atoms: C_5  and  C_7
REMARK    3  A    between atoms: C_7  and  C_8
REMARK    4  A    between atoms: C_13  and  C_15
REMARK    5  A    between atoms: C_26  and  C_28
REMARK                            x       y       z     vdW  Elec       q    Type
REMARK                         _______ _______ _______ _____ _____    ______ ____
ROOT
ATOM      8  C   UNL     1      -2.374  -0.197  25.040  0.00  0.00    +0.050 C 
ATOM      9  C   UNL     1      -3.103   0.184  24.967  0.00  0.00    +0.063 A 
ATOM     10  C   UNL     1      -3.765  -0.236  24.709  0.00  0.00    +0.023 A 
ATOM     11  C   UNL     1      -3.697  -1.038  24.525  0.00  0.00    +0.034 C 
ATOM     12  C   UNL     1      -2.970  -1.419  24.598  0.00  0.00    +0.010 C 
ATOM     13  C   UNL     1      -2.903  -2.219  24.414  0.00  0.00    +0.059 C 
ATOM     14  C   UNL     1      -3.705  -2.103  24.258  0.00  0.00    +0.005 C 
ATOM     17  C   UNL     1      -2.175  -2.601  24.487  0.00  0.00    +0.154 C 
ATOM     18  O   UNL     1      -2.108  -3.403  24.302  0.00  0.00    -0.223 OA
ATOM     19  C   UNL     1      -1.514  -2.181  24.744  0.00  0.00    +0.033 C 
ATOM     20  C   UNL     1      -1.580  -1.379  24.929  0.00  0.00    +0.003 C 
ATOM     21  C   UNL     1      -2.308  -0.998  24.855  0.00  0.00    +0.006 C 
ATOM     22  C   UNL     1      -1.647  -0.578  25.113  0.00  0.00    +0.000 C 
ATOM     23  S   UNL     1      -4.406   0.283  24.691  0.00  0.00    -0.054 S 
ATOM     24  C   UNL     1      -4.140   1.024  24.937  0.00  0.00    +0.185 A 
ATOM     25  N   UNL     1      -4.599   1.706  25.001  0.00  0.00    -0.154 NA
ATOM     26  C   UNL     1      -4.255   2.412  25.256  0.00  0.00    +0.247 C 
ATOM     27  O   UNL     1      -3.453   2.434  25.447  0.00  0.00    -0.273 OA
ATOM     34  N   UNL     1      -3.335   0.964  25.108  0.00  0.00    -0.227 NA
ENDROOT
BRANCH  26  28
ATOM     28  C   UNL     1      -4.714   3.095  25.321  0.00  0.00    +0.079 C 
ATOM     29  C   UNL     1      -5.458   3.060  25.673  0.00  0.00    +0.009 C 
ATOM     30  C   UNL     1      -5.917   3.742  25.737  0.00  0.00    +0.000 C 
ATOM     31  C   UNL     1      -5.631   4.461  25.449  0.00  0.00    +0.000 C 
ATOM     32  C   UNL     1      -4.885   4.496  25.096  0.00  0.00    +0.000 C 
ATOM     33  C   UNL     1      -4.427   3.813  25.032  0.00  0.00    +0.009 C 
ENDBRANCH  26  28
BRANCH  13  15
ATOM     15  C   UNL     1      -3.115  -2.981  24.175  0.00  0.00    +0.184 C 
ATOM     16  O   UNL     1      -3.911  -3.185  24.105  0.00  0.00    -0.220 OA
ENDBRANCH  13  15
BRANCH   8   7
ATOM      7  C   UNL     1      -1.713   0.223  25.297  0.00  0.00    +0.093 C 
BRANCH   7   5
ATOM      4  N   UNL     1      -0.713   1.212  25.047  0.00  0.00    -0.207 NA
ATOM      5  C   UNL     1      -1.295   0.698  24.769  0.00  0.00    +0.242 C 
ATOM      6  O   UNL     1      -1.459   0.659  23.961  0.00  0.00    -0.273 OA
BRANCH   4   2
ATOM      1  C   UNL     1      -0.531   2.467  24.390  0.00  0.00    +0.023 C 
ATOM      2  C   UNL     1      -0.295   1.687  24.519  0.00  0.00    +0.095 C 
ATOM      3  C   UNL     1       0.359   1.383  24.118  0.00  0.00    +0.023 C 
ENDBRANCH   4   2
ENDBRANCH   7   5
ENDBRANCH   8   7
TORSDOF 5
ENDMDL
MODEL 7
REMARK VINA RESULT:     -12.5      2.009      3.982
REMARK  Name = 
REMARK  5 active torsions:
REMARK  status: ('A' for Active; 'I' for Inactive)
REMARK    1  A    between atoms: C_2  and  N_4
REMARK    2  A    between atoms: C_5  and  C_7
REMARK    3  A    between atoms: C_7  and  C_8
REMARK    4  A    between atoms: C_13  and  C_15
REMARK    5  A    between atoms: C_26  and  C_28
REMARK                            x       y       z     vdW  Elec       q    Type
REMARK                         _______ _______ _______ _____ _____    ______ ____
ROOT
ATOM      8  C   UNL     1      -3.490   0.650  24.892  0.00  0.00    +0.050 C 
ATOM      9  C   UNL     1      -2.824   0.977  24.530  0.00  0.00    +0.063 A 
ATOM     10  C   UNL     1      -2.832   1.765  24.287  0.00  0.00    +0.023 A 
ATOM     11  C   UNL     1      -3.506   2.226  24.405  0.00  0.00    +0.034 C 
ATOM     12  C   UNL     1      -4.171   1.900  24.767  0.00  0.00    +0.010 C 
ATOM     13  C   UNL     1      -4.844   2.361  24.885  0.00  0.00    +0.059 C 
ATOM     14  C   UNL     1      -4.354   2.914  24.520  0.00  0.00    +0.005 C 
ATOM     17  C   UNL     1      -5.510   2.034  25.247  0.00  0.00    +0.154 C 
ATOM     18  O   UNL     1      -6.184   2.495  25.365  0.00  0.00    -0.223 OA
ATOM     19  C   UNL     1      -5.502   1.246  25.491  0.00  0.00    +0.033 C 
ATOM     20  C   UNL     1      -4.828   0.784  25.372  0.00  0.00    +0.003 C 
ATOM     21  C   UNL     1      -4.163   1.112  25.010  0.00  0.00    +0.006 C 
ATOM     22  C   UNL     1      -4.155   0.323  25.254  0.00  0.00    +0.000 C 
ATOM     23  S   UNL     1      -2.099   1.935  23.948  0.00  0.00    -0.054 S 
ATOM     24  C   UNL     1      -1.639   1.252  23.982  0.00  0.00    +0.185 A 
ATOM     25  N   UNL     1      -0.865   1.175  23.705  0.00  0.00    -0.154 NA
ATOM     26  C   UNL     1      -0.471   0.453  23.777  0.00  0.00    +0.247 C 
ATOM     27  O   UNL     1      -0.851  -0.191  24.127  0.00  0.00    -0.273 OA
ATOM     34  N   UNL     1      -2.086   0.660  24.342  0.00  0.00    -0.227 NA
ENDROOT
BRANCH  26  28
ATOM     28  C   UNL     1       0.302   0.375  23.500  0.00  0.00    +0.079 C 
ATOM     29  C   UNL     1       0.497  -0.243  22.991  0.00  0.00    +0.009 C 
ATOM     30  C   UNL     1       1.270  -0.321  22.714  0.00  0.00    +0.000 C 
ATOM     31  C   UNL     1       1.848   0.220  22.946  0.00  0.00    +0.000 C 
ATOM     32  C   UNL     1       1.652   0.839  23.455  0.00  0.00    +0.000 C 
ATOM     33  C   UNL     1       0.879   0.917  23.733  0.00  0.00    +0.009 C 
ENDBRANCH  26  28
BRANCH  13  15
ATOM     15  C   UNL     1      -5.348   3.014  24.877  0.00  0.00    +0.184 C 
ATOM     16  O   UNL     1      -5.037   3.776  24.921  0.00  0.00    -0.220 OA
ENDBRANCH  13  15
BRANCH   8   7
ATOM      7  C   UNL     1      -3.481  -0.137  25.136  0.00  0.00    +0.093 C 
BRANCH   7   5
ATOM      4  N   UNL     1      -3.519  -1.529  24.813  0.00  0.00    -0.207 NA
ATOM      5  C   UNL     1      -3.607  -0.741  24.587  0.00  0.00    +0.242 C 
ATOM      6  O   UNL     1      -3.820  -0.554  23.813  0.00  0.00    -0.273 OA
BRANCH   4   2
ATOM      1  C   UNL     1      -3.044  -2.675  24.104  0.00  0.00    +0.023 C 
ATOM      2  C   UNL     1      -3.644  -2.131  24.264  0.00  0.00    +0.095 C 
ATOM      3  C   UNL     1      -4.369  -2.191  23.875  0.00  0.00    +0.023 C 
ENDBRANCH   4   2
ENDBRANCH   7   5
ENDBRANCH   8   7
TORSDOF 5
ENDMDL
MODEL 8
REMARK VINA RESULT:     -12.5      2.136      4.506
REMARK  Name = 
REMARK  5 active torsions:
REMARK  status: ('A' for Active; 'I' for Inactive)
REMARK    1  A    between atoms: C_2  and  N_4
REMARK    2  A    between atoms: C_5  and  C_7
REMARK    3  A    between atoms: C_7  and  C_8
REMARK    4  A    between atoms: C_13  and  C_15
REMARK    5  A    between atoms: C_26  and  C_28
REMARK                            x       y       z     vdW  Elec       q    Type
REMARK                         _______ _______ _______ _____ _____    ______ ____
ROOT
ATOM      8  C   UNL     1      -3.090   2.796  25.343  0.00  0.00    +0.050 C 
ATOM      9  C   UNL     1      -2.846   2.133  24.918  0.00  0.00    +0.063 A 
ATOM     10  C   UNL     1      -3.406   1.623  24.591  0.00  0.00    +0.023 A 
ATOM     11  C   UNL     1      -4.210   1.776  24.689  0.00  0.00    +0.034 C 
ATOM     12  C   UNL     1      -4.455   2.439  25.114  0.00  0.00    +0.010 C 
ATOM     13  C   UNL     1      -5.259   2.592  25.213  0.00  0.00    +0.059 C 
ATOM     14  C   UNL     1      -5.299   1.899  24.768  0.00  0.00    +0.005 C 
ATOM     17  C   UNL     1      -5.504   3.255  25.638  0.00  0.00    +0.154 C 
ATOM     18  O   UNL     1      -6.309   3.409  25.737  0.00  0.00    -0.223 OA
ATOM     19  C   UNL     1      -4.944   3.765  25.965  0.00  0.00    +0.033 C 
ATOM     20  C   UNL     1      -4.139   3.612  25.867  0.00  0.00    +0.003 C 
ATOM     21  C   UNL     1      -3.895   2.949  25.442  0.00  0.00    +0.006 C 
ATOM     22  C   UNL     1      -3.335   3.459  25.769  0.00  0.00    +0.000 C 
ATOM     23  S   UNL     1      -3.002   1.017  24.202  0.00  0.00    -0.054 S 
ATOM     24  C   UNL     1      -2.194   1.152  24.289  0.00  0.00    +0.185 A 
ATOM     25  N   UNL     1      -1.588   0.681  23.986  0.00  0.00    -0.154 NA
ATOM     26  C   UNL     1      -0.800   0.887  24.118  0.00  0.00    +0.247 C 
ATOM     27  O   UNL     1      -0.618   1.564  24.553  0.00  0.00    -0.273 OA
ATOM     34  N   UNL     1      -2.096   1.842  24.731  0.00  0.00    -0.227 NA
ENDROOT
BRANCH  26  28
ATOM     28  C   UNL     1      -0.194   0.416  23.816  0.00  0.00    +0.079 C 
ATOM     29  C   UNL     1      -0.138  -0.376  24.037  0.00  0.00    +0.009 C 
ATOM     30  C   UNL     1       0.467  -0.848  23.735  0.00  0.00    +0.000 C 
ATOM     31  C   UNL     1       1.018  -0.527  23.211  0.00  0.00    +0.000 C 
ATOM     32  C   UNL     1       0.962   0.267  22.989  0.00  0.00    +0.000 C 
ATOM     33  C   UNL     1       0.356   0.738  23.292  0.00  0.00    +0.009 C 
ENDBRANCH  26  28
BRANCH  13  15
ATOM     15  C   UNL     1      -6.078   2.505  25.157  0.00  0.00    +0.184 C 
ATOM     16  O   UNL     1      -6.399   1.820  24.829  0.00  0.00    -0.220 OA
ENDBRANCH  13  15
BRANCH   8   7
ATOM      7  C   UNL     1      -2.531   3.306  25.670  0.00  0.00    +0.093 C 
BRANCH   7   5
ATOM      4  N   UNL     1      -1.530   4.310  25.490  0.00  0.00    -0.207 NA
ATOM      5  C   UNL     1      -2.174   3.883  25.201  0.00  0.00    +0.242 C 
ATOM      6  O   UNL     1      -2.463   4.033  24.443  0.00  0.00    -0.273 OA
BRANCH   4   2
ATOM      1  C   UNL     1      -0.504   4.701  24.576  0.00  0.00    +0.023 C 
ATOM      2  C   UNL     1      -1.174   4.887  25.021  0.00  0.00    +0.095 C 
ATOM      3  C   UNL     1      -1.487   5.650  24.995  0.00  0.00    +0.023 C 
ENDBRANCH   4   2
ENDBRANCH   7   5
ENDBRANCH   8   7
TORSDOF 5
ENDMDL
