MODEL 1
REMARK VINA RESULT:      -8.8      0.000      0.000
REMARK  Name = 
REMARK  7 active torsions:
REMARK  status: ('A' for Active; 'I' for Inactive)
REMARK    1  A    between atoms: C_6  and  C_7
REMARK    2  A    between atoms: C_7  and  N_8
REMARK    3  A    between atoms: N_8  and  C_9
REMARK    4  A    between atoms: C_12  and  C_13
REMARK    5  A    between atoms: C_13  and  N_14
REMARK    6  A    between atoms: N_14  and  S_15
REMARK    7  A    between atoms: S_15  and  C_18
REMARK                            x       y       z     vdW  Elec       q    Type
REMARK                         _______ _______ _______ _____ _____    ______ ____
ROOT
ATOM      9  C   UNL     1      -0.875   2.077  25.172  0.00  0.00    +0.136 C 
ATOM     10  C   UNL     1      -0.609   1.691  25.850  0.00  0.00    +0.162 C 
ATOM     11  O   UNL     1      -0.809   0.893  25.785  0.00  0.00    -0.350 OA
ATOM     12  C   UNL     1      -1.198   0.786  25.065  0.00  0.00    +0.166 C 
ATOM     25  C   UNL     1      -1.239   1.518  24.686  0.00  0.00    +0.199 C 
ATOM     26  O   UNL     1      -1.584   1.665  23.951  0.00  0.00    -0.219 OA
ENDROOT
BRANCH   9   8
ATOM      8  N   UNL     1      -0.791   2.882  25.007  0.00  0.00    -0.206 NA
BRANCH   8   7
ATOM      7  C   UNL     1      -1.147   3.442  25.497  0.00  0.00    +0.152 C 
BRANCH   7   6
ATOM      1  C   UNL     1      -2.496   4.587  25.794  0.00  0.00    +0.132 C 
ATOM      2  N   UNL     1      -1.790   4.761  25.406  0.00  0.00    -0.311 N 
ATOM      3  C   UNL     1      -1.579   5.492  25.085  0.00  0.00    +0.098 A 
ATOM      4  C   UNL     1      -0.828   5.417  24.751  0.00  0.00    +0.119 A 
ATOM      5  N   UNL     1      -0.575   4.640  24.865  0.00  0.00    -0.228 NA
ATOM      6  C   UNL     1      -1.169   4.234  25.269  0.00  0.00    +0.138 A 
ENDBRANCH   7   6
ENDBRANCH   8   7
ENDBRANCH   9   8
BRANCH  12  13
ATOM     13  C   UNL     1      -1.494   0.073  24.775  0.00  0.00    +0.148 C 
BRANCH  13  14
ATOM     14  N   UNL     1      -1.869  -0.456  25.285  0.00  0.00    -0.075 NA
BRANCH  14  15
ATOM     15  S   UNL     1      -2.397  -1.014  24.986  0.00  0.00    +0.077 S 
ATOM     16  O   UNL     1      -1.807  -1.304  24.488  0.00  0.00    -0.152 OA
ATOM     17  O   UNL     1      -2.987  -0.724  25.485  0.00  0.00    -0.152 OA
BRANCH  15  18
ATOM     18  C   UNL     1      -2.925  -1.574  24.687  0.00  0.00    +0.124 A 
ATOM     19  C   UNL     1      -2.792  -2.378  24.819  0.00  0.00    +0.020 A 
ATOM     20  C   UNL     1      -3.320  -2.937  24.520  0.00  0.00    -0.003 A 
ATOM     21  C   UNL     1      -3.979  -2.692  24.088  0.00  0.00    -0.022 A 
ATOM     22  C   UNL     1      -4.507  -3.251  23.789  0.00  0.00    +0.031 C 
ATOM     23  C   UNL     1      -4.111  -1.889  23.956  0.00  0.00    -0.003 A 
ATOM     24  C   UNL     1      -3.583  -1.330  24.256  0.00  0.00    +0.020 A 
ENDBRANCH  15  18
ENDBRANCH  14  15
ENDBRANCH  13  14
ENDBRANCH  12  13
TORSDOF 7
ENDMDL
MODEL 2
REMARK VINA RESULT:      -8.6      1.568      2.000
REMARK  Name = 
REMARK  7 active torsions:
REMARK  status: ('A' for Active; 'I' for Inactive)
REMARK    1  A    between atoms: C_6  and  C_7
REMARK    2  A    between atoms: C_7  and  N_8
REMARK    3  A    between atoms: N_8  and  C_9
REMARK    4  A    between atoms: C_12  and  C_13
REMARK    5  A    between atoms: C_13  and  N_14
REMARK    6  A    between atoms: N_14  and  S_15
REMARK    7  A    between atoms: S_15  and  C_18
REMARK                            x       y       z     vdW  Elec       q    Type
REMARK                         _______ _______ _______ _____ _____    ______ ____
ROOT
ATOM      9  C   UNL     1      -3.362   2.963  24.818  0.00  0.00    +0.136 C 
ATOM     10  C   UNL     1      -3.963   2.886  25.377  0.00  0.00    +0.162 C 
ATOM     11  O   UNL     1      -4.304   2.140  25.284  0.00  0.00    -0.350 OA
ATOM     12  C   UNL     1      -3.914   1.756  24.666  0.00  0.00    +0.166 C 
ATOM     25  C   UNL     1      -3.331   2.265  24.378  0.00  0.00    +0.199 C 
ATOM     26  O   UNL     1      -2.810   2.104  23.759  0.00  0.00    -0.219 OA
ENDROOT
BRANCH   9   8
ATOM      8  N   UNL     1      -2.876   3.622  24.715  0.00  0.00    -0.206 NA
BRANCH   8   7
ATOM      7  C   UNL     1      -2.268   3.773  25.251  0.00  0.00    +0.152 C 
BRANCH   7   6
ATOM      1  C   UNL     1      -0.475   3.714  25.324  0.00  0.00    +0.132 C 
ATOM      2  N   UNL     1      -0.932   4.381  25.160  0.00  0.00    -0.311 N 
ATOM      3  C   UNL     1      -0.645   5.138  25.000  0.00  0.00    +0.098 A 
ATOM      4  C   UNL     1      -1.292   5.633  24.868  0.00  0.00    +0.119 A 
ATOM      5  N   UNL     1      -1.978   5.182  24.946  0.00  0.00    -0.228 NA
ATOM      6  C   UNL     1      -1.756   4.408  25.126  0.00  0.00    +0.138 A 
ENDBRANCH   7   6
ENDBRANCH   8   7
ENDBRANCH   9   8
BRANCH  12  13
ATOM     13  C   UNL     1      -4.077   0.998  24.386  0.00  0.00    +0.148 C 
BRANCH  13  14
ATOM     14  N   UNL     1      -4.359   0.420  24.902  0.00  0.00    -0.075 NA
BRANCH  14  15
ATOM     15  S   UNL     1      -4.181  -0.374  24.769  0.00  0.00    +0.077 S 
ATOM     16  O   UNL     1      -4.404  -0.293  23.980  0.00  0.00    -0.152 OA
ATOM     17  O   UNL     1      -3.957  -0.457  25.560  0.00  0.00    -0.152 OA
BRANCH  15  18
ATOM     18  C   UNL     1      -4.002  -1.169  24.636  0.00  0.00    +0.124 A 
ATOM     19  C   UNL     1      -4.322  -1.559  23.983  0.00  0.00    +0.020 A 
ATOM     20  C   UNL     1      -4.144  -2.354  23.850  0.00  0.00    -0.003 A 
ATOM     21  C   UNL     1      -3.646  -2.757  24.369  0.00  0.00    -0.022 A 
ATOM     22  C   UNL     1      -3.467  -3.552  24.235  0.00  0.00    +0.031 C 
ATOM     23  C   UNL     1      -3.326  -2.367  25.021  0.00  0.00    -0.003 A 
ATOM     24  C   UNL     1      -3.504  -1.573  25.154  0.00  0.00    +0.020 A 
ENDBRANCH  15  18
ENDBRANCH  14  15
ENDBRANCH  13  14
ENDBRANCH  12  13
TORSDOF 7
ENDMDL
MODEL 3
REMARK VINA RESULT:      -8.6      2.005      6.121
REMARK  Name = 
REMARK  7 active torsions:
REMARK  status: ('A' for Active; 'I' for Inactive)
REMARK    1  A    between atoms: C_6  and  C_7
REMARK    2  A    between atoms: C_7  and  N_8
REMARK    3  A    between atoms: N_8  and  C_9
REMARK    4  A    between atoms: C_12  and  C_13
REMARK    5  A    between atoms: C_13  and  N_14
REMARK    6  A    between atoms: N_14  and  S_15
REMARK    7  A    between atoms: S_15  and  C_18
REMARK                            x       y       z     vdW  Elec       q    Type
REMARK                         _______ _______ _______ _____ _____    ______ ____
ROOT
ATOM      9  C   UNL     1      -4.187   0.343  24.535  0.00  0.00    +0.136 C 
ATOM     10  C   UNL     1      -4.638   0.653  25.152  0.00  0.00    +0.162 C 
ATOM     11  O   UNL     1      -4.428   1.445  25.248  0.00  0.00    -0.350 OA
ATOM     12  C   UNL     1      -3.847   1.625  24.690  0.00  0.00    +0.166 C 
ATOM     25  C   UNL     1      -3.699   0.943  24.249  0.00  0.00    +0.199 C 
ATOM     26  O   UNL     1      -3.157   0.874  23.631  0.00  0.00    -0.219 OA
ENDROOT
BRANCH   9   8
ATOM      8  N   UNL     1      -4.219  -0.432  24.253  0.00  0.00    -0.206 NA
BRANCH   8   7
ATOM      7  C   UNL     1      -4.048  -1.062  24.758  0.00  0.00    +0.152 C 
BRANCH   7   6
ATOM      1  C   UNL     1      -3.185  -2.434  25.528  0.00  0.00    +0.132 C 
ATOM      2  N   UNL     1      -3.590  -2.458  24.809  0.00  0.00    -0.311 N 
ATOM      3  C   UNL     1      -3.669  -3.117  24.319  0.00  0.00    +0.098 A 
ATOM      4  C   UNL     1      -4.115  -2.893  23.661  0.00  0.00    +0.119 A 
ATOM      5  N   UNL     1      -4.311  -2.096  23.746  0.00  0.00    -0.228 NA
ATOM      6  C   UNL     1      -3.987  -1.827  24.455  0.00  0.00    +0.138 A 
ENDBRANCH   7   6
ENDBRANCH   8   7
ENDBRANCH   9   8
BRANCH  12  13
ATOM     13  C   UNL     1      -3.481   2.357  24.590  0.00  0.00    +0.148 C 
BRANCH  13  14
ATOM     14  N   UNL     1      -3.255   2.798  25.249  0.00  0.00    -0.075 NA
BRANCH  14  15
ATOM     15  S   UNL     1      -2.689   3.393  25.172  0.00  0.00    +0.077 S 
ATOM     16  O   UNL     1      -3.199   3.814  24.679  0.00  0.00    -0.152 OA
ATOM     17  O   UNL     1      -2.179   2.972  25.666  0.00  0.00    -0.152 OA
BRANCH  15  18
ATOM     18  C   UNL     1      -2.123   3.989  25.096  0.00  0.00    +0.124 A 
ATOM     19  C   UNL     1      -1.349   3.797  24.880  0.00  0.00    +0.020 A 
ATOM     20  C   UNL     1      -0.783   4.393  24.804  0.00  0.00    -0.003 A 
ATOM     21  C   UNL     1      -0.991   5.179  24.942  0.00  0.00    -0.022 A 
ATOM     22  C   UNL     1      -0.425   5.775  24.865  0.00  0.00    +0.031 C 
ATOM     23  C   UNL     1      -1.764   5.371  25.157  0.00  0.00    -0.003 A 
ATOM     24  C   UNL     1      -2.330   4.775  25.234  0.00  0.00    +0.020 A 
ENDBRANCH  15  18
ENDBRANCH  14  15
ENDBRANCH  13  14
ENDBRANCH  12  13
TORSDOF 7
ENDMDL
MODEL 4
REMARK VINA RESULT:      -8.3      3.186      4.287
REMARK  Name = 
REMARK  7 active torsions:
REMARK  status: ('A' for Active; 'I' for Inactive)
REMARK    1  A    between atoms: C_6  and  C_7
REMARK    2  A    between atoms: C_7  and  N_8
REMARK    3  A    between atoms: N_8  and  C_9
REMARK    4  A    between atoms: C_12  and  C_13
REMARK    5  A    between atoms: C_13  and  N_14
REMARK    6  A    between atoms: N_14  and  S_15
REMARK    7  A    between atoms: S_15  and  C_18
REMARK                            x       y       z     vdW  Elec       q    Type
REMARK                         _______ _______ _______ _____ _____    ______ ____
ROOT
ATOM      9  C   UNL     1       0.201   0.508  23.779  0.00  0.00    +0.136 C 
ATOM     10  C   UNL     1      -0.110  -0.252  23.849  0.00  0.00    +0.162 C 
ATOM     11  O   UNL     1      -0.901  -0.185  24.075  0.00  0.00    -0.350 OA
ATOM     12  C   UNL     1      -1.079   0.618  24.143  0.00  0.00    +0.166 C 
ATOM     25  C   UNL     1      -0.398   1.047  23.961  0.00  0.00    +0.199 C 
ATOM     26  O   UNL     1      -0.327   1.868  23.960  0.00  0.00    -0.219 OA
ENDROOT
BRANCH   9   8
ATOM      8  N   UNL     1       0.975   0.698  23.565  0.00  0.00    -0.206 NA
BRANCH   8   7
ATOM      7  C   UNL     1       1.400   0.195  23.068  0.00  0.00    +0.152 C 
BRANCH   7   6
ATOM      1  C   UNL     1       2.259  -0.357  21.592  0.00  0.00    +0.132 C 
ATOM      2  N   UNL     1       2.572   0.126  22.183  0.00  0.00    -0.311 N 
ATOM      3  C   UNL     1       3.335   0.440  22.199  0.00  0.00    +0.098 A 
ATOM      4  C   UNL     1       3.412   0.888  22.888  0.00  0.00    +0.119 A 
ATOM      5  N   UNL     1       2.697   0.851  23.298  0.00  0.00    -0.228 NA
ATOM      6  C   UNL     1       2.178   0.380  22.862  0.00  0.00    +0.138 A 
ENDBRANCH   7   6
ENDBRANCH   8   7
ENDBRANCH   9   8
BRANCH  12  13
ATOM     13  C   UNL     1      -1.809   0.936  24.357  0.00  0.00    +0.148 C 
BRANCH  13  14
ATOM     14  N   UNL     1      -2.501   0.509  24.222  0.00  0.00    -0.075 NA
BRANCH  14  15
ATOM     15  S   UNL     1      -3.233   0.837  24.411  0.00  0.00    +0.077 S 
ATOM     16  O   UNL     1      -3.055   0.771  25.213  0.00  0.00    -0.152 OA
ATOM     17  O   UNL     1      -3.412   0.904  23.608  0.00  0.00    -0.152 OA
BRANCH  15  18
ATOM     18  C   UNL     1      -3.966   1.167  24.601  0.00  0.00    +0.124 A 
ATOM     19  C   UNL     1      -4.532   0.712  24.994  0.00  0.00    +0.020 A 
ATOM     20  C   UNL     1      -5.265   1.041  25.185  0.00  0.00    -0.003 A 
ATOM     21  C   UNL     1      -5.431   1.823  24.981  0.00  0.00    -0.022 A 
ATOM     22  C   UNL     1      -6.163   2.152  25.172  0.00  0.00    +0.031 C 
ATOM     23  C   UNL     1      -4.865   2.277  24.588  0.00  0.00    -0.003 A 
ATOM     24  C   UNL     1      -4.132   1.948  24.398  0.00  0.00    +0.020 A 
ENDBRANCH  15  18
ENDBRANCH  14  15
ENDBRANCH  13  14
ENDBRANCH  12  13
TORSDOF 7
ENDMDL
MODEL 5
REMARK VINA RESULT:      -8.0      1.398      5.817
REMARK  Name = 
REMARK  7 active torsions:
REMARK  status: ('A' for Active; 'I' for Inactive)
REMARK    1  A    between atoms: C_6  and  C_7
REMARK    2  A    between atoms: C_7  and  N_8
REMARK    3  A    between atoms: N_8  and  C_9
REMARK    4  A    between atoms: C_12  and  C_13
REMARK    5  A    between atoms: C_13  and  N_14
REMARK    6  A    between atoms: N_14  and  S_15
REMARK    7  A    between atoms: S_15  and  C_18
REMARK                            x       y       z     vdW  Elec       q    Type
REMARK                         _______ _______ _______ _____ _____    ______ ____
ROOT
ATOM      9  C   UNL     1      -1.633  -0.495  25.058  0.00  0.00    +0.136 C 
ATOM     10  C   UNL     1      -1.359  -0.456  25.834  0.00  0.00    +0.162 C 
ATOM     11  O   UNL     1      -1.020   0.288  25.948  0.00  0.00    -0.350 OA
ATOM     12  C   UNL     1      -1.086   0.709  25.240  0.00  0.00    +0.166 C 
ATOM     25  C   UNL     1      -1.465   0.224  24.691  0.00  0.00    +0.199 C 
ATOM     26  O   UNL     1      -1.645   0.424  23.911  0.00  0.00    -0.219 OA
ENDROOT
BRANCH   9   8
ATOM      8  N   UNL     1      -2.011  -1.142  24.709  0.00  0.00    -0.206 NA
BRANCH   8   7
ATOM      7  C   UNL     1      -2.799  -1.304  24.889  0.00  0.00    +0.152 C 
BRANCH   7   6
ATOM      1  C   UNL     1      -4.424  -1.399  24.133  0.00  0.00    +0.132 C 
ATOM      2  N   UNL     1      -3.904  -2.030  24.245  0.00  0.00    -0.311 N 
ATOM      3  C   UNL     1      -4.040  -2.815  24.029  0.00  0.00    +0.098 A 
ATOM      4  C   UNL     1      -3.376  -3.256  24.243  0.00  0.00    +0.119 A 
ATOM      5  N   UNL     1      -2.830  -2.744  24.591  0.00  0.00    -0.228 NA
ATOM      6  C   UNL     1      -3.157  -1.986  24.592  0.00  0.00    +0.138 A 
ENDBRANCH   7   6
ENDBRANCH   8   7
ENDBRANCH   9   8
BRANCH  12  13
ATOM     13  C   UNL     1      -0.820   1.478  25.107  0.00  0.00    +0.148 C 
BRANCH  13  14
ATOM     14  N   UNL     1      -0.846   2.035  25.714  0.00  0.00    -0.075 NA
BRANCH  14  15
ATOM     15  S   UNL     1      -0.961   2.832  25.539  0.00  0.00    +0.077 S 
ATOM     16  O   UNL     1      -1.639   2.838  26.008  0.00  0.00    -0.152 OA
ATOM     17  O   UNL     1      -0.282   2.827  25.068  0.00  0.00    -0.152 OA
BRANCH  15  18
ATOM     18  C   UNL     1      -1.076   3.630  25.363  0.00  0.00    +0.124 A 
ATOM     19  C   UNL     1      -0.483   4.057  24.978  0.00  0.00    +0.020 A 
ATOM     20  C   UNL     1      -0.599   4.856  24.802  0.00  0.00    -0.003 A 
ATOM     21  C   UNL     1      -1.305   5.226  25.011  0.00  0.00    -0.022 A 
ATOM     22  C   UNL     1      -1.421   6.024  24.836  0.00  0.00    +0.031 C 
ATOM     23  C   UNL     1      -1.898   4.799  25.396  0.00  0.00    -0.003 A 
ATOM     24  C   UNL     1      -1.782   4.001  25.571  0.00  0.00    +0.020 A 
ENDBRANCH  15  18
ENDBRANCH  14  15
ENDBRANCH  13  14
ENDBRANCH  12  13
TORSDOF 7
ENDMDL
MODEL 6
REMARK VINA RESULT:      -5.2     16.790     18.298
REMARK  Name = 
REMARK  7 active torsions:
REMARK  status: ('A' for Active; 'I' for Inactive)
REMARK    1  A    between atoms: C_6  and  C_7
REMARK    2  A    between atoms: C_7  and  N_8
REMARK    3  A    between atoms: N_8  and  C_9
REMARK    4  A    between atoms: C_12  and  C_13
REMARK    5  A    between atoms: C_13  and  N_14
REMARK    6  A    between atoms: N_14  and  S_15
REMARK    7  A    between atoms: S_15  and  C_18
REMARK                            x       y       z     vdW  Elec       q    Type
REMARK                         _______ _______ _______ _____ _____    ______ ____
ROOT
ATOM      9  C   UNL     1      14.005   7.580  20.682  0.00  0.00    +0.136 C 
ATOM     10  C   UNL     1      13.356   7.130  20.920  0.00  0.00    +0.162 C 
ATOM     11  O   UNL     1      12.698   7.382  20.490  0.00  0.00    -0.350 OA
ATOM     12  C   UNL     1      12.941   7.989  19.986  0.00  0.00    +0.166 C 
ATOM     25  C   UNL     1      13.748   8.111  20.104  0.00  0.00    +0.199 C 
ATOM     26  O   UNL     1      14.217   8.666  19.715  0.00  0.00    -0.219 OA
ENDROOT
BRANCH   9   8
ATOM      8  N   UNL     1      14.775   7.511  20.970  0.00  0.00    -0.206 NA
BRANCH   8   7
ATOM      7  C   UNL     1      15.194   6.809  20.864  0.00  0.00    +0.152 C 
BRANCH   7   6
ATOM      1  C   UNL     1      16.470   6.074  19.838  0.00  0.00    +0.132 C 
ATOM      2  N   UNL     1      16.586   6.441  20.567  0.00  0.00    -0.311 N 
ATOM      3  C   UNL     1      17.309   6.535  20.954  0.00  0.00    +0.098 A 
ATOM      4  C   UNL     1      17.170   6.931  21.664  0.00  0.00    +0.119 A 
ATOM      5  N   UNL     1      16.360   7.081  21.717  0.00  0.00    -0.228 NA
ATOM      6  C   UNL     1      16.000   6.779  21.039  0.00  0.00    +0.138 A 
ENDBRANCH   7   6
ENDBRANCH   8   7
ENDBRANCH   9   8
BRANCH  12  13
ATOM     13  C   UNL     1      12.461   8.400  19.457  0.00  0.00    +0.148 C 
BRANCH  13  14
ATOM     14  N   UNL     1      11.842   8.013  19.074  0.00  0.00    -0.075 NA
BRANCH  14  15
ATOM     15  S   UNL     1      11.630   8.229  18.307  0.00  0.00    +0.077 S 
ATOM     16  O   UNL     1      11.445   7.444  18.137  0.00  0.00    -0.152 OA
ATOM     17  O   UNL     1      11.816   9.015  18.477  0.00  0.00    -0.152 OA
BRANCH  15  18
ATOM     18  C   UNL     1      11.419   8.445  17.539  0.00  0.00    +0.124 A 
ATOM     19  C   UNL     1      11.965   8.830  17.054  0.00  0.00    +0.020 A 
ATOM     20  C   UNL     1      11.754   9.046  16.286  0.00  0.00    -0.003 A 
ATOM     21  C   UNL     1      10.997   8.877  16.004  0.00  0.00    -0.022 A 
ATOM     22  C   UNL     1      10.786   9.093  15.236  0.00  0.00    +0.031 C 
ATOM     23  C   UNL     1      10.452   8.493  16.488  0.00  0.00    -0.003 A 
ATOM     24  C   UNL     1      10.663   8.277  17.256  0.00  0.00    +0.020 A 
ENDBRANCH  15  18
ENDBRANCH  14  15
ENDBRANCH  13  14
ENDBRANCH  12  13
TORSDOF 7
ENDMDL
