MODEL 1
REMARK VINA RESULT:     -10.8      0.000      0.000
REMARK  Name = 
REMARK  7 active torsions:
REMARK  status: ('A' for Active; 'I' for Inactive)
REMARK    1  A    between atoms: C_2  and  C_5
REMARK    2  A    between atoms: C_8  and  C_11
REMARK    3  A    between atoms: N_13  and  C_14
REMARK    4  A    between atoms: C_18  and  O_22
REMARK    5  A    between atoms: O_22  and  C_23
REMARK    6  A    between atoms: N_25  and  C_26
REMARK    7  A    between atoms: C_28  and  C_32
REMARK                            x       y       z     vdW  Elec       q    Type
REMARK                         _______ _______ _______ _____ _____    ______ ____
ROOT
ATOM     14  C   UNL     1       1.156   0.403  23.233  0.00  0.00    +0.155 C 
ATOM     15  C   UNL     1       0.770  -0.027  22.644  0.00  0.00    +0.166 C 
ATOM     16  O   UNL     1      -0.031   0.166  22.672  0.00  0.00    -0.348 OA
ATOM     17  C   UNL     1      -0.141   0.715  23.277  0.00  0.00    +0.186 C 
ATOM     18  C   UNL     1      -0.703   1.174  23.670  0.00  0.00    +0.229 C 
ATOM     19  C   UNL     1      -0.317   1.604  24.258  0.00  0.00    +0.188 C 
ATOM     20  O   UNL     1       0.484   1.411  24.230  0.00  0.00    -0.348 OA
ATOM     21  C   UNL     1       0.594   0.861  23.624  0.00  0.00    +0.168 C 
ENDROOT
BRANCH  14  13
ATOM     11  C   UNL     1       2.505   0.209  22.801  0.00  0.00    +0.265 C 
ATOM     12  O   UNL     1       2.237   0.063  22.033  0.00  0.00    -0.268 OA
ATOM     13  N   UNL     1       1.964   0.378  23.400  0.00  0.00    -0.198 NA
BRANCH  11   8
ATOM      5  C   UNL     1       4.927   0.136  23.302  0.00  0.00    +0.071 A 
ATOM      6  C   UNL     1       4.451  -0.516  23.473  0.00  0.00    +0.004 A 
ATOM      7  C   UNL     1       3.644  -0.491  23.306  0.00  0.00    +0.005 A 
ATOM      8  C   UNL     1       3.312   0.184  22.968  0.00  0.00    +0.055 A 
ATOM      9  C   UNL     1       3.788   0.836  22.797  0.00  0.00    +0.005 A 
ATOM     10  C   UNL     1       4.596   0.812  22.964  0.00  0.00    +0.004 A 
BRANCH   5   2
ATOM      1  F   UNL     1       6.543   0.087  23.636  0.00  0.00    -0.166 F 
ATOM      2  C   UNL     1       5.735   0.112  23.469  0.00  0.00    +0.419 C 
ATOM      3  F   UNL     1       5.876  -0.242  22.738  0.00  0.00    -0.166 F 
ATOM      4  F   UNL     1       5.594   0.466  24.201  0.00  0.00    -0.166 F 
ENDBRANCH   5   2
ENDBRANCH  11   8
ENDBRANCH  14  13
BRANCH  18  22
ATOM     22  O   UNL     1      -1.511   1.198  23.502  0.00  0.00    -0.432 OA
BRANCH  22  23
ATOM     23  C   UNL     1      -2.056   0.918  24.055  0.00  0.00    +0.425 C 
ATOM     24  O   UNL     1      -1.973   1.116  24.852  0.00  0.00    -0.224 OA
ATOM     25  N   UNL     1      -2.682   0.441  23.812  0.00  0.00    -0.142 NA
BRANCH  25  26
ATOM     26  C   UNL     1      -3.227   0.161  24.364  0.00  0.00    +0.077 A 
ATOM     27  C   UNL     1      -3.177  -0.616  24.637  0.00  0.00    +0.021 A 
ATOM     28  C   UNL     1      -3.721  -0.895  25.189  0.00  0.00    +0.073 A 
ATOM     29  C   UNL     1      -4.317  -0.398  25.470  0.00  0.00    +0.004 A 
ATOM     30  C   UNL     1      -4.368   0.379  25.197  0.00  0.00    +0.001 A 
ATOM     31  C   UNL     1      -3.823   0.658  24.645  0.00  0.00    +0.017 A 
BRANCH  28  32
ATOM     32  C   UNL     1      -3.671  -1.673  25.461  0.00  0.00    +0.419 C 
ATOM     33  F   UNL     1      -3.620  -2.449  25.734  0.00  0.00    -0.166 F 
ATOM     34  F   UNL     1      -3.325  -1.405  26.161  0.00  0.00    -0.166 F 
ATOM     35  F   UNL     1      -4.017  -1.941  24.762  0.00  0.00    -0.166 F 
ENDBRANCH  28  32
ENDBRANCH  25  26
ENDBRANCH  22  23
ENDBRANCH  18  22
TORSDOF 7
ENDMDL
MODEL 2
REMARK VINA RESULT:     -10.7      1.740      2.094
REMARK  Name = 
REMARK  7 active torsions:
REMARK  status: ('A' for Active; 'I' for Inactive)
REMARK    1  A    between atoms: C_2  and  C_5
REMARK    2  A    between atoms: C_8  and  C_11
REMARK    3  A    between atoms: N_13  and  C_14
REMARK    4  A    between atoms: C_18  and  O_22
REMARK    5  A    between atoms: O_22  and  C_23
REMARK    6  A    between atoms: N_25  and  C_26
REMARK    7  A    between atoms: C_28  and  C_32
REMARK                            x       y       z     vdW  Elec       q    Type
REMARK                         _______ _______ _______ _____ _____    ______ ____
ROOT
ATOM     14  C   UNL     1       0.922   0.278  23.321  0.00  0.00    +0.155 C 
ATOM     15  C   UNL     1       0.542  -0.211  22.776  0.00  0.00    +0.166 C 
ATOM     16  O   UNL     1      -0.269  -0.075  22.834  0.00  0.00    -0.348 OA
ATOM     17  C   UNL     1      -0.392   0.498  23.414  0.00  0.00    +0.186 C 
ATOM     18  C   UNL     1      -0.968   0.937  23.809  0.00  0.00    +0.229 C 
ATOM     19  C   UNL     1      -0.588   1.426  24.354  0.00  0.00    +0.188 C 
ATOM     20  O   UNL     1       0.223   1.290  24.295  0.00  0.00    -0.348 OA
ATOM     21  C   UNL     1       0.345   0.717  23.715  0.00  0.00    +0.168 C 
ENDROOT
BRANCH  14  13
ATOM     11  C   UNL     1       2.260   0.153  22.834  0.00  0.00    +0.265 C 
ATOM     12  O   UNL     1       1.968  -0.060  22.091  0.00  0.00    -0.268 OA
ATOM     13  N   UNL     1       1.736   0.322  23.448  0.00  0.00    -0.198 NA
BRANCH  11   8
ATOM      5  C   UNL     1       4.701   0.283  23.215  0.00  0.00    +0.071 A 
ATOM      6  C   UNL     1       4.298   0.929  22.899  0.00  0.00    +0.004 A 
ATOM      7  C   UNL     1       3.485   0.886  22.772  0.00  0.00    +0.005 A 
ATOM      8  C   UNL     1       3.073   0.196  22.961  0.00  0.00    +0.055 A 
ATOM      9  C   UNL     1       3.476  -0.451  23.277  0.00  0.00    +0.005 A 
ATOM     10  C   UNL     1       4.290  -0.407  23.405  0.00  0.00    +0.004 A 
BRANCH   5   2
ATOM      1  F   UNL     1       6.330   0.369  23.470  0.00  0.00    -0.166 F 
ATOM      2  C   UNL     1       5.515   0.326  23.343  0.00  0.00    +0.419 C 
ATOM      3  F   UNL     1       5.645  -0.138  22.673  0.00  0.00    -0.166 F 
ATOM      4  F   UNL     1       5.386   0.789  24.013  0.00  0.00    -0.166 F 
ENDBRANCH   5   2
ENDBRANCH  11   8
ENDBRANCH  14  13
BRANCH  18  22
ATOM     22  O   UNL     1      -1.782   0.894  23.682  0.00  0.00    -0.432 OA
BRANCH  22  23
ATOM     23  C   UNL     1      -2.291   1.403  24.084  0.00  0.00    +0.425 C 
ATOM     24  O   UNL     1      -2.168   1.560  24.885  0.00  0.00    -0.224 OA
ATOM     25  N   UNL     1      -2.921   1.756  23.687  0.00  0.00    -0.142 NA
BRANCH  25  26
ATOM     26  C   UNL     1      -3.430   2.266  24.089  0.00  0.00    +0.077 A 
ATOM     27  C   UNL     1      -4.143   1.983  24.393  0.00  0.00    +0.021 A 
ATOM     28  C   UNL     1      -4.651   2.492  24.795  0.00  0.00    +0.073 A 
ATOM     29  C   UNL     1      -4.447   3.286  24.894  0.00  0.00    +0.004 A 
ATOM     30  C   UNL     1      -3.733   3.569  24.591  0.00  0.00    +0.001 A 
ATOM     31  C   UNL     1      -3.225   3.059  24.189  0.00  0.00    +0.017 A 
BRANCH  28  32
ATOM     32  C   UNL     1      -5.365   2.209  25.098  0.00  0.00    +0.419 C 
ATOM     33  F   UNL     1      -6.077   1.926  25.401  0.00  0.00    -0.166 F 
ATOM     34  F   UNL     1      -5.679   2.186  24.335  0.00  0.00    -0.166 F 
ATOM     35  F   UNL     1      -5.050   2.233  25.860  0.00  0.00    -0.166 F 
ENDBRANCH  28  32
ENDBRANCH  25  26
ENDBRANCH  22  23
ENDBRANCH  18  22
TORSDOF 7
ENDMDL
MODEL 3
REMARK VINA RESULT:     -10.6      1.631      7.461
REMARK  Name = 
REMARK  7 active torsions:
REMARK  status: ('A' for Active; 'I' for Inactive)
REMARK    1  A    between atoms: C_2  and  C_5
REMARK    2  A    between atoms: C_8  and  C_11
REMARK    3  A    between atoms: N_13  and  C_14
REMARK    4  A    between atoms: C_18  and  O_22
REMARK    5  A    between atoms: O_22  and  C_23
REMARK    6  A    between atoms: N_25  and  C_26
REMARK    7  A    between atoms: C_28  and  C_32
REMARK                            x       y       z     vdW  Elec       q    Type
REMARK                         _______ _______ _______ _____ _____    ______ ____
ROOT
ATOM     14  C   UNL     1      -1.431   0.177  24.306  0.00  0.00    +0.155 C 
ATOM     15  C   UNL     1      -1.289  -0.617  24.479  0.00  0.00    +0.166 C 
ATOM     16  O   UNL     1      -0.549  -0.815  24.173  0.00  0.00    -0.348 OA
ATOM     17  C   UNL     1      -0.234  -0.145  23.812  0.00  0.00    +0.186 C 
ATOM     18  C   UNL     1       0.418   0.148  23.400  0.00  0.00    +0.229 C 
ATOM     19  C   UNL     1       0.276   0.942  23.227  0.00  0.00    +0.188 C 
ATOM     20  O   UNL     1      -0.464   1.140  23.533  0.00  0.00    -0.348 OA
ATOM     21  C   UNL     1      -0.779   0.469  23.894  0.00  0.00    +0.168 C 
ENDROOT
BRANCH  14  13
ATOM     11  C   UNL     1      -2.855   0.285  24.372  0.00  0.00    +0.265 C 
ATOM     12  O   UNL     1      -2.926  -0.462  24.028  0.00  0.00    -0.268 OA
ATOM     13  N   UNL     1      -2.107   0.604  24.510  0.00  0.00    -0.198 NA
BRANCH  11   8
ATOM      5  C   UNL     1      -4.882   1.565  24.983  0.00  0.00    +0.071 A 
ATOM      6  C   UNL     1      -4.302   1.913  24.511  0.00  0.00    +0.004 A 
ATOM      7  C   UNL     1      -3.627   1.486  24.307  0.00  0.00    +0.005 A 
ATOM      8  C   UNL     1      -3.530   0.712  24.575  0.00  0.00    +0.055 A 
ATOM      9  C   UNL     1      -4.110   0.364  25.048  0.00  0.00    +0.005 A 
ATOM     10  C   UNL     1      -4.787   0.791  25.252  0.00  0.00    +0.004 A 
BRANCH   5   2
ATOM      1  F   UNL     1      -6.235   2.419  25.392  0.00  0.00    -0.166 F 
ATOM      2  C   UNL     1      -5.558   1.992  25.188  0.00  0.00    +0.419 C 
ATOM      3  F   UNL     1      -5.130   2.396  25.765  0.00  0.00    -0.166 F 
ATOM      4  F   UNL     1      -5.988   1.588  24.610  0.00  0.00    -0.166 F 
ENDBRANCH   5   2
ENDBRANCH  11   8
ENDBRANCH  14  13
BRANCH  18  22
ATOM     22  O   UNL     1       1.094  -0.279  23.196  0.00  0.00    -0.432 OA
BRANCH  22  23
ATOM     23  C   UNL     1       1.832   0.090  23.195  0.00  0.00    +0.425 C 
ATOM     24  O   UNL     1       1.911   0.852  23.503  0.00  0.00    -0.224 OA
ATOM     25  N   UNL     1       2.489  -0.301  22.888  0.00  0.00    -0.142 NA
BRANCH  25  26
ATOM     26  C   UNL     1       3.227   0.069  22.887  0.00  0.00    +0.077 A 
ATOM     27  C   UNL     1       3.825  -0.203  23.385  0.00  0.00    +0.021 A 
ATOM     28  C   UNL     1       4.562   0.166  23.385  0.00  0.00    +0.073 A 
ATOM     29  C   UNL     1       4.702   0.809  22.886  0.00  0.00    +0.004 A 
ATOM     30  C   UNL     1       4.103   1.082  22.388  0.00  0.00    +0.001 A 
ATOM     31  C   UNL     1       3.366   0.711  22.389  0.00  0.00    +0.017 A 
BRANCH  28  32
ATOM     32  C   UNL     1       5.161  -0.107  23.883  0.00  0.00    +0.419 C 
ATOM     33  F   UNL     1       5.759  -0.380  24.380  0.00  0.00    -0.166 F 
ATOM     34  F   UNL     1       5.199   0.634  24.243  0.00  0.00    -0.166 F 
ATOM     35  F   UNL     1       5.123  -0.848  23.523  0.00  0.00    -0.166 F 
ENDBRANCH  28  32
ENDBRANCH  25  26
ENDBRANCH  22  23
ENDBRANCH  18  22
TORSDOF 7
ENDMDL
