MODEL 1
REMARK VINA RESULT:     -11.9      0.000      0.000
REMARK  Name = 
REMARK  4 active torsions:
REMARK  status: ('A' for Active; 'I' for Inactive)
REMARK    1  A    between atoms: C_6  and  C_7
REMARK    2  A    between atoms: C_7  and  N_8
REMARK    3  A    between atoms: C_11  and  C_13
REMARK    4  A    between atoms: C_19  and  C_22
REMARK                            x       y       z     vdW  Elec       q    Type
REMARK                         _______ _______ _______ _____ _____    ______ ____
ROOT
ATOM      8  N   UNL     1      -2.126  -0.956  25.510  0.00  0.00    -0.269 NA
ATOM      9  C   UNL     1      -1.394  -1.129  25.171  0.00  0.00    +0.073 C 
ATOM     10  C   UNL     1      -0.978  -0.420  25.089  0.00  0.00    +0.026 C 
ATOM     11  C   UNL     1      -1.454   0.189  25.378  0.00  0.00    +0.076 C 
ATOM     12  C   UNL     1      -2.163  -0.142  25.638  0.00  0.00    +0.080 C 
ENDROOT
BRANCH  11  13
ATOM     13  C   UNL     1      -1.254   0.990  25.401  0.00  0.00    +0.140 A 
ATOM     14  N   UNL     1      -0.545   1.305  25.680  0.00  0.00    -0.229 NA
ATOM     15  C   UNL     1      -0.582   2.125  25.601  0.00  0.00    +0.100 A 
ATOM     16  C   UNL     1      -1.315   2.317  25.274  0.00  0.00    +0.101 A 
ATOM     17  N   UNL     1      -1.730   1.616  25.150  0.00  0.00    -0.229 NA
ATOM     18  C   UNL     1      -1.508   3.106  25.131  0.00  0.00    +0.031 A 
ATOM     19  C   UNL     1      -0.970   3.703  25.315  0.00  0.00    +0.070 A 
ATOM     20  C   UNL     1      -0.237   3.511  25.642  0.00  0.00    +0.012 A 
ATOM     21  C   UNL     1      -0.043   2.722  25.786  0.00  0.00    +0.021 A 
BRANCH  19  22
ATOM     22  C   UNL     1      -1.163   4.491  25.172  0.00  0.00    +0.100 C 
ATOM     23  N   UNL     1      -1.357   5.281  25.028  0.00  0.00    -0.191 NA
ENDBRANCH  19  22
ENDBRANCH  11  13
BRANCH   8   7
ATOM      7  C   UNL     1      -2.717  -1.502  25.690  0.00  0.00    +0.099 C 
BRANCH   7   6
ATOM      1  F   UNL     1      -4.679  -2.659  23.302  0.00  0.00    -0.202 F 
ATOM      2  C   UNL     1      -4.188  -2.370  23.899  0.00  0.00    +0.167 A 
ATOM      3  C   UNL     1      -4.298  -1.606  24.189  0.00  0.00    +0.167 A 
ATOM      4  F   UNL     1      -4.899  -1.130  23.883  0.00  0.00    -0.202 F 
ATOM      5  C   UNL     1      -3.808  -1.316  24.786  0.00  0.00    +0.029 A 
ATOM      6  C   UNL     1      -3.207  -1.792  25.093  0.00  0.00    -0.004 A 
ATOM     24  C   UNL     1      -3.097  -2.556  24.803  0.00  0.00    -0.000 A 
ATOM     25  C   UNL     1      -3.587  -2.845  24.205  0.00  0.00    +0.032 A 
ENDBRANCH   7   6
ENDBRANCH   8   7
TORSDOF 4
ENDMDL
MODEL 2
REMARK VINA RESULT:     -11.8      2.636      5.846
REMARK  Name = 
REMARK  4 active torsions:
REMARK  status: ('A' for Active; 'I' for Inactive)
REMARK    1  A    between atoms: C_6  and  C_7
REMARK    2  A    between atoms: C_7  and  N_8
REMARK    3  A    between atoms: C_11  and  C_13
REMARK    4  A    between atoms: C_19  and  C_22
REMARK                            x       y       z     vdW  Elec       q    Type
REMARK                         _______ _______ _______ _____ _____    ______ ____
ROOT
ATOM      8  N   UNL     1      -3.335   3.150  25.315  0.00  0.00    -0.269 NA
ATOM      9  C   UNL     1      -3.853   3.268  24.684  0.00  0.00    +0.073 C 
ATOM     10  C   UNL     1      -4.065   2.528  24.386  0.00  0.00    +0.026 C 
ATOM     11  C   UNL     1      -3.677   1.953  24.833  0.00  0.00    +0.076 C 
ATOM     12  C   UNL     1      -3.227   2.337  25.407  0.00  0.00    +0.080 C 
ENDROOT
BRANCH  11  13
ATOM     13  C   UNL     1      -3.731   1.137  24.725  0.00  0.00    +0.140 A 
ATOM     14  N   UNL     1      -4.148   0.754  24.125  0.00  0.00    -0.229 NA
ATOM     15  C   UNL     1      -4.052  -0.059  24.227  0.00  0.00    +0.100 A 
ATOM     16  C   UNL     1      -3.575  -0.178  24.890  0.00  0.00    +0.101 A 
ATOM     17  N   UNL     1      -3.377   0.560  25.197  0.00  0.00    -0.229 NA
ATOM     18  C   UNL     1      -3.384  -0.945  25.126  0.00  0.00    +0.031 A 
ATOM     19  C   UNL     1      -3.668  -1.592  24.702  0.00  0.00    +0.070 A 
ATOM     20  C   UNL     1      -4.145  -1.472  24.039  0.00  0.00    +0.012 A 
ATOM     21  C   UNL     1      -4.337  -0.706  23.801  0.00  0.00    +0.021 A 
BRANCH  19  22
ATOM     22  C   UNL     1      -3.477  -2.358  24.939  0.00  0.00    +0.100 C 
ATOM     23  N   UNL     1      -3.285  -3.125  25.176  0.00  0.00    -0.191 NA
ENDBRANCH  19  22
ENDBRANCH  11  13
BRANCH   8   7
ATOM      7  C   UNL     1      -2.988   3.740  25.774  0.00  0.00    +0.099 C 
BRANCH   7   6
ATOM      1  F   UNL     1      -0.214   5.207  24.751  0.00  0.00    -0.202 F 
ATOM      2  C   UNL     1      -0.908   4.840  25.007  0.00  0.00    +0.167 A 
ATOM      3  C   UNL     1      -0.883   4.069  25.298  0.00  0.00    +0.167 A 
ATOM      4  F   UNL     1      -0.165   3.664  25.334  0.00  0.00    -0.202 F 
ATOM      5  C   UNL     1      -1.576   3.702  25.554  0.00  0.00    +0.029 A 
ATOM      6  C   UNL     1      -2.294   4.108  25.518  0.00  0.00    -0.004 A 
ATOM     24  C   UNL     1      -2.319   4.879  25.227  0.00  0.00    -0.000 A 
ATOM     25  C   UNL     1      -1.625   5.245  24.971  0.00  0.00    +0.032 A 
ENDBRANCH   7   6
ENDBRANCH   8   7
TORSDOF 4
ENDMDL
MODEL 3
REMARK VINA RESULT:     -11.7      2.588      5.651
REMARK  Name = 
REMARK  4 active torsions:
REMARK  status: ('A' for Active; 'I' for Inactive)
REMARK    1  A    between atoms: C_6  and  C_7
REMARK    2  A    between atoms: C_7  and  N_8
REMARK    3  A    between atoms: C_11  and  C_13
REMARK    4  A    between atoms: C_19  and  C_22
REMARK                            x       y       z     vdW  Elec       q    Type
REMARK                         _______ _______ _______ _____ _____    ______ ____
ROOT
ATOM      8  N   UNL     1      -0.923   2.133  25.253  0.00  0.00    -0.269 NA
ATOM      9  C   UNL     1      -0.496   1.892  24.589  0.00  0.00    +0.073 C 
ATOM     10  C   UNL     1      -0.873   1.230  24.271  0.00  0.00    +0.026 C 
ATOM     11  C   UNL     1      -1.533   1.063  24.737  0.00  0.00    +0.076 C 
ATOM     12  C   UNL     1      -1.564   1.621  25.344  0.00  0.00    +0.080 C 
ENDROOT
BRANCH  11  13
ATOM     13  C   UNL     1      -2.067   0.446  24.618  0.00  0.00    +0.140 A 
ATOM     14  N   UNL     1      -2.848   0.523  24.363  0.00  0.00    -0.229 NA
ATOM     15  C   UNL     1      -3.177  -0.232  24.320  0.00  0.00    +0.100 A 
ATOM     16  C   UNL     1      -2.601  -0.776  24.549  0.00  0.00    +0.101 A 
ATOM     17  N   UNL     1      -1.914  -0.357  24.733  0.00  0.00    -0.229 NA
ATOM     18  C   UNL     1      -2.776  -1.582  24.559  0.00  0.00    +0.031 A 
ATOM     19  C   UNL     1      -3.526  -1.844  24.341  0.00  0.00    +0.070 A 
ATOM     20  C   UNL     1      -4.103  -1.300  24.113  0.00  0.00    +0.012 A 
ATOM     21  C   UNL     1      -3.929  -0.494  24.101  0.00  0.00    +0.021 A 
BRANCH  19  22
ATOM     22  C   UNL     1      -3.701  -2.650  24.352  0.00  0.00    +0.100 C 
ATOM     23  N   UNL     1      -3.875  -3.457  24.363  0.00  0.00    -0.191 NA
ENDBRANCH  19  22
ENDBRANCH  11  13
BRANCH   8   7
ATOM      7  C   UNL     1      -0.742   2.774  25.739  0.00  0.00    +0.099 C 
BRANCH   7   6
ATOM      1  F   UNL     1      -1.849   5.789  24.979  0.00  0.00    -0.202 F 
ATOM      2  C   UNL     1      -1.572   5.035  25.169  0.00  0.00    +0.167 A 
ATOM      3  C   UNL     1      -0.824   4.795  24.919  0.00  0.00    +0.167 A 
ATOM      4  F   UNL     1      -0.351   5.309  24.479  0.00  0.00    -0.202 F 
ATOM      5  C   UNL     1      -0.547   4.041  25.109  0.00  0.00    +0.029 A 
ATOM      6  C   UNL     1      -1.019   3.528  25.549  0.00  0.00    -0.004 A 
ATOM     24  C   UNL     1      -1.768   3.767  25.800  0.00  0.00    -0.000 A 
ATOM     25  C   UNL     1      -2.044   4.521  25.610  0.00  0.00    +0.032 A 
ENDBRANCH   7   6
ENDBRANCH   8   7
TORSDOF 4
ENDMDL
MODEL 4
REMARK VINA RESULT:     -11.5      1.622      2.161
REMARK  Name = 
REMARK  4 active torsions:
REMARK  status: ('A' for Active; 'I' for Inactive)
REMARK    1  A    between atoms: C_6  and  C_7
REMARK    2  A    between atoms: C_7  and  N_8
REMARK    3  A    between atoms: C_11  and  C_13
REMARK    4  A    between atoms: C_19  and  C_22
REMARK                            x       y       z     vdW  Elec       q    Type
REMARK                         _______ _______ _______ _____ _____    ______ ____
ROOT
ATOM      8  N   UNL     1      -3.905  -0.061  25.044  0.00  0.00    -0.269 NA
ATOM      9  C   UNL     1      -4.324   0.224  24.393  0.00  0.00    +0.073 C 
ATOM     10  C   UNL     1      -4.131   1.020  24.294  0.00  0.00    +0.026 C 
ATOM     11  C   UNL     1      -3.593   1.227  24.885  0.00  0.00    +0.076 C 
ATOM     12  C   UNL     1      -3.454   0.559  25.348  0.00  0.00    +0.080 C 
ENDROOT
BRANCH  11  13
ATOM     13  C   UNL     1      -3.255   1.972  24.993  0.00  0.00    +0.140 A 
ATOM     14  N   UNL     1      -3.589   2.601  25.410  0.00  0.00    -0.229 NA
ATOM     15  C   UNL     1      -3.063   3.235  25.377  0.00  0.00    +0.100 A 
ATOM     16  C   UNL     1      -2.405   2.999  24.940  0.00  0.00    +0.101 A 
ATOM     17  N   UNL     1      -2.523   2.219  24.703  0.00  0.00    -0.229 NA
ATOM     18  C   UNL     1      -1.782   3.527  24.816  0.00  0.00    +0.031 A 
ATOM     19  C   UNL     1      -1.818   4.289  25.127  0.00  0.00    +0.070 A 
ATOM     20  C   UNL     1      -2.477   4.525  25.564  0.00  0.00    +0.012 A 
ATOM     21  C   UNL     1      -3.100   3.999  25.690  0.00  0.00    +0.021 A 
BRANCH  19  22
ATOM     22  C   UNL     1      -1.197   4.816  25.002  0.00  0.00    +0.100 C 
ATOM     23  N   UNL     1      -0.574   5.343  24.877  0.00  0.00    -0.191 NA
ENDBRANCH  19  22
ENDBRANCH  11  13
BRANCH   8   7
ATOM      7  C   UNL     1      -3.933  -0.830  25.340  0.00  0.00    +0.099 C 
BRANCH   7   6
ATOM      1  F   UNL     1      -2.084  -3.194  23.966  0.00  0.00    -0.202 F 
ATOM      2  C   UNL     1      -2.546  -2.603  24.309  0.00  0.00    +0.167 A 
ATOM      3  C   UNL     1      -2.215  -2.092  24.865  0.00  0.00    +0.167 A 
ATOM      4  F   UNL     1      -1.422  -2.171  25.079  0.00  0.00    -0.202 F 
ATOM      5  C   UNL     1      -2.677  -1.501  25.209  0.00  0.00    +0.029 A 
ATOM      6  C   UNL     1      -3.471  -1.421  24.996  0.00  0.00    -0.004 A 
ATOM     24  C   UNL     1      -3.802  -1.932  24.440  0.00  0.00    -0.000 A 
ATOM     25  C   UNL     1      -3.339  -2.524  24.096  0.00  0.00    +0.032 A 
ENDBRANCH   7   6
ENDBRANCH   8   7
TORSDOF 4
ENDMDL
