MODEL 1
REMARK VINA RESULT:      -9.6      0.000      0.000
REMARK  Name = 
REMARK  11 active torsions:
REMARK  status: ('A' for Active; 'I' for Inactive)
REMARK    1  A    between atoms: C_2  and  N_4
REMARK    2  A    between atoms: C_5  and  C_7
REMARK    3  A    between atoms: C_7  and  C_8
REMARK    4  A    between atoms: C_10  and  C_11
REMARK    5  A    between atoms: C_11  and  N_12
REMARK    6  A    between atoms: N_12  and  C_13
REMARK    7  A    between atoms: N_12  and  S_28
REMARK    8  A    between atoms: C_13  and  C_14
REMARK    9  A    between atoms: C_16  and  C_17
REMARK   10  A    between atoms: C_17  and  C_18
REMARK   11  A    between atoms: N_20  and  C_21
REMARK                            x       y       z     vdW  Elec       q    Type
REMARK                         _______ _______ _______ _____ _____    ______ ____
ROOT
ATOM     12  N   UNL     1      -2.723   1.372  24.145  0.00  0.00    -0.154 NA
ENDROOT
BRANCH  12  28
ATOM     28  S   UNL     1      -2.657   1.417  23.324  0.00  0.00    +0.046 S 
ATOM     29  C   UNL     1      -2.589   1.462  22.502  0.00  0.00    +0.196 C 
ATOM     30  O   UNL     1      -1.962   1.856  23.405  0.00  0.00    -0.157 OA
ATOM     31  O   UNL     1      -3.350   0.978  23.243  0.00  0.00    -0.157 OA
ENDBRANCH  12  28
BRANCH  12  11
ATOM     11  C   UNL     1      -2.050   1.249  24.607  0.00  0.00    +0.128 C 
BRANCH  11  10
ATOM      8  C   UNL     1      -2.106  -0.733  25.397  0.00  0.00    +0.157 C 
ATOM      9  O   UNL     1      -2.442  -0.125  24.951  0.00  0.00    -0.351 OA
ATOM     10  C   UNL     1      -1.931   0.522  24.977  0.00  0.00    +0.166 C 
ATOM     32  C   UNL     1      -1.279   0.314  25.439  0.00  0.00    +0.213 C 
ATOM     33  O   UNL     1      -0.632   0.797  25.611  0.00  0.00    -0.218 OA
ATOM     34  C   UNL     1      -1.387  -0.461  25.698  0.00  0.00    +0.212 C 
ATOM     35  O   UNL     1      -0.868  -0.890  26.175  0.00  0.00    -0.218 OA
BRANCH   8   7
ATOM      7  C   UNL     1      -2.431  -1.481  25.520  0.00  0.00    +0.119 C 
BRANCH   7   5
ATOM      4  N   UNL     1      -3.555  -2.104  24.895  0.00  0.00    -0.207 NA
ATOM      5  C   UNL     1      -2.757  -1.899  24.887  0.00  0.00    +0.244 C 
ATOM      6  O   UNL     1      -2.283  -2.112  24.246  0.00  0.00    -0.273 OA
BRANCH   4   2
ATOM      1  C   UNL     1      -3.706  -3.322  24.163  0.00  0.00    +0.023 C 
ATOM      2  C   UNL     1      -3.881  -2.522  24.262  0.00  0.00    +0.095 C 
ATOM      3  C   UNL     1      -4.381  -2.139  23.729  0.00  0.00    +0.023 C 
ENDBRANCH   4   2
ENDBRANCH   7   5
ENDBRANCH   8   7
ENDBRANCH  11  10
ENDBRANCH  12  11
BRANCH  12  13
ATOM     13  C   UNL     1      -3.461   1.451  24.504  0.00  0.00    +0.128 C 
BRANCH  13  14
ATOM     14  C   UNL     1      -3.662   2.155  24.885  0.00  0.00    +0.166 C 
ATOM     15  O   UNL     1      -3.149   2.778  25.053  0.00  0.00    -0.351 OA
ATOM     16  C   UNL     1      -3.582   3.368  25.437  0.00  0.00    +0.157 C 
ATOM     24  C   UNL     1      -4.362   3.108  25.505  0.00  0.00    +0.212 C 
ATOM     25  O   UNL     1      -4.983   3.525  25.853  0.00  0.00    -0.218 OA
ATOM     26  C   UNL     1      -4.412   2.358  25.164  0.00  0.00    +0.213 C 
ATOM     27  O   UNL     1      -5.091   1.893  25.111  0.00  0.00    -0.218 OA
BRANCH  16  17
ATOM     17  C   UNL     1      -3.286   4.089  25.704  0.00  0.00    +0.119 C 
BRANCH  17  18
ATOM     18  C   UNL     1      -2.692   4.474  25.279  0.00  0.00    +0.244 C 
ATOM     19  O   UNL     1      -2.843   4.750  24.516  0.00  0.00    -0.273 OA
ATOM     20  N   UNL     1      -1.947   4.583  25.617  0.00  0.00    -0.207 NA
BRANCH  20  21
ATOM     21  C   UNL     1      -1.354   4.968  25.192  0.00  0.00    +0.095 C 
ATOM     22  C   UNL     1      -0.673   4.558  24.972  0.00  0.00    +0.023 C 
ATOM     23  C   UNL     1      -1.442   5.762  24.986  0.00  0.00    +0.023 C 
ENDBRANCH  20  21
ENDBRANCH  17  18
ENDBRANCH  16  17
ENDBRANCH  13  14
ENDBRANCH  12  13
TORSDOF 11
ENDMDL
MODEL 2
REMARK VINA RESULT:      -9.6      0.057      5.365
REMARK  Name = 
REMARK  11 active torsions:
REMARK  status: ('A' for Active; 'I' for Inactive)
REMARK    1  A    between atoms: C_2  and  N_4
REMARK    2  A    between atoms: C_5  and  C_7
REMARK    3  A    between atoms: C_7  and  C_8
REMARK    4  A    between atoms: C_10  and  C_11
REMARK    5  A    between atoms: C_11  and  N_12
REMARK    6  A    between atoms: N_12  and  C_13
REMARK    7  A    between atoms: N_12  and  S_28
REMARK    8  A    between atoms: C_13  and  C_14
REMARK    9  A    between atoms: C_16  and  C_17
REMARK   10  A    between atoms: C_17  and  C_18
REMARK   11  A    between atoms: N_20  and  C_21
REMARK                            x       y       z     vdW  Elec       q    Type
REMARK                         _______ _______ _______ _____ _____    ______ ____
ROOT
ATOM     12  N   UNL     1      -2.711   1.409  24.101  0.00  0.00    -0.154 NA
ENDROOT
BRANCH  12  28
ATOM     28  S   UNL     1      -2.651   1.464  23.280  0.00  0.00    +0.046 S 
ATOM     29  C   UNL     1      -2.592   1.519  22.459  0.00  0.00    +0.196 C 
ATOM     30  O   UNL     1      -1.964   1.913  23.361  0.00  0.00    -0.157 OA
ATOM     31  O   UNL     1      -3.338   1.014  23.199  0.00  0.00    -0.157 OA
ENDBRANCH  12  28
BRANCH  12  11
ATOM     11  C   UNL     1      -3.449   1.471  24.466  0.00  0.00    +0.128 C 
BRANCH  11  10
ATOM      8  C   UNL     1      -3.589   3.368  25.434  0.00  0.00    +0.157 C 
ATOM      9  O   UNL     1      -3.153   2.795  25.031  0.00  0.00    -0.351 OA
ATOM     10  C   UNL     1      -3.656   2.163  24.863  0.00  0.00    +0.166 C 
ATOM     32  C   UNL     1      -4.403   2.345  25.163  0.00  0.00    +0.213 C 
ATOM     33  O   UNL     1      -5.073   1.867  25.118  0.00  0.00    -0.218 OA
ATOM     34  C   UNL     1      -4.362   3.090  25.516  0.00  0.00    +0.212 C 
ATOM     35  O   UNL     1      -4.983   3.486  25.886  0.00  0.00    -0.218 OA
BRANCH   8   7
ATOM      7  C   UNL     1      -3.303   4.092  25.708  0.00  0.00    +0.119 C 
BRANCH   7   5
ATOM      4  N   UNL     1      -1.970   4.595  25.606  0.00  0.00    -0.207 NA
ATOM      5  C   UNL     1      -2.721   4.493  25.283  0.00  0.00    +0.244 C 
ATOM      6  O   UNL     1      -2.891   4.793  24.534  0.00  0.00    -0.273 OA
BRANCH   4   2
ATOM      1  C   UNL     1      -0.704   4.601  24.943  0.00  0.00    +0.023 C 
ATOM      2  C   UNL     1      -1.388   4.997  25.181  0.00  0.00    +0.095 C 
ATOM      3  C   UNL     1      -1.490   5.794  24.995  0.00  0.00    +0.023 C 
ENDBRANCH   4   2
ENDBRANCH   7   5
ENDBRANCH   8   7
ENDBRANCH  11  10
ENDBRANCH  12  11
BRANCH  12  13
ATOM     13  C   UNL     1      -2.033   1.292  24.557  0.00  0.00    +0.128 C 
BRANCH  13  14
ATOM     14  C   UNL     1      -1.908   0.568  24.932  0.00  0.00    +0.166 C 
ATOM     15  O   UNL     1      -2.424  -0.075  24.930  0.00  0.00    -0.351 OA
ATOM     16  C   UNL     1      -2.079  -0.680  25.372  0.00  0.00    +0.157 C 
ATOM     24  C   UNL     1      -1.350  -0.412  25.647  0.00  0.00    +0.212 C 
ATOM     25  O   UNL     1      -0.820  -0.839  26.113  0.00  0.00    -0.218 OA
ATOM     26  C   UNL     1      -1.244   0.360  25.376  0.00  0.00    +0.213 C 
ATOM     27  O   UNL     1      -0.589   0.840  25.521  0.00  0.00    -0.218 OA
BRANCH  16  17
ATOM     17  C   UNL     1      -2.407  -1.424  25.514  0.00  0.00    +0.119 C 
BRANCH  17  18
ATOM     18  C   UNL     1      -2.734  -1.856  24.890  0.00  0.00    +0.244 C 
ATOM     19  O   UNL     1      -2.265  -2.068  24.245  0.00  0.00    -0.273 OA
ATOM     20  N   UNL     1      -3.528  -2.075  24.913  0.00  0.00    -0.207 NA
BRANCH  20  21
ATOM     21  C   UNL     1      -3.855  -2.507  24.290  0.00  0.00    +0.095 C 
ATOM     22  C   UNL     1      -3.652  -3.300  24.187  0.00  0.00    +0.023 C 
ATOM     23  C   UNL     1      -4.383  -2.146  23.769  0.00  0.00    +0.023 C 
ENDBRANCH  20  21
ENDBRANCH  17  18
ENDBRANCH  16  17
ENDBRANCH  13  14
ENDBRANCH  12  13
TORSDOF 11
ENDMDL
MODEL 3
REMARK VINA RESULT:      -8.9      1.372      2.661
REMARK  Name = 
REMARK  11 active torsions:
REMARK  status: ('A' for Active; 'I' for Inactive)
REMARK    1  A    between atoms: C_2  and  N_4
REMARK    2  A    between atoms: C_5  and  C_7
REMARK    3  A    between atoms: C_7  and  C_8
REMARK    4  A    between atoms: C_10  and  C_11
REMARK    5  A    between atoms: C_11  and  N_12
REMARK    6  A    between atoms: N_12  and  C_13
REMARK    7  A    between atoms: N_12  and  S_28
REMARK    8  A    between atoms: C_13  and  C_14
REMARK    9  A    between atoms: C_16  and  C_17
REMARK   10  A    between atoms: C_17  and  C_18
REMARK   11  A    between atoms: N_20  and  C_21
REMARK                            x       y       z     vdW  Elec       q    Type
REMARK                         _______ _______ _______ _____ _____    ______ ____
ROOT
ATOM     12  N   UNL     1      -2.475   1.658  23.552  0.00  0.00    -0.154 NA
ENDROOT
BRANCH  12  28
ATOM     28  S   UNL     1      -2.581   1.865  22.760  0.00  0.00    +0.046 S 
ATOM     29  C   UNL     1      -2.687   2.073  21.969  0.00  0.00    +0.196 C 
ATOM     30  O   UNL     1      -2.856   2.608  22.992  0.00  0.00    -0.157 OA
ATOM     31  O   UNL     1      -2.307   1.123  22.528  0.00  0.00    -0.157 OA
ENDBRANCH  12  28
BRANCH  12  11
ATOM     11  C   UNL     1      -3.045   1.866  24.112  0.00  0.00    +0.128 C 
BRANCH  11  10
ATOM      8  C   UNL     1      -4.223   0.147  24.576  0.00  0.00    +0.157 C 
ATOM      9  O   UNL     1      -3.578   0.499  24.200  0.00  0.00    -0.351 OA
ATOM     10  C   UNL     1      -3.589   1.305  24.374  0.00  0.00    +0.166 C 
ATOM     32  C   UNL     1      -4.242   1.452  24.858  0.00  0.00    +0.213 C 
ATOM     33  O   UNL     1      -4.464   2.186  25.163  0.00  0.00    -0.218 OA
ATOM     34  C   UNL     1      -4.633   0.737  24.982  0.00  0.00    +0.212 C 
ATOM     35  O   UNL     1      -5.316   0.629  25.434  0.00  0.00    -0.218 OA
BRANCH   8   7
ATOM      7  C   UNL     1      -4.423  -0.652  24.550  0.00  0.00    +0.119 C 
BRANCH   7   5
ATOM      4  N   UNL     1      -3.655  -1.825  24.271  0.00  0.00    -0.207 NA
ATOM      5  C   UNL     1      -3.876  -1.223  24.789  0.00  0.00    +0.244 C 
ATOM      6  O   UNL     1      -3.552  -1.190  25.547  0.00  0.00    -0.273 OA
BRANCH   4   2
ATOM      1  C   UNL     1      -2.307  -2.298  24.336  0.00  0.00    +0.023 C 
ATOM      2  C   UNL     1      -3.108  -2.395  24.510  0.00  0.00    +0.095 C 
ATOM      3  C   UNL     1      -3.363  -3.062  24.923  0.00  0.00    +0.023 C 
ENDBRANCH   4   2
ENDBRANCH   7   5
ENDBRANCH   8   7
ENDBRANCH  11  10
ENDBRANCH  12  11
BRANCH  12  13
ATOM     13  C   UNL     1      -1.800   1.244  23.783  0.00  0.00    +0.128 C 
BRANCH  13  14
ATOM     14  C   UNL     1      -1.206   1.628  24.206  0.00  0.00    +0.166 C 
ATOM     15  O   UNL     1      -1.242   2.395  24.506  0.00  0.00    -0.351 OA
ATOM     16  C   UNL     1      -0.527   2.553  24.889  0.00  0.00    +0.157 C 
ATOM     24  C   UNL     1      -0.050   1.884  24.825  0.00  0.00    +0.212 C 
ATOM     25  O   UNL     1       0.712   1.800  25.130  0.00  0.00    -0.218 OA
ATOM     26  C   UNL     1      -0.469   1.311  24.403  0.00  0.00    +0.213 C 
ATOM     27  O   UNL     1      -0.200   0.556  24.211  0.00  0.00    -0.218 OA
BRANCH  16  17
ATOM     17  C   UNL     1      -0.327   3.258  25.268  0.00  0.00    +0.119 C 
BRANCH  17  18
ATOM     18  C   UNL     1      -0.639   3.973  25.001  0.00  0.00    +0.244 C 
ATOM     19  O   UNL     1      -0.415   4.273  24.266  0.00  0.00    -0.273 OA
ATOM     20  N   UNL     1      -1.177   4.389  25.469  0.00  0.00    -0.207 NA
BRANCH  20  21
ATOM     21  C   UNL     1      -1.489   5.104  25.201  0.00  0.00    +0.095 C 
ATOM     22  C   UNL     1      -0.991   5.677  24.879  0.00  0.00    +0.023 C 
ATOM     23  C   UNL     1      -2.300   5.247  25.256  0.00  0.00    +0.023 C 
ENDBRANCH  20  21
ENDBRANCH  17  18
ENDBRANCH  16  17
ENDBRANCH  13  14
ENDBRANCH  12  13
TORSDOF 11
ENDMDL
MODEL 4
REMARK VINA RESULT:      -8.9      1.370      4.767
REMARK  Name = 
REMARK  11 active torsions:
REMARK  status: ('A' for Active; 'I' for Inactive)
REMARK    1  A    between atoms: C_2  and  N_4
REMARK    2  A    between atoms: C_5  and  C_7
REMARK    3  A    between atoms: C_7  and  C_8
REMARK    4  A    between atoms: C_10  and  C_11
REMARK    5  A    between atoms: C_11  and  N_12
REMARK    6  A    between atoms: N_12  and  C_13
REMARK    7  A    between atoms: N_12  and  S_28
REMARK    8  A    between atoms: C_13  and  C_14
REMARK    9  A    between atoms: C_16  and  C_17
REMARK   10  A    between atoms: C_17  and  C_18
REMARK   11  A    between atoms: N_20  and  C_21
REMARK                            x       y       z     vdW  Elec       q    Type
REMARK                         _______ _______ _______ _____ _____    ______ ____
ROOT
ATOM     12  N   UNL     1      -2.474   1.661  23.552  0.00  0.00    -0.154 NA
ENDROOT
BRANCH  12  28
ATOM     28  S   UNL     1      -2.586   1.869  22.762  0.00  0.00    +0.046 S 
ATOM     29  C   UNL     1      -2.697   2.077  21.971  0.00  0.00    +0.196 C 
ATOM     30  O   UNL     1      -2.304   1.130  22.528  0.00  0.00    -0.157 OA
ATOM     31  O   UNL     1      -2.868   2.608  22.995  0.00  0.00    -0.157 OA
ENDBRANCH  12  28
BRANCH  12  11
ATOM     11  C   UNL     1      -1.796   1.248  23.778  0.00  0.00    +0.128 C 
BRANCH  11  10
ATOM      8  C   UNL     1      -0.516   2.561  24.871  0.00  0.00    +0.157 C 
ATOM      9  O   UNL     1      -1.230   2.404  24.488  0.00  0.00    -0.351 OA
ATOM     10  C   UNL     1      -1.199   1.633  24.198  0.00  0.00    +0.166 C 
ATOM     32  C   UNL     1      -0.467   1.312  24.403  0.00  0.00    +0.213 C 
ATOM     33  O   UNL     1      -0.203   0.551  24.222  0.00  0.00    -0.218 OA
ATOM     34  C   UNL     1      -0.045   1.885  24.818  0.00  0.00    +0.212 C 
ATOM     35  O   UNL     1       0.715   1.799  25.128  0.00  0.00    -0.218 OA
BRANCH   8   7
ATOM      7  C   UNL     1      -0.310   3.268  25.242  0.00  0.00    +0.119 C 
BRANCH   7   5
ATOM      4  N   UNL     1      -1.167   4.390  25.466  0.00  0.00    -0.207 NA
ATOM      5  C   UNL     1      -0.637   3.980  24.985  0.00  0.00    +0.244 C 
ATOM      6  O   UNL     1      -0.434   4.283  24.245  0.00  0.00    -0.273 OA
BRANCH   4   2
ATOM      1  C   UNL     1      -2.306   5.231  25.272  0.00  0.00    +0.023 C 
ATOM      2  C   UNL     1      -1.494   5.102  25.208  0.00  0.00    +0.095 C 
ATOM      3  C   UNL     1      -1.008   5.686  24.886  0.00  0.00    +0.023 C 
ENDBRANCH   4   2
ENDBRANCH   7   5
ENDBRANCH   8   7
ENDBRANCH  11  10
ENDBRANCH  12  11
BRANCH  12  13
ATOM     13  C   UNL     1      -3.040   1.865  24.117  0.00  0.00    +0.128 C 
BRANCH  13  14
ATOM     14  C   UNL     1      -3.582   1.303  24.380  0.00  0.00    +0.166 C 
ATOM     15  O   UNL     1      -3.573   0.498  24.199  0.00  0.00    -0.351 OA
ATOM     16  C   UNL     1      -4.215   0.144  24.578  0.00  0.00    +0.157 C 
ATOM     24  C   UNL     1      -4.621   0.729  24.993  0.00  0.00    +0.212 C 
ATOM     25  O   UNL     1      -5.298   0.619  25.450  0.00  0.00    -0.218 OA
ATOM     26  C   UNL     1      -4.230   1.446  24.871  0.00  0.00    +0.213 C 
ATOM     27  O   UNL     1      -4.448   2.177  25.184  0.00  0.00    -0.218 OA
BRANCH  16  17
ATOM     17  C   UNL     1      -4.415  -0.656  24.546  0.00  0.00    +0.119 C 
BRANCH  17  18
ATOM     18  C   UNL     1      -3.869  -1.227  24.787  0.00  0.00    +0.244 C 
ATOM     19  O   UNL     1      -3.545  -1.194  25.545  0.00  0.00    -0.273 OA
ATOM     20  N   UNL     1      -3.649  -1.830  24.269  0.00  0.00    -0.207 NA
BRANCH  20  21
ATOM     21  C   UNL     1      -3.103  -2.401  24.510  0.00  0.00    +0.095 C 
ATOM     22  C   UNL     1      -2.305  -2.312  24.323  0.00  0.00    +0.023 C 
ATOM     23  C   UNL     1      -3.356  -3.059  24.938  0.00  0.00    +0.023 C 
ENDBRANCH  20  21
ENDBRANCH  17  18
ENDBRANCH  16  17
ENDBRANCH  13  14
ENDBRANCH  12  13
TORSDOF 11
ENDMDL
MODEL 5
REMARK VINA RESULT:      -7.6      1.829      3.196
REMARK  Name = 
REMARK  11 active torsions:
REMARK  status: ('A' for Active; 'I' for Inactive)
REMARK    1  A    between atoms: C_2  and  N_4
REMARK    2  A    between atoms: C_5  and  C_7
REMARK    3  A    between atoms: C_7  and  C_8
REMARK    4  A    between atoms: C_10  and  C_11
REMARK    5  A    between atoms: C_11  and  N_12
REMARK    6  A    between atoms: N_12  and  C_13
REMARK    7  A    between atoms: N_12  and  S_28
REMARK    8  A    between atoms: C_13  and  C_14
REMARK    9  A    between atoms: C_16  and  C_17
REMARK   10  A    between atoms: C_17  and  C_18
REMARK   11  A    between atoms: N_20  and  C_21
REMARK                            x       y       z     vdW  Elec       q    Type
REMARK                         _______ _______ _______ _____ _____    ______ ____
ROOT
ATOM     12  N   UNL     1      -2.337   1.811  23.862  0.00  0.00    -0.154 NA
ENDROOT
BRANCH  12  28
ATOM     28  S   UNL     1      -2.414   1.904  23.046  0.00  0.00    +0.046 S 
ATOM     29  C   UNL     1      -2.490   1.996  22.229  0.00  0.00    +0.196 C 
ATOM     30  O   UNL     1      -1.665   2.250  23.016  0.00  0.00    -0.157 OA
ATOM     31  O   UNL     1      -3.162   1.557  23.076  0.00  0.00    -0.157 OA
ENDBRANCH  12  28
BRANCH  12  11
ATOM     11  C   UNL     1      -2.603   1.119  24.225  0.00  0.00    +0.128 C 
BRANCH  11  10
ATOM      8  C   UNL     1      -0.934  -0.139  24.657  0.00  0.00    +0.157 C 
ATOM      9  O   UNL     1      -1.268   0.504  24.264  0.00  0.00    -0.351 OA
ATOM     10  C   UNL     1      -2.061   0.556  24.487  0.00  0.00    +0.166 C 
ATOM     32  C   UNL     1      -2.216  -0.056  25.019  0.00  0.00    +0.213 C 
ATOM     33  O   UNL     1      -2.941  -0.211  25.382  0.00  0.00    -0.218 OA
ATOM     34  C   UNL     1      -1.520  -0.486  25.124  0.00  0.00    +0.212 C 
ATOM     35  O   UNL     1      -1.425  -1.145  25.610  0.00  0.00    -0.218 OA
BRANCH   8   7
ATOM      7  C   UNL     1      -0.151  -0.392  24.595  0.00  0.00    +0.119 C 
BRANCH   7   5
ATOM      4  N   UNL     1       0.841   0.022  23.654  0.00  0.00    -0.207 NA
ATOM      5  C   UNL     1       0.203  -0.461  23.853  0.00  0.00    +0.244 C 
ATOM      6  O   UNL     1      -0.081  -1.013  23.310  0.00  0.00    -0.273 OA
BRANCH   4   2
ATOM      1  C   UNL     1       2.004   0.093  22.826  0.00  0.00    +0.023 C 
ATOM      2  C   UNL     1       1.195  -0.047  22.912  0.00  0.00    +0.095 C 
ATOM      3  C   UNL     1       0.740  -0.255  22.256  0.00  0.00    +0.023 C 
ENDBRANCH   4   2
ENDBRANCH   7   5
ENDBRANCH   8   7
ENDBRANCH  11  10
ENDBRANCH  12  11
BRANCH  12  13
ATOM     13  C   UNL     1      -1.995   2.410  24.315  0.00  0.00    +0.128 C 
BRANCH  13  14
ATOM     14  C   UNL     1      -2.471   2.911  24.765  0.00  0.00    +0.166 C 
ATOM     15  O   UNL     1      -3.296   2.904  24.788  0.00  0.00    -0.351 OA
ATOM     16  C   UNL     1      -3.540   3.497  25.308  0.00  0.00    +0.157 C 
ATOM     24  C   UNL     1      -2.868   3.868  25.606  0.00  0.00    +0.212 C 
ATOM     25  O   UNL     1      -2.857   4.492  26.146  0.00  0.00    -0.218 OA
ATOM     26  C   UNL     1      -2.206   3.507  25.271  0.00  0.00    +0.213 C 
ATOM     27  O   UNL     1      -1.419   3.705  25.415  0.00  0.00    -0.218 OA
BRANCH  16  17
ATOM     17  C   UNL     1      -4.322   3.683  25.496  0.00  0.00    +0.119 C 
BRANCH  17  18
ATOM     18  C   UNL     1      -4.851   3.083  25.699  0.00  0.00    +0.244 C 
ATOM     19  O   UNL     1      -4.747   2.659  26.399  0.00  0.00    -0.273 OA
ATOM     20  N   UNL     1      -5.485   2.908  25.200  0.00  0.00    -0.207 NA
BRANCH  20  21
ATOM     21  C   UNL     1      -6.015   2.307  25.403  0.00  0.00    +0.095 C 
ATOM     22  C   UNL     1      -6.376   2.310  26.144  0.00  0.00    +0.023 C 
ATOM     23  C   UNL     1      -6.182   1.705  24.864  0.00  0.00    +0.023 C 
ENDBRANCH  20  21
ENDBRANCH  17  18
ENDBRANCH  16  17
ENDBRANCH  13  14
ENDBRANCH  12  13
TORSDOF 11
ENDMDL
MODEL 6
REMARK VINA RESULT:      -7.6      1.829      4.471
REMARK  Name = 
REMARK  11 active torsions:
REMARK  status: ('A' for Active; 'I' for Inactive)
REMARK    1  A    between atoms: C_2  and  N_4
REMARK    2  A    between atoms: C_5  and  C_7
REMARK    3  A    between atoms: C_7  and  C_8
REMARK    4  A    between atoms: C_10  and  C_11
REMARK    5  A    between atoms: C_11  and  N_12
REMARK    6  A    between atoms: N_12  and  C_13
REMARK    7  A    between atoms: N_12  and  S_28
REMARK    8  A    between atoms: C_13  and  C_14
REMARK    9  A    between atoms: C_16  and  C_17
REMARK   10  A    between atoms: C_17  and  C_18
REMARK   11  A    between atoms: N_20  and  C_21
REMARK                            x       y       z     vdW  Elec       q    Type
REMARK                         _______ _______ _______ _____ _____    ______ ____
ROOT
ATOM     12  N   UNL     1      -2.324   1.809  23.868  0.00  0.00    -0.154 NA
ENDROOT
BRANCH  12  28
ATOM     28  S   UNL     1      -2.414   1.884  23.051  0.00  0.00    +0.046 S 
ATOM     29  C   UNL     1      -2.503   1.960  22.234  0.00  0.00    +0.196 C 
ATOM     30  O   UNL     1      -1.671   2.240  23.003  0.00  0.00    -0.157 OA
ATOM     31  O   UNL     1      -3.157   1.529  23.099  0.00  0.00    -0.157 OA
ENDBRANCH  12  28
BRANCH  12  11
ATOM     11  C   UNL     1      -1.986   2.423  24.303  0.00  0.00    +0.128 C 
BRANCH  11  10
ATOM      8  C   UNL     1      -3.536   3.508  25.291  0.00  0.00    +0.157 C 
ATOM      9  O   UNL     1      -3.289   2.914  24.775  0.00  0.00    -0.351 OA
ATOM     10  C   UNL     1      -2.464   2.925  24.750  0.00  0.00    +0.166 C 
ATOM     32  C   UNL     1      -2.202   3.526  25.251  0.00  0.00    +0.213 C 
ATOM     33  O   UNL     1      -1.415   3.731  25.392  0.00  0.00    -0.218 OA
ATOM     34  C   UNL     1      -2.864   3.887  25.585  0.00  0.00    +0.212 C 
ATOM     35  O   UNL     1      -2.856   4.516  26.119  0.00  0.00    -0.218 OA
BRANCH   8   7
ATOM      7  C   UNL     1      -4.318   3.692  25.480  0.00  0.00    +0.119 C 
BRANCH   7   5
ATOM      4  N   UNL     1      -5.471   2.901  25.188  0.00  0.00    -0.207 NA
ATOM      5  C   UNL     1      -4.844   3.092  25.689  0.00  0.00    +0.244 C 
ATOM      6  O   UNL     1      -4.744   2.684  26.398  0.00  0.00    -0.273 OA
BRANCH   4   2
ATOM      1  C   UNL     1      -6.173   1.700  24.859  0.00  0.00    +0.023 C 
ATOM      2  C   UNL     1      -5.998   2.301  25.397  0.00  0.00    +0.095 C 
ATOM      3  C   UNL     1      -6.349   2.302  26.143  0.00  0.00    +0.023 C 
ENDBRANCH   4   2
ENDBRANCH   7   5
ENDBRANCH   8   7
ENDBRANCH  11  10
ENDBRANCH  12  11
BRANCH  12  13
ATOM     13  C   UNL     1      -2.572   1.121  24.248  0.00  0.00    +0.128 C 
BRANCH  13  14
ATOM     14  C   UNL     1      -2.017   0.572  24.513  0.00  0.00    +0.166 C 
ATOM     15  O   UNL     1      -1.228   0.527  24.274  0.00  0.00    -0.351 OA
ATOM     16  C   UNL     1      -0.876  -0.102  24.676  0.00  0.00    +0.157 C 
ATOM     24  C   UNL     1      -1.446  -0.445  25.164  0.00  0.00    +0.212 C 
ATOM     25  O   UNL     1      -1.332  -1.090  25.664  0.00  0.00    -0.218 OA
ATOM     26  C   UNL     1      -2.151  -0.029  25.063  0.00  0.00    +0.213 C 
ATOM     27  O   UNL     1      -2.866  -0.184  25.444  0.00  0.00    -0.218 OA
BRANCH  16  17
ATOM     17  C   UNL     1      -0.091  -0.344  24.603  0.00  0.00    +0.119 C 
BRANCH  17  18
ATOM     18  C   UNL     1       0.242  -0.442  23.854  0.00  0.00    +0.244 C 
ATOM     19  O   UNL     1      -0.056  -1.015  23.342  0.00  0.00    -0.273 OA
ATOM     20  N   UNL     1       0.873   0.034  23.619  0.00  0.00    -0.207 NA
BRANCH  20  21
ATOM     21  C   UNL     1       1.207  -0.063  22.870  0.00  0.00    +0.095 C 
ATOM     22  C   UNL     1       0.726  -0.250  22.227  0.00  0.00    +0.023 C 
ATOM     23  C   UNL     1       2.020   0.026  22.765  0.00  0.00    +0.023 C 
ENDBRANCH  20  21
ENDBRANCH  17  18
ENDBRANCH  16  17
ENDBRANCH  13  14
ENDBRANCH  12  13
TORSDOF 11
ENDMDL
MODEL 7
REMARK VINA RESULT:      -7.6      1.561      2.491
REMARK  Name = 
REMARK  11 active torsions:
REMARK  status: ('A' for Active; 'I' for Inactive)
REMARK    1  A    between atoms: C_2  and  N_4
REMARK    2  A    between atoms: C_5  and  C_7
REMARK    3  A    between atoms: C_7  and  C_8
REMARK    4  A    between atoms: C_10  and  C_11
REMARK    5  A    between atoms: C_11  and  N_12
REMARK    6  A    between atoms: N_12  and  C_13
REMARK    7  A    between atoms: N_12  and  S_28
REMARK    8  A    between atoms: C_13  and  C_14
REMARK    9  A    between atoms: C_16  and  C_17
REMARK   10  A    between atoms: C_17  and  C_18
REMARK   11  A    between atoms: N_20  and  C_21
REMARK                            x       y       z     vdW  Elec       q    Type
REMARK                         _______ _______ _______ _____ _____    ______ ____
ROOT
ATOM     12  N   UNL     1      -1.207   1.556  24.270  0.00  0.00    -0.154 NA
ENDROOT
BRANCH  12  28
ATOM     28  S   UNL     1      -0.471   1.910  24.149  0.00  0.00    +0.046 S 
ATOM     29  C   UNL     1       0.265   2.264  24.028  0.00  0.00    +0.196 C 
ATOM     30  O   UNL     1      -0.304   1.359  23.558  0.00  0.00    -0.157 OA
ATOM     31  O   UNL     1      -0.638   2.461  24.740  0.00  0.00    -0.157 OA
ENDBRANCH  12  28
BRANCH  12  11
ATOM     11  C   UNL     1      -1.424   1.306  25.026  0.00  0.00    +0.128 C 
BRANCH  11  10
ATOM      8  C   UNL     1      -1.658  -0.812  25.151  0.00  0.00    +0.157 C 
ATOM      9  O   UNL     1      -1.790  -0.094  24.766  0.00  0.00    -0.351 OA
ATOM     10  C   UNL     1      -1.430   0.502  25.209  0.00  0.00    +0.166 C 
ATOM     32  C   UNL     1      -1.076   0.152  25.867  0.00  0.00    +0.213 C 
ATOM     33  O   UNL     1      -0.655   0.546  26.458  0.00  0.00    -0.218 OA
ATOM     34  C   UNL     1      -1.217  -0.660  25.832  0.00  0.00    +0.212 C 
ATOM     35  O   UNL     1      -0.962  -1.221  26.380  0.00  0.00    -0.218 OA
BRANCH   8   7
ATOM      7  C   UNL     1      -1.922  -1.552  24.900  0.00  0.00    +0.119 C 
BRANCH   7   5
ATOM      4  N   UNL     1      -3.038  -1.912  24.084  0.00  0.00    -0.207 NA
ATOM      5  C   UNL     1      -2.730  -1.697  24.818  0.00  0.00    +0.244 C 
ATOM      6  O   UNL     1      -3.229  -1.627  25.470  0.00  0.00    -0.273 OA
BRANCH   4   2
ATOM      1  C   UNL     1      -4.365  -1.433  23.850  0.00  0.00    +0.023 C 
ATOM      2  C   UNL     1      -3.846  -2.057  24.002  0.00  0.00    +0.095 C 
ATOM      3  C   UNL     1      -4.136  -2.826  24.072  0.00  0.00    +0.023 C 
ENDBRANCH   4   2
ENDBRANCH   7   5
ENDBRANCH   8   7
ENDBRANCH  11  10
ENDBRANCH  12  11
BRANCH  12  13
ATOM     13  C   UNL     1      -1.724   1.453  23.636  0.00  0.00    +0.128 C 
BRANCH  13  14
ATOM     14  C   UNL     1      -2.363   1.965  23.537  0.00  0.00    +0.166 C 
ATOM     15  O   UNL     1      -2.760   2.367  24.137  0.00  0.00    -0.351 OA
ATOM     16  C   UNL     1      -3.359   2.816  23.790  0.00  0.00    +0.157 C 
ATOM     24  C   UNL     1      -3.333   2.691  22.976  0.00  0.00    +0.212 C 
ATOM     25  O   UNL     1      -3.834   3.031  22.416  0.00  0.00    -0.218 OA
ATOM     26  C   UNL     1      -2.717   2.165  22.818  0.00  0.00    +0.213 C 
ATOM     27  O   UNL     1      -2.494   1.887  22.075  0.00  0.00    -0.218 OA
BRANCH  16  17
ATOM     17  C   UNL     1      -3.892   3.304  24.189  0.00  0.00    +0.119 C 
BRANCH  17  18
ATOM     18  C   UNL     1      -4.288   3.022  24.857  0.00  0.00    +0.244 C 
ATOM     19  O   UNL     1      -3.925   3.055  25.597  0.00  0.00    -0.273 OA
ATOM     20  N   UNL     1      -5.047   2.708  24.782  0.00  0.00    -0.207 NA
BRANCH  20  21
ATOM     21  C   UNL     1      -5.444   2.427  25.450  0.00  0.00    +0.095 C 
ATOM     22  C   UNL     1      -5.704   2.955  26.027  0.00  0.00    +0.023 C 
ATOM     23  C   UNL     1      -5.580   1.618  25.538  0.00  0.00    +0.023 C 
ENDBRANCH  20  21
ENDBRANCH  17  18
ENDBRANCH  16  17
ENDBRANCH  13  14
ENDBRANCH  12  13
TORSDOF 11
ENDMDL
MODEL 8
REMARK VINA RESULT:      -7.5      1.556      4.921
REMARK  Name = 
REMARK  11 active torsions:
REMARK  status: ('A' for Active; 'I' for Inactive)
REMARK    1  A    between atoms: C_2  and  N_4
REMARK    2  A    between atoms: C_5  and  C_7
REMARK    3  A    between atoms: C_7  and  C_8
REMARK    4  A    between atoms: C_10  and  C_11
REMARK    5  A    between atoms: C_11  and  N_12
REMARK    6  A    between atoms: N_12  and  C_13
REMARK    7  A    between atoms: N_12  and  S_28
REMARK    8  A    between atoms: C_13  and  C_14
REMARK    9  A    between atoms: C_16  and  C_17
REMARK   10  A    between atoms: C_17  and  C_18
REMARK   11  A    between atoms: N_20  and  C_21
REMARK                            x       y       z     vdW  Elec       q    Type
REMARK                         _______ _______ _______ _____ _____    ______ ____
ROOT
ATOM     12  N   UNL     1      -1.207   1.585  24.348  0.00  0.00    -0.154 NA
ENDROOT
BRANCH  12  28
ATOM     28  S   UNL     1      -0.482   1.966  24.244  0.00  0.00    +0.046 S 
ATOM     29  C   UNL     1       0.242   2.349  24.142  0.00  0.00    +0.196 C 
ATOM     30  O   UNL     1      -0.674   2.493  24.851  0.00  0.00    -0.157 OA
ATOM     31  O   UNL     1      -0.291   1.441  23.639  0.00  0.00    -0.157 OA
ENDBRANCH  12  28
BRANCH  12  11
ATOM     11  C   UNL     1      -1.711   1.477  23.704  0.00  0.00    +0.128 C 
BRANCH  11  10
ATOM      8  C   UNL     1      -3.365   2.821  23.834  0.00  0.00    +0.157 C 
ATOM      9  O   UNL     1      -2.760   2.385  24.189  0.00  0.00    -0.351 OA
ATOM     10  C   UNL     1      -2.356   1.979  23.595  0.00  0.00    +0.166 C 
ATOM     32  C   UNL     1      -2.710   2.165  22.873  0.00  0.00    +0.213 C 
ATOM     33  O   UNL     1      -2.481   1.880  22.133  0.00  0.00    -0.218 OA
ATOM     34  C   UNL     1      -3.333   2.685  23.021  0.00  0.00    +0.212 C 
ATOM     35  O   UNL     1      -3.837   3.011  22.455  0.00  0.00    -0.218 OA
BRANCH   8   7
ATOM      7  C   UNL     1      -3.905   3.307  24.224  0.00  0.00    +0.119 C 
BRANCH   7   5
ATOM      4  N   UNL     1      -5.073   2.722  24.802  0.00  0.00    -0.207 NA
ATOM      5  C   UNL     1      -4.311   3.027  24.885  0.00  0.00    +0.244 C 
ATOM      6  O   UNL     1      -3.956   3.051  25.628  0.00  0.00    -0.273 OA
BRANCH   4   2
ATOM      1  C   UNL     1      -5.577   1.629  25.574  0.00  0.00    +0.023 C 
ATOM      2  C   UNL     1      -5.480   2.441  25.463  0.00  0.00    +0.095 C 
ATOM      3  C   UNL     1      -5.789   2.973  26.012  0.00  0.00    +0.023 C 
ENDBRANCH   4   2
ENDBRANCH   7   5
ENDBRANCH   8   7
ENDBRANCH  11  10
ENDBRANCH  12  11
BRANCH  12  13
ATOM     13  C   UNL     1      -1.426   1.312  25.095  0.00  0.00    +0.128 C 
BRANCH  13  14
ATOM     14  C   UNL     1      -1.429   0.503  25.254  0.00  0.00    +0.166 C 
ATOM     15  O   UNL     1      -1.791  -0.080  24.797  0.00  0.00    -0.351 OA
ATOM     16  C   UNL     1      -1.655  -0.809  25.160  0.00  0.00    +0.157 C 
ATOM     24  C   UNL     1      -1.209  -0.676  25.841  0.00  0.00    +0.212 C 
ATOM     25  O   UNL     1      -0.949  -1.253  26.370  0.00  0.00    -0.218 OA
ATOM     26  C   UNL     1      -1.069   0.135  25.899  0.00  0.00    +0.213 C 
ATOM     27  O   UNL     1      -0.644   0.512  26.497  0.00  0.00    -0.218 OA
BRANCH  16  17
ATOM     17  C   UNL     1      -1.920  -1.542  24.889  0.00  0.00    +0.119 C 
BRANCH  17  18
ATOM     18  C   UNL     1      -2.729  -1.684  24.809  0.00  0.00    +0.244 C 
ATOM     19  O   UNL     1      -3.224  -1.634  25.468  0.00  0.00    -0.273 OA
ATOM     20  N   UNL     1      -3.043  -1.876  24.071  0.00  0.00    -0.207 NA
BRANCH  20  21
ATOM     21  C   UNL     1      -3.853  -2.018  23.992  0.00  0.00    +0.095 C 
ATOM     22  C   UNL     1      -4.370  -1.390  23.857  0.00  0.00    +0.023 C 
ATOM     23  C   UNL     1      -4.144  -2.788  24.048  0.00  0.00    +0.023 C 
ENDBRANCH  20  21
ENDBRANCH  17  18
ENDBRANCH  16  17
ENDBRANCH  13  14
ENDBRANCH  12  13
TORSDOF 11
ENDMDL
