MODEL 1
REMARK VINA RESULT:     -12.5      0.000      0.000
REMARK  Name = 
REMARK  6 active torsions:
REMARK  status: ('A' for Active; 'I' for Inactive)
REMARK    1  A    between atoms: C_2  and  C_4
REMARK    2  A    between atoms: C_2  and  C_8
REMARK    3  A    between atoms: C_4  and  C_5
REMARK    4  A    between atoms: C_8  and  C_9
REMARK    5  A    between atoms: C_16  and  C_17
REMARK    6  A    between atoms: C_19  and  C_22
REMARK                            x       y       z     vdW  Elec       q    Type
REMARK                         _______ _______ _______ _____ _____    ______ ____
ROOT
ATOM      9  C   UNL     1      -2.707   2.554  24.942  0.00  0.00    +0.226 C 
ATOM     10  O   UNL     1      -2.511   1.860  24.541  0.00  0.00    -0.275 OA
ATOM     11  N   UNL     1      -3.498   2.762  25.044  0.00  0.00    -0.267 N 
ATOM     12  C   UNL     1      -3.693   3.457  25.445  0.00  0.00    +0.141 C 
ATOM     13  C   UNL     1      -4.485   3.665  25.547  0.00  0.00    +0.094 A 
ATOM     14  C   UNL     1      -5.082   3.180  25.248  0.00  0.00    +0.078 A 
ATOM     15  C   UNL     1      -4.886   2.486  24.847  0.00  0.00    +0.077 C 
ATOM     16  C   UNL     1      -4.094   2.278  24.745  0.00  0.00    +0.161 C 
ATOM     32  N   UNL     1      -5.807   3.526  25.432  0.00  0.00    -0.227 NA
ATOM     33  C   UNL     1      -5.660   4.225  25.845  0.00  0.00    +0.198 A 
ATOM     34  N   UNL     1      -4.843   4.311  25.915  0.00  0.00    -0.225 NA
ENDROOT
BRANCH  16  17
ATOM     17  C   UNL     1      -3.899   1.583  24.343  0.00  0.00    +0.255 A 
ATOM     18  N   UNL     1      -3.969   0.816  24.639  0.00  0.00    -0.189 NA
ATOM     19  C   UNL     1      -3.713   0.293  24.054  0.00  0.00    +0.203 A 
ATOM     20  N   UNL     1      -3.485   0.738  23.397  0.00  0.00    -0.056 NA
ATOM     21  O   UNL     1      -3.600   1.535  23.576  0.00  0.00    -0.335 OA
BRANCH  19  22
ATOM     22  C   UNL     1      -3.690  -0.529  24.116  0.00  0.00    +0.039 A 
ATOM     23  C   UNL     1      -3.012  -0.903  24.400  0.00  0.00    +0.003 A 
ATOM     24  C   UNL     1      -2.989  -1.724  24.462  0.00  0.00    +0.000 A 
ATOM     25  C   UNL     1      -2.310  -2.099  24.745  0.00  0.00    +0.000 A 
ATOM     26  C   UNL     1      -2.287  -2.920  24.807  0.00  0.00    +0.000 A 
ATOM     27  C   UNL     1      -2.944  -3.370  24.585  0.00  0.00    +0.000 A 
ATOM     28  C   UNL     1      -3.622  -2.996  24.301  0.00  0.00    +0.000 A 
ATOM     29  C   UNL     1      -3.645  -2.174  24.239  0.00  0.00    +0.000 A 
ATOM     30  C   UNL     1      -4.323  -1.800  23.956  0.00  0.00    +0.000 A 
ATOM     31  C   UNL     1      -4.346  -0.978  23.894  0.00  0.00    +0.003 A 
ENDBRANCH  19  22
ENDBRANCH  16  17
BRANCH   9   8
ATOM      8  C   UNL     1      -2.110   3.040  25.241  0.00  0.00    +0.086 C 
BRANCH   8   2
ATOM      1  C   UNL     1      -1.255   3.201  24.462  0.00  0.00    +0.001 C 
ATOM      2  C   UNL     1      -1.320   2.805  25.184  0.00  0.00    +0.019 C 
ATOM      3  C   UNL     1      -1.386   2.411  25.905  0.00  0.00    +0.001 C 
BRANCH   2   4
ATOM      4  C   UNL     1      -0.532   2.572  25.127  0.00  0.00    +0.115 C 
BRANCH   4   5
ATOM      5  C   UNL     1       0.034   2.906  25.626  0.00  0.00    +0.365 C 
ATOM      6  O   UNL     1       0.137   3.724  25.645  0.00  0.00    -0.246 OA
ATOM      7  O   UNL     1       0.499   2.421  26.106  0.00  0.00    -0.246 OA
ENDBRANCH   4   5
ENDBRANCH   2   4
ENDBRANCH   8   2
ENDBRANCH   9   8
TORSDOF 6
ENDMDL
MODEL 2
REMARK VINA RESULT:     -12.4      1.538      3.174
REMARK  Name = 
REMARK  6 active torsions:
REMARK  status: ('A' for Active; 'I' for Inactive)
REMARK    1  A    between atoms: C_2  and  C_4
REMARK    2  A    between atoms: C_2  and  C_8
REMARK    3  A    between atoms: C_4  and  C_5
REMARK    4  A    between atoms: C_8  and  C_9
REMARK    5  A    between atoms: C_16  and  C_17
REMARK    6  A    between atoms: C_19  and  C_22
REMARK                            x       y       z     vdW  Elec       q    Type
REMARK                         _______ _______ _______ _____ _____    ______ ____
ROOT
ATOM      9  C   UNL     1      -3.430   2.904  24.742  0.00  0.00    +0.226 C 
ATOM     10  O   UNL     1      -3.650   2.162  24.456  0.00  0.00    -0.275 OA
ATOM     11  N   UNL     1      -2.642   3.144  24.702  0.00  0.00    -0.267 N 
ATOM     12  C   UNL     1      -2.422   3.887  24.989  0.00  0.00    +0.141 C 
ATOM     13  C   UNL     1      -1.634   4.126  24.949  0.00  0.00    +0.094 A 
ATOM     14  C   UNL     1      -1.065   3.625  24.623  0.00  0.00    +0.078 A 
ATOM     15  C   UNL     1      -1.286   2.883  24.337  0.00  0.00    +0.077 C 
ATOM     16  C   UNL     1      -2.074   2.643  24.377  0.00  0.00    +0.161 C 
ATOM     32  N   UNL     1      -0.336   4.009  24.658  0.00  0.00    -0.227 NA
ATOM     33  C   UNL     1      -0.453   4.749  25.005  0.00  0.00    +0.198 A 
ATOM     34  N   UNL     1      -1.255   4.820  25.184  0.00  0.00    -0.225 NA
ENDROOT
BRANCH  16  17
ATOM     17  C   UNL     1      -2.294   1.901  24.091  0.00  0.00    +0.255 A 
ATOM     18  N   UNL     1      -2.295   1.196  24.520  0.00  0.00    -0.189 NA
ATOM     19  C   UNL     1      -2.553   0.593  24.019  0.00  0.00    +0.203 A 
ATOM     20  N   UNL     1      -2.711   0.925  23.280  0.00  0.00    -0.056 NA
ATOM     21  O   UNL     1      -2.551   1.734  23.325  0.00  0.00    -0.335 OA
BRANCH  19  22
ATOM     22  C   UNL     1      -2.637  -0.202  24.223  0.00  0.00    +0.039 A 
ATOM     23  C   UNL     1      -3.318  -0.613  24.006  0.00  0.00    +0.003 A 
ATOM     24  C   UNL     1      -3.402  -1.408  24.209  0.00  0.00    +0.000 A 
ATOM     25  C   UNL     1      -4.084  -1.820  23.993  0.00  0.00    +0.000 A 
ATOM     26  C   UNL     1      -4.168  -2.615  24.196  0.00  0.00    +0.000 A 
ATOM     27  C   UNL     1      -3.570  -2.999  24.617  0.00  0.00    +0.000 A 
ATOM     28  C   UNL     1      -2.889  -2.587  24.833  0.00  0.00    +0.000 A 
ATOM     29  C   UNL     1      -2.804  -1.792  24.630  0.00  0.00    +0.000 A 
ATOM     30  C   UNL     1      -2.123  -1.381  24.846  0.00  0.00    +0.000 A 
ATOM     31  C   UNL     1      -2.039  -0.586  24.643  0.00  0.00    +0.003 A 
ENDBRANCH  19  22
ENDBRANCH  16  17
BRANCH   9   8
ATOM      8  C   UNL     1      -3.998   3.406  25.068  0.00  0.00    +0.086 C 
BRANCH   8   2
ATOM      1  C   UNL     1      -4.962   3.367  24.410  0.00  0.00    +0.001 C 
ATOM      2  C   UNL     1      -4.771   3.137  25.179  0.00  0.00    +0.019 C 
ATOM      3  C   UNL     1      -4.580   2.908  25.948  0.00  0.00    +0.001 C 
BRANCH   2   4
ATOM      4  C   UNL     1      -5.542   2.869  25.290  0.00  0.00    +0.115 C 
BRANCH   4   5
ATOM      5  C   UNL     1      -6.014   3.201  25.881  0.00  0.00    +0.365 C 
ATOM      6  O   UNL     1      -6.261   3.985  25.820  0.00  0.00    -0.246 OA
ATOM      7  O   UNL     1      -6.237   2.748  26.534  0.00  0.00    -0.246 OA
ENDBRANCH   4   5
ENDBRANCH   2   4
ENDBRANCH   8   2
ENDBRANCH   9   8
TORSDOF 6
ENDMDL
MODEL 3
REMARK VINA RESULT:     -11.2      2.237      5.458
REMARK  Name = 
REMARK  6 active torsions:
REMARK  status: ('A' for Active; 'I' for Inactive)
REMARK    1  A    between atoms: C_2  and  C_4
REMARK    2  A    between atoms: C_2  and  C_8
REMARK    3  A    between atoms: C_4  and  C_5
REMARK    4  A    between atoms: C_8  and  C_9
REMARK    5  A    between atoms: C_16  and  C_17
REMARK    6  A    between atoms: C_19  and  C_22
REMARK                            x       y       z     vdW  Elec       q    Type
REMARK                         _______ _______ _______ _____ _____    ______ ____
ROOT
ATOM      9  C   UNL     1      -1.505  -0.319  24.715  0.00  0.00    +0.226 C 
ATOM     10  O   UNL     1      -1.960   0.183  25.187  0.00  0.00    -0.275 OA
ATOM     11  N   UNL     1      -0.836  -0.028  24.330  0.00  0.00    -0.267 N 
ATOM     12  C   UNL     1      -0.382  -0.530  23.858  0.00  0.00    +0.141 C 
ATOM     13  C   UNL     1       0.287  -0.240  23.473  0.00  0.00    +0.094 A 
ATOM     14  C   UNL     1       0.502   0.552  23.559  0.00  0.00    +0.078 A 
ATOM     15  C   UNL     1       0.047   1.054  24.031  0.00  0.00    +0.077 C 
ATOM     16  C   UNL     1      -0.622   0.763  24.416  0.00  0.00    +0.161 C 
ATOM     32  N   UNL     1       1.186   0.681  23.115  0.00  0.00    -0.227 NA
ATOM     33  C   UNL     1       1.393  -0.032  22.755  0.00  0.00    +0.198 A 
ATOM     34  N   UNL     1       0.838  -0.600  22.976  0.00  0.00    -0.225 NA
ENDROOT
BRANCH  16  17
ATOM     17  C   UNL     1      -1.076   1.265  24.888  0.00  0.00    +0.255 A 
ATOM     18  N   UNL     1      -1.724   1.710  24.638  0.00  0.00    -0.189 NA
ATOM     19  C   UNL     1      -2.011   2.130  25.289  0.00  0.00    +0.203 A 
ATOM     20  N   UNL     1      -1.539   1.945  25.940  0.00  0.00    -0.056 NA
ATOM     21  O   UNL     1      -0.962   1.409  25.692  0.00  0.00    -0.335 OA
BRANCH  19  22
ATOM     22  C   UNL     1      -2.655   2.646  25.287  0.00  0.00    +0.039 A 
ATOM     23  C   UNL     1      -3.423   2.347  25.316  0.00  0.00    +0.003 A 
ATOM     24  C   UNL     1      -4.066   2.862  25.314  0.00  0.00    +0.000 A 
ATOM     25  C   UNL     1      -4.835   2.563  25.343  0.00  0.00    +0.000 A 
ATOM     26  C   UNL     1      -5.479   3.078  25.341  0.00  0.00    +0.000 A 
ATOM     27  C   UNL     1      -5.354   3.894  25.310  0.00  0.00    +0.000 A 
ATOM     28  C   UNL     1      -4.587   4.193  25.281  0.00  0.00    +0.000 A 
ATOM     29  C   UNL     1      -3.942   3.678  25.283  0.00  0.00    +0.000 A 
ATOM     30  C   UNL     1      -3.174   3.977  25.254  0.00  0.00    +0.000 A 
ATOM     31  C   UNL     1      -2.531   3.462  25.256  0.00  0.00    +0.003 A 
ENDBRANCH  19  22
ENDBRANCH  16  17
BRANCH   9   8
ATOM      8  C   UNL     1      -1.720  -1.111  24.629  0.00  0.00    +0.086 C 
BRANCH   8   2
ATOM      1  C   UNL     1      -2.111  -1.578  25.625  0.00  0.00    +0.001 C 
ATOM      2  C   UNL     1      -2.454  -1.372  24.903  0.00  0.00    +0.019 C 
ATOM      3  C   UNL     1      -2.796  -1.165  24.182  0.00  0.00    +0.001 C 
BRANCH   2   4
ATOM      4  C   UNL     1      -3.187  -1.632  25.177  0.00  0.00    +0.115 C 
BRANCH   4   5
ATOM      5  C   UNL     1      -3.508  -2.335  24.889  0.00  0.00    +0.365 C 
ATOM      6  O   UNL     1      -3.326  -3.052  25.254  0.00  0.00    -0.246 OA
ATOM      7  O   UNL     1      -4.013  -2.322  24.237  0.00  0.00    -0.246 OA
ENDBRANCH   4   5
ENDBRANCH   2   4
ENDBRANCH   8   2
ENDBRANCH   9   8
TORSDOF 6
ENDMDL
MODEL 4
REMARK VINA RESULT:     -11.1      2.578      5.327
REMARK  Name = 
REMARK  6 active torsions:
REMARK  status: ('A' for Active; 'I' for Inactive)
REMARK    1  A    between atoms: C_2  and  C_4
REMARK    2  A    between atoms: C_2  and  C_8
REMARK    3  A    between atoms: C_4  and  C_5
REMARK    4  A    between atoms: C_8  and  C_9
REMARK    5  A    between atoms: C_16  and  C_17
REMARK    6  A    between atoms: C_19  and  C_22
REMARK                            x       y       z     vdW  Elec       q    Type
REMARK                         _______ _______ _______ _____ _____    ______ ____
ROOT
ATOM      9  C   UNL     1      -0.516  -0.175  24.224  0.00  0.00    +0.226 C 
ATOM     10  O   UNL     1      -0.302   0.573  24.498  0.00  0.00    -0.275 OA
ATOM     11  N   UNL     1      -1.186  -0.549  24.526  0.00  0.00    -0.267 N 
ATOM     12  C   UNL     1      -1.399  -1.298  24.251  0.00  0.00    +0.141 C 
ATOM     13  C   UNL     1      -2.069  -1.672  24.553  0.00  0.00    +0.094 A 
ATOM     14  C   UNL     1      -2.526  -1.298  25.130  0.00  0.00    +0.078 A 
ATOM     15  C   UNL     1      -2.313  -0.550  25.404  0.00  0.00    +0.077 C 
ATOM     16  C   UNL     1      -1.643  -0.176  25.102  0.00  0.00    +0.161 C 
ATOM     32  N   UNL     1      -3.152  -1.800  25.323  0.00  0.00    -0.227 NA
ATOM     33  C   UNL     1      -3.083  -2.483  24.866  0.00  0.00    +0.198 A 
ATOM     34  N   UNL     1      -2.413  -2.404  24.391  0.00  0.00    -0.225 NA
ENDROOT
BRANCH  16  17
ATOM     17  C   UNL     1      -1.430   0.573  25.377  0.00  0.00    +0.255 A 
ATOM     18  N   UNL     1      -1.768   1.289  25.145  0.00  0.00    -0.189 NA
ATOM     19  C   UNL     1      -1.388   1.895  25.557  0.00  0.00    +0.203 A 
ATOM     20  N   UNL     1      -0.815   1.553  26.043  0.00  0.00    -0.056 NA
ATOM     21  O   UNL     1      -0.841   0.735  25.931  0.00  0.00    -0.335 OA
BRANCH  19  22
ATOM     22  C   UNL     1      -1.553   2.701  25.493  0.00  0.00    +0.039 A 
ATOM     23  C   UNL     1      -0.982   3.217  25.197  0.00  0.00    +0.003 A 
ATOM     24  C   UNL     1      -1.147   4.022  25.133  0.00  0.00    +0.000 A 
ATOM     25  C   UNL     1      -0.576   4.539  24.837  0.00  0.00    +0.000 A 
ATOM     26  C   UNL     1      -0.741   5.344  24.773  0.00  0.00    +0.000 A 
ATOM     27  C   UNL     1      -1.478   5.634  25.007  0.00  0.00    +0.000 A 
ATOM     28  C   UNL     1      -2.049   5.118  25.303  0.00  0.00    +0.000 A 
ATOM     29  C   UNL     1      -1.884   4.312  25.367  0.00  0.00    +0.000 A 
ATOM     30  C   UNL     1      -2.455   3.796  25.663  0.00  0.00    +0.000 A 
ATOM     31  C   UNL     1      -2.290   2.991  25.726  0.00  0.00    +0.003 A 
ENDBRANCH  19  22
ENDBRANCH  16  17
BRANCH   9   8
ATOM      8  C   UNL     1      -0.059  -0.548  23.647  0.00  0.00    +0.086 C 
BRANCH   8   2
ATOM      1  C   UNL     1       0.036   0.170  22.732  0.00  0.00    +0.001 C 
ATOM      2  C   UNL     1       0.562  -0.142  23.286  0.00  0.00    +0.019 C 
ATOM      3  C   UNL     1       1.088  -0.454  23.839  0.00  0.00    +0.001 C 
BRANCH   2   4
ATOM      4  C   UNL     1       1.182   0.264  22.925  0.00  0.00    +0.115 C 
BRANCH   4   5
ATOM      5  C   UNL     1       1.685  -0.131  22.403  0.00  0.00    +0.365 C 
ATOM      6  O   UNL     1       2.480  -0.236  22.595  0.00  0.00    -0.246 OA
ATOM      7  O   UNL     1       1.392  -0.422  21.688  0.00  0.00    -0.246 OA
ENDBRANCH   4   5
ENDBRANCH   2   4
ENDBRANCH   8   2
ENDBRANCH   9   8
TORSDOF 6
ENDMDL
MODEL 5
REMARK VINA RESULT:     -11.0      1.963      4.171
REMARK  Name = 
REMARK  6 active torsions:
REMARK  status: ('A' for Active; 'I' for Inactive)
REMARK    1  A    between atoms: C_2  and  C_4
REMARK    2  A    between atoms: C_2  and  C_8
REMARK    3  A    between atoms: C_4  and  C_5
REMARK    4  A    between atoms: C_8  and  C_9
REMARK    5  A    between atoms: C_16  and  C_17
REMARK    6  A    between atoms: C_19  and  C_22
REMARK                            x       y       z     vdW  Elec       q    Type
REMARK                         _______ _______ _______ _____ _____    ______ ____
ROOT
ATOM      9  C   UNL     1      -3.872   0.230  24.446  0.00  0.00    +0.226 C 
ATOM     10  O   UNL     1      -3.179   0.238  23.998  0.00  0.00    -0.275 OA
ATOM     11  N   UNL     1      -4.210   0.939  24.697  0.00  0.00    -0.267 N 
ATOM     12  C   UNL     1      -4.904   0.930  25.145  0.00  0.00    +0.141 C 
ATOM     13  C   UNL     1      -5.242   1.639  25.395  0.00  0.00    +0.094 A 
ATOM     14  C   UNL     1      -4.887   2.358  25.199  0.00  0.00    +0.078 A 
ATOM     15  C   UNL     1      -4.194   2.366  24.751  0.00  0.00    +0.077 C 
ATOM     16  C   UNL     1      -3.856   1.657  24.500  0.00  0.00    +0.161 C 
ATOM     32  N   UNL     1      -5.344   2.964  25.522  0.00  0.00    -0.227 NA
ATOM     33  C   UNL     1      -5.981   2.620  25.918  0.00  0.00    +0.198 A 
ATOM     34  N   UNL     1      -5.917   1.802  25.840  0.00  0.00    -0.225 NA
ENDROOT
BRANCH  16  17
ATOM     17  C   UNL     1      -3.163   1.667  24.052  0.00  0.00    +0.255 A 
ATOM     18  N   UNL     1      -2.396   1.587  24.345  0.00  0.00    -0.189 NA
ATOM     19  C   UNL     1      -1.874   1.628  23.706  0.00  0.00    +0.203 A 
ATOM     20  N   UNL     1      -2.320   1.734  23.019  0.00  0.00    -0.056 NA
ATOM     21  O   UNL     1      -3.117   1.758  23.234  0.00  0.00    -0.335 OA
BRANCH  19  22
ATOM     22  C   UNL     1      -1.052   1.574  23.748  0.00  0.00    +0.039 A 
ATOM     23  C   UNL     1      -0.664   0.923  23.423  0.00  0.00    +0.003 A 
ATOM     24  C   UNL     1       0.157   0.869  23.465  0.00  0.00    +0.000 A 
ATOM     25  C   UNL     1       0.546   0.218  23.139  0.00  0.00    +0.000 A 
ATOM     26  C   UNL     1       1.367   0.164  23.181  0.00  0.00    +0.000 A 
ATOM     27  C   UNL     1       1.802   0.762  23.549  0.00  0.00    +0.000 A 
ATOM     28  C   UNL     1       1.414   1.412  23.875  0.00  0.00    +0.000 A 
ATOM     29  C   UNL     1       0.592   1.467  23.833  0.00  0.00    +0.000 A 
ATOM     30  C   UNL     1       0.204   2.118  24.158  0.00  0.00    +0.000 A 
ATOM     31  C   UNL     1      -0.617   2.172  24.116  0.00  0.00    +0.003 A 
ENDBRANCH  19  22
ENDBRANCH  16  17
BRANCH   9   8
ATOM      8  C   UNL     1      -4.227  -0.489  24.643  0.00  0.00    +0.086 C 
BRANCH   8   2
ATOM      1  C   UNL     1      -3.467  -1.174  25.205  0.00  0.00    +0.001 C 
ATOM      2  C   UNL     1      -3.843  -1.199  24.471  0.00  0.00    +0.019 C 
ATOM      3  C   UNL     1      -4.219  -1.224  23.737  0.00  0.00    +0.001 C 
BRANCH   2   4
ATOM      4  C   UNL     1      -3.460  -1.908  24.299  0.00  0.00    +0.115 C 
BRANCH   4   5
ATOM      5  C   UNL     1      -3.802  -2.627  24.519  0.00  0.00    +0.365 C 
ATOM      6  O   UNL     1      -3.615  -2.968  25.246  0.00  0.00    -0.246 OA
ATOM      7  O   UNL     1      -4.333  -3.003  24.011  0.00  0.00    -0.246 OA
ENDBRANCH   4   5
ENDBRANCH   2   4
ENDBRANCH   8   2
ENDBRANCH   9   8
TORSDOF 6
ENDMDL
MODEL 6
REMARK VINA RESULT:     -11.0      1.914      5.233
REMARK  Name = 
REMARK  6 active torsions:
REMARK  status: ('A' for Active; 'I' for Inactive)
REMARK    1  A    between atoms: C_2  and  C_4
REMARK    2  A    between atoms: C_2  and  C_8
REMARK    3  A    between atoms: C_4  and  C_5
REMARK    4  A    between atoms: C_8  and  C_9
REMARK    5  A    between atoms: C_16  and  C_17
REMARK    6  A    between atoms: C_19  and  C_22
REMARK                            x       y       z     vdW  Elec       q    Type
REMARK                         _______ _______ _______ _____ _____    ______ ____
ROOT
ATOM      9  C   UNL     1      -4.205   0.705  24.748  0.00  0.00    +0.226 C 
ATOM     10  O   UNL     1      -3.906   1.417  24.457  0.00  0.00    -0.275 OA
ATOM     11  N   UNL     1      -3.754   0.016  24.697  0.00  0.00    -0.267 N 
ATOM     12  C   UNL     1      -4.054  -0.695  24.988  0.00  0.00    +0.141 C 
ATOM     13  C   UNL     1      -3.603  -1.384  24.937  0.00  0.00    +0.094 A 
ATOM     14  C   UNL     1      -2.851  -1.362  24.596  0.00  0.00    +0.078 A 
ATOM     15  C   UNL     1      -2.552  -0.650  24.305  0.00  0.00    +0.077 C 
ATOM     16  C   UNL     1      -3.003   0.039  24.356  0.00  0.00    +0.161 C 
ATOM     32  N   UNL     1      -2.537  -2.124  24.622  0.00  0.00    -0.227 NA
ATOM     33  C   UNL     1      -3.093  -2.617  24.980  0.00  0.00    +0.198 A 
ATOM     34  N   UNL     1      -3.751  -2.160  25.174  0.00  0.00    -0.225 NA
ENDROOT
BRANCH  16  17
ATOM     17  C   UNL     1      -2.703   0.751  24.065  0.00  0.00    +0.255 A 
ATOM     18  N   UNL     1      -2.264   1.303  24.493  0.00  0.00    -0.189 NA
ATOM     19  C   UNL     1      -2.079   1.928  23.987  0.00  0.00    +0.203 A 
ATOM     20  N   UNL     1      -2.405   1.763  23.247  0.00  0.00    -0.056 NA
ATOM     21  O   UNL     1      -2.790   1.034  23.295  0.00  0.00    -0.335 OA
BRANCH  19  22
ATOM     22  C   UNL     1      -1.646   2.601  24.187  0.00  0.00    +0.039 A 
ATOM     23  C   UNL     1      -2.030   3.266  24.487  0.00  0.00    +0.003 A 
ATOM     24  C   UNL     1      -1.596   3.938  24.687  0.00  0.00    +0.000 A 
ATOM     25  C   UNL     1      -1.980   4.604  24.987  0.00  0.00    +0.000 A 
ATOM     26  C   UNL     1      -1.546   5.276  25.186  0.00  0.00    +0.000 A 
ATOM     27  C   UNL     1      -0.727   5.283  25.087  0.00  0.00    +0.000 A 
ATOM     28  C   UNL     1      -0.342   4.618  24.787  0.00  0.00    +0.000 A 
ATOM     29  C   UNL     1      -0.776   3.945  24.587  0.00  0.00    +0.000 A 
ATOM     30  C   UNL     1      -0.392   3.280  24.287  0.00  0.00    +0.000 A 
ATOM     31  C   UNL     1      -0.826   2.608  24.087  0.00  0.00    +0.003 A 
ENDBRANCH  19  22
ENDBRANCH  16  17
BRANCH   9   8
ATOM      8  C   UNL     1      -4.956   0.683  25.089  0.00  0.00    +0.086 C 
BRANCH   8   2
ATOM      1  C   UNL     1      -5.787   1.255  24.503  0.00  0.00    +0.001 C 
ATOM      2  C   UNL     1      -5.377   1.383  25.207  0.00  0.00    +0.019 C 
ATOM      3  C   UNL     1      -4.966   1.510  25.911  0.00  0.00    +0.001 C 
BRANCH   2   4
ATOM      4  C   UNL     1      -5.797   2.082  25.325  0.00  0.00    +0.115 C 
BRANCH   4   5
ATOM      5  C   UNL     1      -6.147   2.235  26.057  0.00  0.00    +0.365 C 
ATOM      6  O   UNL     1      -5.937   2.910  26.482  0.00  0.00    -0.246 OA
ATOM      7  O   UNL     1      -6.707   1.712  26.364  0.00  0.00    -0.246 OA
ENDBRANCH   4   5
ENDBRANCH   2   4
ENDBRANCH   8   2
ENDBRANCH   9   8
TORSDOF 6
ENDMDL
MODEL 7
REMARK VINA RESULT:     -10.9      1.457      4.490
REMARK  Name = 
REMARK  6 active torsions:
REMARK  status: ('A' for Active; 'I' for Inactive)
REMARK    1  A    between atoms: C_2  and  C_4
REMARK    2  A    between atoms: C_2  and  C_8
REMARK    3  A    between atoms: C_4  and  C_5
REMARK    4  A    between atoms: C_8  and  C_9
REMARK    5  A    between atoms: C_16  and  C_17
REMARK    6  A    between atoms: C_19  and  C_22
REMARK                            x       y       z     vdW  Elec       q    Type
REMARK                         _______ _______ _______ _____ _____    ______ ____
ROOT
ATOM      9  C   UNL     1      -1.722   0.256  24.431  0.00  0.00    +0.226 C 
ATOM     10  O   UNL     1      -2.194   0.914  24.277  0.00  0.00    -0.275 OA
ATOM     11  N   UNL     1      -2.060  -0.496  24.467  0.00  0.00    -0.267 N 
ATOM     12  C   UNL     1      -1.586  -1.154  24.621  0.00  0.00    +0.141 C 
ATOM     13  C   UNL     1      -1.924  -1.905  24.657  0.00  0.00    +0.094 A 
ATOM     14  C   UNL     1      -2.736  -1.999  24.538  0.00  0.00    +0.078 A 
ATOM     15  C   UNL     1      -3.208  -1.341  24.383  0.00  0.00    +0.077 C 
ATOM     16  C   UNL     1      -2.870  -0.589  24.348  0.00  0.00    +0.161 C 
ATOM     32  N   UNL     1      -2.912  -2.803  24.606  0.00  0.00    -0.227 NA
ATOM     33  C   UNL     1      -2.210  -3.205  24.766  0.00  0.00    +0.198 A 
ATOM     34  N   UNL     1      -1.600  -2.651  24.798  0.00  0.00    -0.225 NA
ENDROOT
BRANCH  16  17
ATOM     17  C   UNL     1      -3.344   0.069  24.193  0.00  0.00    +0.255 A 
ATOM     18  N   UNL     1      -3.767   0.503  24.752  0.00  0.00    -0.189 NA
ATOM     19  C   UNL     1      -4.162   1.111  24.356  0.00  0.00    +0.203 A 
ATOM     20  N   UNL     1      -3.982   1.052  23.553  0.00  0.00    -0.056 NA
ATOM     21  O   UNL     1      -3.476   0.407  23.453  0.00  0.00    -0.335 OA
BRANCH  19  22
ATOM     22  C   UNL     1      -4.651   1.678  24.704  0.00  0.00    +0.039 A 
ATOM     23  C   UNL     1      -4.389   2.455  24.784  0.00  0.00    +0.003 A 
ATOM     24  C   UNL     1      -4.877   3.021  25.131  0.00  0.00    +0.000 A 
ATOM     25  C   UNL     1      -4.616   3.800  25.212  0.00  0.00    +0.000 A 
ATOM     26  C   UNL     1      -5.104   4.366  25.559  0.00  0.00    +0.000 A 
ATOM     27  C   UNL     1      -5.857   4.154  25.827  0.00  0.00    +0.000 A 
ATOM     28  C   UNL     1      -6.118   3.376  25.746  0.00  0.00    +0.000 A 
ATOM     29  C   UNL     1      -5.630   2.809  25.399  0.00  0.00    +0.000 A 
ATOM     30  C   UNL     1      -5.891   2.032  25.319  0.00  0.00    +0.000 A 
ATOM     31  C   UNL     1      -5.403   1.466  24.971  0.00  0.00    +0.003 A 
ENDBRANCH  19  22
ENDBRANCH  16  17
BRANCH   9   8
ATOM      8  C   UNL     1      -0.910   0.350  24.550  0.00  0.00    +0.086 C 
BRANCH   8   2
ATOM      1  C   UNL     1      -0.717   1.207  25.319  0.00  0.00    +0.001 C 
ATOM      2  C   UNL     1      -0.572   1.102  24.513  0.00  0.00    +0.019 C 
ATOM      3  C   UNL     1      -0.427   0.997  23.708  0.00  0.00    +0.001 C 
BRANCH   2   4
ATOM      4  C   UNL     1      -0.235   1.853  24.477  0.00  0.00    +0.115 C 
BRANCH   4   5
ATOM      5  C   UNL     1       0.546   1.967  24.720  0.00  0.00    +0.365 C 
ATOM      6  O   UNL     1       0.705   2.250  25.479  0.00  0.00    -0.246 OA
ATOM      7  O   UNL     1       1.168   1.797  24.205  0.00  0.00    -0.246 OA
ENDBRANCH   4   5
ENDBRANCH   2   4
ENDBRANCH   8   2
ENDBRANCH   9   8
TORSDOF 6
ENDMDL
MODEL 8
REMARK VINA RESULT:     -10.1     16.040     18.796
REMARK  Name = 
REMARK  6 active torsions:
REMARK  status: ('A' for Active; 'I' for Inactive)
REMARK    1  A    between atoms: C_2  and  C_4
REMARK    2  A    between atoms: C_2  and  C_8
REMARK    3  A    between atoms: C_4  and  C_5
REMARK    4  A    between atoms: C_8  and  C_9
REMARK    5  A    between atoms: C_16  and  C_17
REMARK    6  A    between atoms: C_19  and  C_22
REMARK                            x       y       z     vdW  Elec       q    Type
REMARK                         _______ _______ _______ _____ _____    ______ ____
ROOT
ATOM      9  C   UNL     1      11.913   8.360  19.464  0.00  0.00    +0.226 C 
ATOM     10  O   UNL     1      12.653   8.345  19.828  0.00  0.00    -0.275 OA
ATOM     11  N   UNL     1      11.857   8.415  18.643  0.00  0.00    -0.267 N 
ATOM     12  C   UNL     1      11.116   8.430  18.281  0.00  0.00    +0.141 C 
ATOM     13  C   UNL     1      11.061   8.485  17.460  0.00  0.00    +0.094 A 
ATOM     14  C   UNL     1      11.746   8.526  17.001  0.00  0.00    +0.078 A 
ATOM     15  C   UNL     1      12.486   8.512  17.364  0.00  0.00    +0.077 C 
ATOM     16  C   UNL     1      12.542   8.456  18.185  0.00  0.00    +0.161 C 
ATOM     32  N   UNL     1      11.519   8.578  16.209  0.00  0.00    -0.227 NA
ATOM     33  C   UNL     1      10.695   8.568  16.178  0.00  0.00    +0.198 A 
ATOM     34  N   UNL     1      10.412   8.511  16.951  0.00  0.00    -0.225 NA
ENDROOT
BRANCH  16  17
ATOM     17  C   UNL     1      13.283   8.442  18.548  0.00  0.00    +0.255 A 
ATOM     18  N   UNL     1      13.771   7.781  18.627  0.00  0.00    -0.189 NA
ATOM     19  C   UNL     1      14.456   8.017  19.024  0.00  0.00    +0.203 A 
ATOM     20  N   UNL     1      14.390   8.823  19.190  0.00  0.00    -0.056 NA
ATOM     21  O   UNL     1      13.665   9.085  18.895  0.00  0.00    -0.335 OA
BRANCH  19  22
ATOM     22  C   UNL     1      15.093   7.531  19.220  0.00  0.00    +0.039 A 
ATOM     23  C   UNL     1      15.482   7.630  19.940  0.00  0.00    +0.003 A 
ATOM     24  C   UNL     1      16.119   7.145  20.135  0.00  0.00    +0.000 A 
ATOM     25  C   UNL     1      16.508   7.244  20.856  0.00  0.00    +0.000 A 
ATOM     26  C   UNL     1      17.145   6.758  21.052  0.00  0.00    +0.000 A 
ATOM     27  C   UNL     1      17.394   6.172  20.526  0.00  0.00    +0.000 A 
ATOM     28  C   UNL     1      17.005   6.073  19.805  0.00  0.00    +0.000 A 
ATOM     29  C   UNL     1      16.368   6.559  19.609  0.00  0.00    +0.000 A 
ATOM     30  C   UNL     1      15.979   6.460  18.889  0.00  0.00    +0.000 A 
ATOM     31  C   UNL     1      15.342   6.945  18.694  0.00  0.00    +0.003 A 
ENDBRANCH  19  22
ENDBRANCH  16  17
BRANCH   9   8
ATOM      8  C   UNL     1      11.228   8.318  19.923  0.00  0.00    +0.086 C 
BRANCH   8   2
ATOM      1  C   UNL     1      11.240   7.380  20.618  0.00  0.00    +0.001 C 
ATOM      2  C   UNL     1      11.283   8.196  20.738  0.00  0.00    +0.019 C 
ATOM      3  C   UNL     1      11.327   9.011  20.857  0.00  0.00    +0.001 C 
BRANCH   2   4
ATOM      4  C   UNL     1      11.339   8.073  21.551  0.00  0.00    +0.115 C 
BRANCH   4   5
ATOM      5  C   UNL     1      10.661   7.900  21.989  0.00  0.00    +0.365 C 
ATOM      6  O   UNL     1      10.410   7.118  22.069  0.00  0.00    -0.246 OA
ATOM      7  O   UNL     1      10.234   8.509  22.347  0.00  0.00    -0.246 OA
ENDBRANCH   4   5
ENDBRANCH   2   4
ENDBRANCH   8   2
ENDBRANCH   9   8
TORSDOF 6
ENDMDL
MODEL 9
REMARK VINA RESULT:      -8.7     16.533     19.436
REMARK  Name = 
REMARK  6 active torsions:
REMARK  status: ('A' for Active; 'I' for Inactive)
REMARK    1  A    between atoms: C_2  and  C_4
REMARK    2  A    between atoms: C_2  and  C_8
REMARK    3  A    between atoms: C_4  and  C_5
REMARK    4  A    between atoms: C_8  and  C_9
REMARK    5  A    between atoms: C_16  and  C_17
REMARK    6  A    between atoms: C_19  and  C_22
REMARK                            x       y       z     vdW  Elec       q    Type
REMARK                         _______ _______ _______ _____ _____    ______ ____
ROOT
ATOM      9  C   UNL     1      14.453   7.906  18.432  0.00  0.00    +0.226 C 
ATOM     10  O   UNL     1      13.961   8.403  18.869  0.00  0.00    -0.275 OA
ATOM     11  N   UNL     1      15.019   7.445  18.814  0.00  0.00    -0.267 N 
ATOM     12  C   UNL     1      15.512   6.948  18.376  0.00  0.00    +0.141 C 
ATOM     13  C   UNL     1      16.078   6.487  18.759  0.00  0.00    +0.094 A 
ATOM     14  C   UNL     1      16.153   6.521  19.580  0.00  0.00    +0.078 A 
ATOM     15  C   UNL     1      15.660   7.018  20.018  0.00  0.00    +0.077 C 
ATOM     16  C   UNL     1      15.094   7.479  19.635  0.00  0.00    +0.161 C 
ATOM     32  N   UNL     1      16.757   6.006  19.803  0.00  0.00    -0.227 NA
ATOM     33  C   UNL     1      17.056   5.652  19.120  0.00  0.00    +0.198 A 
ATOM     34  N   UNL     1      16.636   5.950  18.475  0.00  0.00    -0.225 NA
ENDROOT
BRANCH  16  17
ATOM     17  C   UNL     1      14.602   7.976  20.073  0.00  0.00    +0.255 A 
ATOM     18  N   UNL     1      13.910   7.752  20.464  0.00  0.00    -0.189 NA
ATOM     19  C   UNL     1      13.596   8.421  20.830  0.00  0.00    +0.203 A 
ATOM     20  N   UNL     1      14.094   9.059  20.666  0.00  0.00    -0.056 NA
ATOM     21  O   UNL     1      14.715   8.783  20.198  0.00  0.00    -0.335 OA
BRANCH  19  22
ATOM     22  C   UNL     1      12.906   8.448  21.281  0.00  0.00    +0.039 A 
ATOM     23  C   UNL     1      12.337   7.857  21.200  0.00  0.00    +0.003 A 
ATOM     24  C   UNL     1      11.647   7.884  21.651  0.00  0.00    +0.000 A 
ATOM     25  C   UNL     1      11.077   7.293  21.570  0.00  0.00    +0.000 A 
ATOM     26  C   UNL     1      10.388   7.319  22.021  0.00  0.00    +0.000 A 
ATOM     27  C   UNL     1      10.267   7.938  22.554  0.00  0.00    +0.000 A 
ATOM     28  C   UNL     1      10.836   8.529  22.635  0.00  0.00    +0.000 A 
ATOM     29  C   UNL     1      11.527   8.503  22.184  0.00  0.00    +0.000 A 
ATOM     30  C   UNL     1      12.096   9.094  22.265  0.00  0.00    +0.000 A 
ATOM     31  C   UNL     1      12.785   9.067  21.815  0.00  0.00    +0.003 A 
ENDBRANCH  19  22
ENDBRANCH  16  17
BRANCH   9   8
ATOM      8  C   UNL     1      14.378   7.871  17.610  0.00  0.00    +0.086 C 
BRANCH   8   2
ATOM      1  C   UNL     1      13.258   7.767  17.300  0.00  0.00    +0.001 C 
ATOM      2  C   UNL     1      13.832   8.355  17.225  0.00  0.00    +0.019 C 
ATOM      3  C   UNL     1      14.406   8.943  17.150  0.00  0.00    +0.001 C 
BRANCH   2   4
ATOM      4  C   UNL     1      13.286   8.838  16.840  0.00  0.00    +0.115 C 
BRANCH   4   5
ATOM      5  C   UNL     1      13.112   8.710  16.043  0.00  0.00    +0.365 C 
ATOM      6  O   UNL     1      13.723   8.626  15.495  0.00  0.00    -0.246 OA
ATOM      7  O   UNL     1      12.326   8.667  15.794  0.00  0.00    -0.246 OA
ENDBRANCH   4   5
ENDBRANCH   2   4
ENDBRANCH   8   2
ENDBRANCH   9   8
TORSDOF 6
ENDMDL
MODEL 10
REMARK VINA RESULT:      -8.6     15.953     18.742
REMARK  Name = 
REMARK  6 active torsions:
REMARK  status: ('A' for Active; 'I' for Inactive)
REMARK    1  A    between atoms: C_2  and  C_4
REMARK    2  A    between atoms: C_2  and  C_8
REMARK    3  A    between atoms: C_4  and  C_5
REMARK    4  A    between atoms: C_8  and  C_9
REMARK    5  A    between atoms: C_16  and  C_17
REMARK    6  A    between atoms: C_19  and  C_22
REMARK                            x       y       z     vdW  Elec       q    Type
REMARK                         _______ _______ _______ _____ _____    ______ ____
ROOT
ATOM      9  C   UNL     1      12.037   8.319  19.485  0.00  0.00    +0.226 C 
ATOM     10  O   UNL     1      12.824   8.441  19.270  0.00  0.00    -0.275 OA
ATOM     11  N   UNL     1      11.837   8.220  20.279  0.00  0.00    -0.267 N 
ATOM     12  C   UNL     1      11.049   8.098  20.493  0.00  0.00    +0.141 C 
ATOM     13  C   UNL     1      10.849   7.998  21.287  0.00  0.00    +0.094 A 
ATOM     14  C   UNL     1      11.436   8.021  21.867  0.00  0.00    +0.078 A 
ATOM     15  C   UNL     1      12.223   8.143  21.652  0.00  0.00    +0.077 C 
ATOM     16  C   UNL     1      12.423   8.242  20.858  0.00  0.00    +0.161 C 
ATOM     32  N   UNL     1      11.074   7.906  22.600  0.00  0.00    -0.227 NA
ATOM     33  C   UNL     1      10.265   7.813  22.474  0.00  0.00    +0.198 A 
ATOM     34  N   UNL     1      10.126   7.870  21.663  0.00  0.00    -0.225 NA
ENDROOT
BRANCH  16  17
ATOM     17  C   UNL     1      13.211   8.364  20.643  0.00  0.00    +0.255 A 
ATOM     18  N   UNL     1      13.786   7.779  20.557  0.00  0.00    -0.189 NA
ATOM     19  C   UNL     1      14.492   8.147  20.338  0.00  0.00    +0.203 A 
ATOM     20  N   UNL     1      14.352   8.959  20.289  0.00  0.00    -0.056 NA
ATOM     21  O   UNL     1      13.560   9.093  20.478  0.00  0.00    -0.335 OA
BRANCH  19  22
ATOM     22  C   UNL     1      15.210   7.768  20.193  0.00  0.00    +0.039 A 
ATOM     23  C   UNL     1      15.248   7.146  19.653  0.00  0.00    +0.003 A 
ATOM     24  C   UNL     1      15.966   6.768  19.509  0.00  0.00    +0.000 A 
ATOM     25  C   UNL     1      16.005   6.146  18.969  0.00  0.00    +0.000 A 
ATOM     26  C   UNL     1      16.723   5.768  18.825  0.00  0.00    +0.000 A 
ATOM     27  C   UNL     1      17.405   6.012  19.221  0.00  0.00    +0.000 A 
ATOM     28  C   UNL     1      17.367   6.633  19.761  0.00  0.00    +0.000 A 
ATOM     29  C   UNL     1      16.648   7.012  19.906  0.00  0.00    +0.000 A 
ATOM     30  C   UNL     1      16.611   7.634  20.446  0.00  0.00    +0.000 A 
ATOM     31  C   UNL     1      15.892   8.012  20.590  0.00  0.00    +0.003 A 
ENDBRANCH  19  22
ENDBRANCH  16  17
BRANCH   9   8
ATOM      8  C   UNL     1      11.450   8.296  18.905  0.00  0.00    +0.086 C 
BRANCH   8   2
ATOM      1  C   UNL     1      12.005   7.557  18.192  0.00  0.00    +0.001 C 
ATOM      2  C   UNL     1      11.658   8.301  18.106  0.00  0.00    +0.019 C 
ATOM      3  C   UNL     1      11.311   9.044  18.021  0.00  0.00    +0.001 C 
BRANCH   2   4
ATOM      4  C   UNL     1      11.866   8.306  17.309  0.00  0.00    +0.115 C 
BRANCH   4   5
ATOM      5  C   UNL     1      11.301   8.487  16.736  0.00  0.00    +0.365 C 
ATOM      6  O   UNL     1      10.591   8.068  16.709  0.00  0.00    -0.246 OA
ATOM      7  O   UNL     1      11.445   9.089  16.189  0.00  0.00    -0.246 OA
ENDBRANCH   4   5
ENDBRANCH   2   4
ENDBRANCH   8   2
ENDBRANCH   9   8
TORSDOF 6
ENDMDL
