MODEL 1
REMARK VINA RESULT:      -7.8      0.000      0.000
REMARK  Name = 
REMARK  7 active torsions:
REMARK  status: ('A' for Active; 'I' for Inactive)
REMARK    1  A    between atoms: N_2  and  C_4
REMARK    2  A    between atoms: C_7  and  C_10
REMARK    3  A    between atoms: N_15  and  C_16
REMARK    4  A    between atoms: C_20  and  O_24
REMARK    5  A    between atoms: O_24  and  C_25
REMARK    6  A    between atoms: N_27  and  C_28
REMARK    7  A    between atoms: C_31  and  C_34
REMARK                            x       y       z     vdW  Elec       q    Type
REMARK                         _______ _______ _______ _____ _____    ______ ____
ROOT
ATOM     16  C   UNL     1      -0.145   0.638  23.730  0.00  0.00    +0.155 C 
ATOM     17  C   UNL     1      -0.526   0.989  23.088  0.00  0.00    +0.166 C 
ATOM     18  O   UNL     1      -1.335   0.850  23.166  0.00  0.00    -0.348 OA
ATOM     19  C   UNL     1      -1.455   0.414  23.854  0.00  0.00    +0.186 C 
ATOM     20  C   UNL     1      -2.028   0.057  24.329  0.00  0.00    +0.229 C 
ATOM     21  C   UNL     1      -1.648  -0.294  24.971  0.00  0.00    +0.188 C 
ATOM     22  O   UNL     1      -0.838  -0.155  24.893  0.00  0.00    -0.348 OA
ATOM     23  C   UNL     1      -0.719   0.282  24.203  0.00  0.00    +0.168 C 
ENDROOT
BRANCH  16  15
ATOM     10  C   UNL     1       2.523   0.085  22.867  0.00  0.00    +0.086 A 
ATOM     11  C   UNL     1       2.232  -0.200  22.149  0.00  0.00    +0.040 A 
ATOM     12  C   UNL     1       1.419  -0.204  22.006  0.00  0.00    +0.103 A 
ATOM     13  N   UNL     1       0.897   0.077  22.581  0.00  0.00    -0.211 NA
ATOM     14  C   UNL     1       1.189   0.361  23.299  0.00  0.00    +0.237 A 
ATOM     15  N   UNL     1       0.667   0.642  23.873  0.00  0.00    -0.200 NA
ATOM     37  N   UNL     1       2.001   0.365  23.441  0.00  0.00    -0.212 NA
BRANCH  10   7
ATOM      4  C   UNL     1       4.961   0.097  23.294  0.00  0.00    +0.048 A 
ATOM      5  C   UNL     1       4.508  -0.561  23.504  0.00  0.00    +0.015 A 
ATOM      6  C   UNL     1       3.696  -0.565  23.361  0.00  0.00    +0.003 A 
ATOM      7  C   UNL     1       3.335   0.089  23.009  0.00  0.00    +0.018 A 
ATOM      8  C   UNL     1       3.787   0.746  22.800  0.00  0.00    +0.003 A 
ATOM      9  C   UNL     1       4.600   0.750  22.942  0.00  0.00    +0.015 A 
BRANCH   4   2
ATOM      1  C   UNL     1       6.072   0.481  24.105  0.00  0.00    +0.112 C 
ATOM      2  N   UNL     1       5.773   0.101  23.437  0.00  0.00    -0.304 N 
ATOM      3  C   UNL     1       6.286  -0.275  22.912  0.00  0.00    +0.112 C 
ENDBRANCH   4   2
ENDBRANCH  10   7
ENDBRANCH  16  15
BRANCH  20  24
ATOM     24  O   UNL     1      -2.841   0.054  24.186  0.00  0.00    -0.432 OA
BRANCH  24  25
ATOM     25  C   UNL     1      -3.336   0.567  24.602  0.00  0.00    +0.425 C 
ATOM     26  O   UNL     1      -3.302   0.595  25.425  0.00  0.00    -0.224 OA
ATOM     27  N   UNL     1      -3.865   1.051  24.194  0.00  0.00    -0.142 NA
BRANCH  27  28
ATOM     28  C   UNL     1      -4.360   1.564  24.610  0.00  0.00    +0.077 A 
ATOM     29  C   UNL     1      -4.157   2.359  24.690  0.00  0.00    +0.017 A 
ATOM     30  C   UNL     1      -4.651   2.871  25.105  0.00  0.00    +0.004 A 
ATOM     31  C   UNL     1      -5.350   2.589  25.441  0.00  0.00    +0.035 A 
ATOM     32  C   UNL     1      -5.553   1.793  25.362  0.00  0.00    +0.004 A 
ATOM     33  C   UNL     1      -5.058   1.281  24.946  0.00  0.00    +0.017 A 
BRANCH  31  34
ATOM     34  C   UNL     1      -5.844   3.100  25.857  0.00  0.00    +0.173 C 
ATOM     35  C   UNL     1      -5.896   3.894  25.636  0.00  0.00    +0.077 C 
ATOM     36  O   UNL     1      -6.289   2.820  26.493  0.00  0.00    -0.291 OA
ENDBRANCH  31  34
ENDBRANCH  27  28
ENDBRANCH  24  25
ENDBRANCH  20  24
TORSDOF 7
ENDMDL
MODEL 2
REMARK VINA RESULT:      -7.4      1.776      8.137
REMARK  Name = 
REMARK  7 active torsions:
REMARK  status: ('A' for Active; 'I' for Inactive)
REMARK    1  A    between atoms: N_2  and  C_4
REMARK    2  A    between atoms: C_7  and  C_10
REMARK    3  A    between atoms: N_15  and  C_16
REMARK    4  A    between atoms: C_20  and  O_24
REMARK    5  A    between atoms: O_24  and  C_25
REMARK    6  A    between atoms: N_27  and  C_28
REMARK    7  A    between atoms: C_31  and  C_34
REMARK                            x       y       z     vdW  Elec       q    Type
REMARK                         _______ _______ _______ _____ _____    ______ ____
ROOT
ATOM     16  C   UNL     1      -0.908   0.284  24.298  0.00  0.00    +0.155 C 
ATOM     17  C   UNL     1      -0.838  -0.537  24.266  0.00  0.00    +0.166 C 
ATOM     18  O   UNL     1      -0.154  -0.717  23.841  0.00  0.00    -0.348 OA
ATOM     19  C   UNL     1       0.198  -0.008  23.611  0.00  0.00    +0.186 C 
ATOM     20  C   UNL     1       0.838   0.320  23.206  0.00  0.00    +0.229 C 
ATOM     21  C   UNL     1       0.767   1.141  23.238  0.00  0.00    +0.188 C 
ATOM     22  O   UNL     1       0.083   1.321  23.663  0.00  0.00    -0.348 OA
ATOM     23  C   UNL     1      -0.269   0.611  23.893  0.00  0.00    +0.168 C 
ENDROOT
BRANCH  16  15
ATOM     10  C   UNL     1      -3.669   1.000  24.493  0.00  0.00    +0.086 A 
ATOM     11  C   UNL     1      -3.840   0.516  23.846  0.00  0.00    +0.040 A 
ATOM     12  C   UNL     1      -3.235   0.096  23.474  0.00  0.00    +0.103 A 
ATOM     13  N   UNL     1      -2.459   0.158  23.749  0.00  0.00    -0.211 NA
ATOM     14  C   UNL     1      -2.289   0.642  24.396  0.00  0.00    +0.237 A 
ATOM     15  N   UNL     1      -1.513   0.705  24.670  0.00  0.00    -0.200 NA
ATOM     37  N   UNL     1      -2.893   1.062  24.767  0.00  0.00    -0.212 NA
BRANCH  10   7
ATOM      4  C   UNL     1      -5.484   2.261  25.608  0.00  0.00    +0.048 A 
ATOM      5  C   UNL     1      -5.499   1.435  25.599  0.00  0.00    +0.015 A 
ATOM      6  C   UNL     1      -4.894   1.015  25.228  0.00  0.00    +0.003 A 
ATOM      7  C   UNL     1      -4.273   1.419  24.864  0.00  0.00    +0.018 A 
ATOM      8  C   UNL     1      -4.258   2.244  24.872  0.00  0.00    +0.003 A 
ATOM      9  C   UNL     1      -4.863   2.665  25.244  0.00  0.00    +0.015 A 
BRANCH   4   2
ATOM      1  C   UNL     1      -6.170   3.491  25.844  0.00  0.00    +0.112 C 
ATOM      2  N   UNL     1      -6.088   2.681  25.979  0.00  0.00    -0.304 N 
ATOM      3  C   UNL     1      -6.611   2.292  26.485  0.00  0.00    +0.112 C 
ENDBRANCH   4   2
ENDBRANCH  10   7
ENDBRANCH  16  15
BRANCH  20  24
ATOM     24  O   UNL     1       1.443  -0.100  22.834  0.00  0.00    -0.432 OA
BRANCH  24  25
ATOM     25  C   UNL     1       2.231   0.061  23.018  0.00  0.00    +0.425 C 
ATOM     26  O   UNL     1       2.431   0.771  23.387  0.00  0.00    -0.224 OA
ATOM     27  N   UNL     1       2.818  -0.488  22.833  0.00  0.00    -0.142 NA
BRANCH  27  28
ATOM     28  C   UNL     1       3.606  -0.327  23.017  0.00  0.00    +0.077 A 
ATOM     29  C   UNL     1       3.989   0.314  22.667  0.00  0.00    +0.017 A 
ATOM     30  C   UNL     1       4.776   0.475  22.850  0.00  0.00    +0.004 A 
ATOM     31  C   UNL     1       5.182  -0.006  23.385  0.00  0.00    +0.035 A 
ATOM     32  C   UNL     1       4.799  -0.648  23.735  0.00  0.00    +0.004 A 
ATOM     33  C   UNL     1       4.011  -0.808  23.551  0.00  0.00    +0.017 A 
BRANCH  31  34
ATOM     34  C   UNL     1       5.969   0.154  23.569  0.00  0.00    +0.173 C 
ATOM     35  C   UNL     1       6.152   0.663  24.192  0.00  0.00    +0.077 C 
ATOM     36  O   UNL     1       6.576  -0.195  23.130  0.00  0.00    -0.291 OA
ENDBRANCH  31  34
ENDBRANCH  27  28
ENDBRANCH  24  25
ENDBRANCH  20  24
TORSDOF 7
ENDMDL
MODEL 3
REMARK VINA RESULT:      -4.3      1.712      2.091
REMARK  Name = 
REMARK  7 active torsions:
REMARK  status: ('A' for Active; 'I' for Inactive)
REMARK    1  A    between atoms: N_2  and  C_4
REMARK    2  A    between atoms: C_7  and  C_10
REMARK    3  A    between atoms: N_15  and  C_16
REMARK    4  A    between atoms: C_20  and  O_24
REMARK    5  A    between atoms: O_24  and  C_25
REMARK    6  A    between atoms: N_27  and  C_28
REMARK    7  A    between atoms: C_31  and  C_34
REMARK                            x       y       z     vdW  Elec       q    Type
REMARK                         _______ _______ _______ _____ _____    ______ ____
ROOT
ATOM     16  C   UNL     1       0.074   2.681  24.100  0.00  0.00    +0.155 C 
ATOM     17  C   UNL     1      -0.407   2.742  23.433  0.00  0.00    +0.166 C 
ATOM     18  O   UNL     1      -1.113   3.102  23.661  0.00  0.00    -0.348 OA
ATOM     19  C   UNL     1      -1.069   3.263  24.468  0.00  0.00    +0.186 C 
ATOM     20  C   UNL     1      -1.477   3.585  25.109  0.00  0.00    +0.229 C 
ATOM     21  C   UNL     1      -0.997   3.523  25.776  0.00  0.00    +0.188 C 
ATOM     22  O   UNL     1      -0.290   3.164  25.548  0.00  0.00    -0.348 OA
ATOM     23  C   UNL     1      -0.335   3.003  24.740  0.00  0.00    +0.168 C 
ENDROOT
BRANCH  16  15
ATOM     10  C   UNL     1       1.921   0.651  23.302  0.00  0.00    +0.086 A 
ATOM     11  C   UNL     1       1.329   0.287  22.857  0.00  0.00    +0.040 A 
ATOM     12  C   UNL     1       0.572   0.613  22.834  0.00  0.00    +0.103 A 
ATOM     13  N   UNL     1       0.406   1.303  23.256  0.00  0.00    -0.211 NA
ATOM     14  C   UNL     1       0.998   1.666  23.701  0.00  0.00    +0.237 A 
ATOM     15  N   UNL     1       0.832   2.355  24.123  0.00  0.00    -0.200 NA
ATOM     37  N   UNL     1       1.755   1.340  23.724  0.00  0.00    -0.212 NA
BRANCH  10   7
ATOM      4  C   UNL     1       4.194  -0.328  23.371  0.00  0.00    +0.048 A 
ATOM      5  C   UNL     1       4.093   0.471  23.188  0.00  0.00    +0.015 A 
ATOM      6  C   UNL     1       3.336   0.796  23.165  0.00  0.00    +0.003 A 
ATOM      7  C   UNL     1       2.678   0.325  23.325  0.00  0.00    +0.018 A 
ATOM      8  C   UNL     1       2.778  -0.473  23.508  0.00  0.00    +0.003 A 
ATOM      9  C   UNL     1       3.536  -0.800  23.531  0.00  0.00    +0.015 A 
BRANCH   4   2
ATOM      1  C   UNL     1       5.586  -0.245  23.063  0.00  0.00    +0.112 C 
ATOM      2  N   UNL     1       4.951  -0.654  23.394  0.00  0.00    -0.304 N 
ATOM      3  C   UNL     1       5.073  -1.389  23.748  0.00  0.00    +0.112 C 
ENDBRANCH   4   2
ENDBRANCH  10   7
ENDBRANCH  16  15
BRANCH  20  24
ATOM     24  O   UNL     1      -2.235   3.911  25.085  0.00  0.00    -0.432 OA
BRANCH  24  25
ATOM     25  C   UNL     1      -2.892   3.442  25.259  0.00  0.00    +0.425 C 
ATOM     26  O   UNL     1      -2.852   2.884  25.865  0.00  0.00    -0.224 OA
ATOM     27  N   UNL     1      -3.588   3.530  24.826  0.00  0.00    -0.142 NA
BRANCH  27  28
ATOM     28  C   UNL     1      -4.245   3.062  25.000  0.00  0.00    +0.077 A 
ATOM     29  C   UNL     1      -4.328   2.321  24.647  0.00  0.00    +0.017 A 
ATOM     30  C   UNL     1      -4.984   1.853  24.820  0.00  0.00    +0.004 A 
ATOM     31  C   UNL     1      -5.558   2.125  25.347  0.00  0.00    +0.035 A 
ATOM     32  C   UNL     1      -5.475   2.866  25.701  0.00  0.00    +0.004 A 
ATOM     33  C   UNL     1      -4.818   3.334  25.527  0.00  0.00    +0.017 A 
BRANCH  31  34
ATOM     34  C   UNL     1      -6.214   1.658  25.521  0.00  0.00    +0.173 C 
ATOM     35  C   UNL     1      -6.288   1.312  26.266  0.00  0.00    +0.077 C 
ATOM     36  O   UNL     1      -6.797   1.535  24.949  0.00  0.00    -0.291 OA
ENDBRANCH  31  34
ENDBRANCH  27  28
ENDBRANCH  24  25
ENDBRANCH  20  24
TORSDOF 7
ENDMDL
