MODEL 1
REMARK VINA RESULT:     -10.3      0.000      0.000
REMARK  Name = 
REMARK  8 active torsions:
REMARK  status: ('A' for Active; 'I' for Inactive)
REMARK    1  A    between atoms: C_2  and  C_4
REMARK    2  A    between atoms: C_4  and  C_5
REMARK    3  A    between atoms: C_5  and  N_6
REMARK    4  A    between atoms: C_5  and  C_25
REMARK    5  A    between atoms: C_7  and  C_9
REMARK    6  A    between atoms: C_11  and  N_12
REMARK    7  A    between atoms: C_13  and  C_15
REMARK    8  A    between atoms: C_15  and  C_17
REMARK                            x       y       z     vdW  Elec       q    Type
REMARK                         _______ _______ _______ _____ _____    ______ ____
ROOT
ATOM      9  C   UNL     1      -3.261   1.908  24.576  0.00  0.00    +0.033 C 
ATOM     10  C   UNL     1      -3.245   1.125  24.837  0.00  0.00    -0.002 C 
ATOM     11  C   UNL     1      -3.953   0.723  24.976  0.00  0.00    +0.150 C 
ATOM     20  C   UNL     1      -4.675   1.103  24.855  0.00  0.00    +0.206 C 
ATOM     21  O   UNL     1      -5.381   0.701  24.994  0.00  0.00    -0.218 OA
ATOM     22  C   UNL     1      -4.689   1.886  24.594  0.00  0.00    +0.189 C 
ATOM     23  O   UNL     1      -5.412   2.267  24.472  0.00  0.00    -0.220 OA
ATOM     24  C   UNL     1      -3.983   2.288  24.454  0.00  0.00    +0.066 C 
ENDROOT
BRANCH   9   7
ATOM      6  N   UNL     1      -2.168   2.691  25.058  0.00  0.00    -0.194 NA
ATOM      7  C   UNL     1      -2.554   2.310  24.437  0.00  0.00    +0.261 C 
ATOM      8  O   UNL     1      -2.234   2.331  23.678  0.00  0.00    -0.269 OA
BRANCH   6   5
ATOM      5  C   UNL     1      -1.460   3.093  24.919  0.00  0.00    +0.175 C 
BRANCH   5  25
ATOM     25  C   UNL     1      -0.741   2.741  25.113  0.00  0.00    +0.281 C 
ATOM     26  N   UNL     1      -0.596   2.497  25.888  0.00  0.00    -0.086 NA
ATOM     27  O   UNL     1      -0.164   2.633  24.533  0.00  0.00    -0.270 OA
ENDBRANCH   5  25
BRANCH   5   4
ATOM      4  C   UNL     1      -1.474   3.848  24.586  0.00  0.00    +0.031 C 
BRANCH   4   2
ATOM      1  C   UNL     1      -0.830   5.075  24.934  0.00  0.00    +0.000 C 
ATOM      2  C   UNL     1      -1.419   4.514  25.071  0.00  0.00    +0.002 C 
ATOM      3  C   UNL     1      -1.952   4.617  25.690  0.00  0.00    +0.000 C 
ENDBRANCH   4   2
ENDBRANCH   5   4
ENDBRANCH   6   5
ENDBRANCH   9   7
BRANCH  11  12
ATOM     12  N   UNL     1      -3.937  -0.059  25.237  0.00  0.00    -0.199 NA
ATOM     13  C   UNL     1      -3.578  -0.641  24.774  0.00  0.00    +0.259 C 
ATOM     14  O   UNL     1      -3.235  -0.440  24.051  0.00  0.00    -0.272 OA
BRANCH  13  15
ATOM     15  C   UNL     1      -3.562  -1.423  25.035  0.00  0.00    +0.169 C 
ATOM     16  N   UNL     1      -3.617  -1.591  25.840  0.00  0.00    -0.123 NA
BRANCH  15  17
ATOM     17  C   UNL     1      -3.490  -2.039  24.489  0.00  0.00    +0.027 C 
ATOM     18  C   UNL     1      -4.136  -2.251  24.022  0.00  0.00    +0.002 C 
ATOM     19  C   UNL     1      -2.774  -2.440  24.411  0.00  0.00    +0.002 C 
ENDBRANCH  15  17
ENDBRANCH  13  15
ENDBRANCH  11  12
TORSDOF 8
ENDMDL
MODEL 2
REMARK VINA RESULT:     -10.2      1.347      2.410
REMARK  Name = 
REMARK  8 active torsions:
REMARK  status: ('A' for Active; 'I' for Inactive)
REMARK    1  A    between atoms: C_2  and  C_4
REMARK    2  A    between atoms: C_4  and  C_5
REMARK    3  A    between atoms: C_5  and  N_6
REMARK    4  A    between atoms: C_5  and  C_25
REMARK    5  A    between atoms: C_7  and  C_9
REMARK    6  A    between atoms: C_11  and  N_12
REMARK    7  A    between atoms: C_13  and  C_15
REMARK    8  A    between atoms: C_15  and  C_17
REMARK                            x       y       z     vdW  Elec       q    Type
REMARK                         _______ _______ _______ _____ _____    ______ ____
ROOT
ATOM      9  C   UNL     1      -1.862   1.444  24.280  0.00  0.00    +0.033 C 
ATOM     10  C   UNL     1      -2.268   0.800  24.598  0.00  0.00    -0.002 C 
ATOM     11  C   UNL     1      -1.886   0.074  24.685  0.00  0.00    +0.150 C 
ATOM     20  C   UNL     1      -1.098  -0.008  24.455  0.00  0.00    +0.206 C 
ATOM     21  O   UNL     1      -0.716  -0.733  24.542  0.00  0.00    -0.218 OA
ATOM     22  C   UNL     1      -0.692   0.637  24.137  0.00  0.00    +0.189 C 
ATOM     23  O   UNL     1       0.096   0.555  23.907  0.00  0.00    -0.220 OA
ATOM     24  C   UNL     1      -1.074   1.362  24.050  0.00  0.00    +0.066 C 
ENDROOT
BRANCH   9   7
ATOM      6  N   UNL     1      -2.422   2.625  24.858  0.00  0.00    -0.194 NA
ATOM      7  C   UNL     1      -2.244   2.171  24.193  0.00  0.00    +0.261 C 
ATOM      8  O   UNL     1      -2.449   2.441  23.442  0.00  0.00    -0.269 OA
BRANCH   6   5
ATOM      5  C   UNL     1      -2.804   3.352  24.771  0.00  0.00    +0.175 C 
BRANCH   5  25
ATOM     25  C   UNL     1      -3.627   3.390  24.797  0.00  0.00    +0.281 C 
ATOM     26  N   UNL     1      -4.042   3.780  24.199  0.00  0.00    -0.086 NA
ATOM     27  O   UNL     1      -4.037   3.039  25.421  0.00  0.00    -0.270 OA
ENDBRANCH   5  25
BRANCH   5   4
ATOM      4  C   UNL     1      -2.362   4.039  24.657  0.00  0.00    +0.031 C 
BRANCH   4   2
ATOM      1  C   UNL     1      -1.318   4.848  25.202  0.00  0.00    +0.000 C 
ATOM      2  C   UNL     1      -2.013   4.416  25.303  0.00  0.00    +0.002 C 
ATOM      3  C   UNL     1      -2.359   4.360  26.049  0.00  0.00    +0.000 C 
ENDBRANCH   4   2
ENDBRANCH   5   4
ENDBRANCH   6   5
ENDBRANCH   9   7
BRANCH  11  12
ATOM     12  N   UNL     1      -2.292  -0.570  25.003  0.00  0.00    -0.199 NA
ATOM     13  C   UNL     1      -2.996  -0.825  24.655  0.00  0.00    +0.259 C 
ATOM     14  O   UNL     1      -3.292  -0.437  23.990  0.00  0.00    -0.272 OA
BRANCH  13  15
ATOM     15  C   UNL     1      -3.403  -1.469  24.973  0.00  0.00    +0.169 C 
ATOM     16  N   UNL     1      -3.519  -1.523  25.787  0.00  0.00    -0.123 NA
BRANCH  15  17
ATOM     17  C   UNL     1      -3.693  -2.059  24.474  0.00  0.00    +0.027 C 
ATOM     18  C   UNL     1      -4.297  -1.886  23.939  0.00  0.00    +0.002 C 
ATOM     19  C   UNL     1      -3.381  -2.822  24.511  0.00  0.00    +0.002 C 
ENDBRANCH  15  17
ENDBRANCH  13  15
ENDBRANCH  11  12
TORSDOF 8
ENDMDL
MODEL 3
REMARK VINA RESULT:     -10.1      1.155      4.490
REMARK  Name = 
REMARK  8 active torsions:
REMARK  status: ('A' for Active; 'I' for Inactive)
REMARK    1  A    between atoms: C_2  and  C_4
REMARK    2  A    between atoms: C_4  and  C_5
REMARK    3  A    between atoms: C_5  and  N_6
REMARK    4  A    between atoms: C_5  and  C_25
REMARK    5  A    between atoms: C_7  and  C_9
REMARK    6  A    between atoms: C_11  and  N_12
REMARK    7  A    between atoms: C_13  and  C_15
REMARK    8  A    between atoms: C_15  and  C_17
REMARK                            x       y       z     vdW  Elec       q    Type
REMARK                         _______ _______ _______ _____ _____    ______ ____
ROOT
ATOM      9  C   UNL     1      -3.838   1.277  24.659  0.00  0.00    +0.033 C 
ATOM     10  C   UNL     1      -3.418   1.887  25.022  0.00  0.00    -0.002 C 
ATOM     11  C   UNL     1      -3.810   2.574  25.258  0.00  0.00    +0.150 C 
ATOM     20  C   UNL     1      -4.621   2.650  25.131  0.00  0.00    +0.206 C 
ATOM     21  O   UNL     1      -5.013   3.336  25.367  0.00  0.00    -0.218 OA
ATOM     22  C   UNL     1      -5.041   2.040  24.767  0.00  0.00    +0.189 C 
ATOM     23  O   UNL     1      -5.853   2.116  24.640  0.00  0.00    -0.220 OA
ATOM     24  C   UNL     1      -4.650   1.353  24.531  0.00  0.00    +0.066 C 
ENDROOT
BRANCH   9   7
ATOM      6  N   UNL     1      -3.217   0.032  24.985  0.00  0.00    -0.194 NA
ATOM      7  C   UNL     1      -3.446   0.590  24.422  0.00  0.00    +0.261 C 
ATOM      8  O   UNL     1      -3.284   0.461  23.625  0.00  0.00    -0.269 OA
BRANCH   6   5
ATOM      5  C   UNL     1      -2.824  -0.655  24.749  0.00  0.00    +0.175 C 
BRANCH   5  25
ATOM     25  C   UNL     1      -2.008  -0.716  24.841  0.00  0.00    +0.281 C 
ATOM     26  N   UNL     1      -1.665  -0.586  25.581  0.00  0.00    -0.086 NA
ATOM     27  O   UNL     1      -1.532  -0.906  24.194  0.00  0.00    -0.270 OA
ENDBRANCH   5  25
BRANCH   5   4
ATOM      4  C   UNL     1      -3.251  -1.280  24.421  0.00  0.00    +0.031 C 
BRANCH   4   2
ATOM      1  C   UNL     1      -3.532  -2.676  24.537  0.00  0.00    +0.000 C 
ATOM      2  C   UNL     1      -3.448  -1.933  24.885  0.00  0.00    +0.002 C 
ATOM      3  C   UNL     1      -3.561  -1.843  25.697  0.00  0.00    +0.000 C 
ENDBRANCH   4   2
ENDBRANCH   5   4
ENDBRANCH   6   5
ENDBRANCH   9   7
BRANCH  11  12
ATOM     12  N   UNL     1      -3.390   3.183  25.622  0.00  0.00    -0.199 NA
ATOM     13  C   UNL     1      -2.758   3.540  25.228  0.00  0.00    +0.259 C 
ATOM     14  O   UNL     1      -2.547   3.287  24.471  0.00  0.00    -0.272 OA
BRANCH  13  15
ATOM     15  C   UNL     1      -2.337   4.150  25.591  0.00  0.00    +0.169 C 
ATOM     16  N   UNL     1      -2.639   4.513  26.267  0.00  0.00    -0.123 NA
BRANCH  15  17
ATOM     17  C   UNL     1      -1.614   4.396  25.278  0.00  0.00    +0.027 C 
ATOM     18  C   UNL     1      -0.956   3.901  25.324  0.00  0.00    +0.002 C 
ATOM     19  C   UNL     1      -1.551   5.136  24.918  0.00  0.00    +0.002 C 
ENDBRANCH  15  17
ENDBRANCH  13  15
ENDBRANCH  11  12
TORSDOF 8
ENDMDL
MODEL 4
REMARK VINA RESULT:      -9.8      1.803      5.259
REMARK  Name = 
REMARK  8 active torsions:
REMARK  status: ('A' for Active; 'I' for Inactive)
REMARK    1  A    between atoms: C_2  and  C_4
REMARK    2  A    between atoms: C_4  and  C_5
REMARK    3  A    between atoms: C_5  and  N_6
REMARK    4  A    between atoms: C_5  and  C_25
REMARK    5  A    between atoms: C_7  and  C_9
REMARK    6  A    between atoms: C_11  and  N_12
REMARK    7  A    between atoms: C_13  and  C_15
REMARK    8  A    between atoms: C_15  and  C_17
REMARK                            x       y       z     vdW  Elec       q    Type
REMARK                         _______ _______ _______ _____ _____    ______ ____
ROOT
ATOM      9  C   UNL     1      -1.139  -0.147  24.810  0.00  0.00    +0.033 C 
ATOM     10  C   UNL     1      -1.025   0.578  25.187  0.00  0.00    -0.002 C 
ATOM     11  C   UNL     1      -0.456   1.105  24.903  0.00  0.00    +0.150 C 
ATOM     20  C   UNL     1      -0.002   0.906  24.244  0.00  0.00    +0.206 C 
ATOM     21  O   UNL     1       0.566   1.432  23.961  0.00  0.00    -0.218 OA
ATOM     22  C   UNL     1      -0.116   0.180  23.868  0.00  0.00    +0.189 C 
ATOM     23  O   UNL     1       0.339  -0.020  23.209  0.00  0.00    -0.220 OA
ATOM     24  C   UNL     1      -0.684  -0.346  24.151  0.00  0.00    +0.066 C 
ENDROOT
BRANCH   9   7
ATOM      6  N   UNL     1      -2.477  -0.649  24.797  0.00  0.00    -0.194 NA
ATOM      7  C   UNL     1      -1.708  -0.674  25.094  0.00  0.00    +0.261 C 
ATOM      8  O   UNL     1      -1.508  -1.224  25.674  0.00  0.00    -0.269 OA
BRANCH   6   5
ATOM      5  C   UNL     1      -3.046  -1.175  25.080  0.00  0.00    +0.175 C 
BRANCH   5  25
ATOM     25  C   UNL     1      -3.571  -0.937  25.670  0.00  0.00    +0.281 C 
ATOM     26  N   UNL     1      -4.065  -0.288  25.545  0.00  0.00    -0.086 NA
ATOM     27  O   UNL     1      -3.603  -1.348  26.384  0.00  0.00    -0.270 OA
ENDBRANCH   5  25
BRANCH   5   4
ATOM      4  C   UNL     1      -3.089  -1.940  24.773  0.00  0.00    +0.031 C 
BRANCH   4   2
ATOM      1  C   UNL     1      -3.937  -2.910  24.156  0.00  0.00    +0.000 C 
ATOM      2  C   UNL     1      -3.676  -2.131  24.224  0.00  0.00    +0.002 C 
ATOM      3  C   UNL     1      -4.000  -1.543  23.745  0.00  0.00    +0.000 C 
ENDBRANCH   4   2
ENDBRANCH   5   4
ENDBRANCH   6   5
ENDBRANCH   9   7
BRANCH  11  12
ATOM     12  N   UNL     1      -0.343   1.830  25.279  0.00  0.00    -0.199 NA
ATOM     13  C   UNL     1      -0.959   2.379  25.311  0.00  0.00    +0.259 C 
ATOM     14  O   UNL     1      -1.687   2.202  24.966  0.00  0.00    -0.272 OA
BRANCH  13  15
ATOM     15  C   UNL     1      -0.845   3.104  25.687  0.00  0.00    +0.169 C 
ATOM     16  N   UNL     1      -0.284   3.175  26.286  0.00  0.00    -0.123 NA
BRANCH  15  17
ATOM     17  C   UNL     1      -1.295   3.759  25.463  0.00  0.00    +0.027 C 
ATOM     18  C   UNL     1      -0.972   4.327  24.958  0.00  0.00    +0.002 C 
ATOM     19  C   UNL     1      -2.066   3.847  25.743  0.00  0.00    +0.002 C 
ENDBRANCH  15  17
ENDBRANCH  13  15
ENDBRANCH  11  12
TORSDOF 8
ENDMDL
MODEL 5
REMARK VINA RESULT:      -9.8      1.657      4.741
REMARK  Name = 
REMARK  8 active torsions:
REMARK  status: ('A' for Active; 'I' for Inactive)
REMARK    1  A    between atoms: C_2  and  C_4
REMARK    2  A    between atoms: C_4  and  C_5
REMARK    3  A    between atoms: C_5  and  N_6
REMARK    4  A    between atoms: C_5  and  C_25
REMARK    5  A    between atoms: C_7  and  C_9
REMARK    6  A    between atoms: C_11  and  N_12
REMARK    7  A    between atoms: C_13  and  C_15
REMARK    8  A    between atoms: C_15  and  C_17
REMARK                            x       y       z     vdW  Elec       q    Type
REMARK                         _______ _______ _______ _____ _____    ______ ____
ROOT
ATOM      9  C   UNL     1      -1.767   0.449  25.200  0.00  0.00    +0.033 C 
ATOM     10  C   UNL     1      -2.341   0.950  24.885  0.00  0.00    -0.002 C 
ATOM     11  C   UNL     1      -2.177   1.753  24.786  0.00  0.00    +0.150 C 
ATOM     20  C   UNL     1      -1.440   2.054  25.001  0.00  0.00    +0.206 C 
ATOM     21  O   UNL     1      -1.276   2.855  24.901  0.00  0.00    -0.218 OA
ATOM     22  C   UNL     1      -0.866   1.551  25.316  0.00  0.00    +0.189 C 
ATOM     23  O   UNL     1      -0.128   1.851  25.531  0.00  0.00    -0.220 OA
ATOM     24  C   UNL     1      -1.030   0.749  25.415  0.00  0.00    +0.066 C 
ENDROOT
BRANCH   9   7
ATOM      6  N   UNL     1      -2.158  -0.812  24.652  0.00  0.00    -0.194 NA
ATOM      7  C   UNL     1      -1.931  -0.354  25.300  0.00  0.00    +0.261 C 
ATOM      8  O   UNL     1      -1.868  -0.698  26.046  0.00  0.00    -0.269 OA
BRANCH   6   5
ATOM      5  C   UNL     1      -2.323  -1.615  24.752  0.00  0.00    +0.175 C 
BRANCH   5  25
ATOM     25  C   UNL     1      -1.739  -2.177  24.600  0.00  0.00    +0.281 C 
ATOM     26  N   UNL     1      -1.378  -2.208  23.858  0.00  0.00    -0.086 NA
ATOM     27  O   UNL     1      -1.515  -2.708  25.190  0.00  0.00    -0.270 OA
ENDBRANCH   5  25
BRANCH   5   4
ATOM      4  C   UNL     1      -3.071  -1.854  25.003  0.00  0.00    +0.031 C 
BRANCH   4   2
ATOM      1  C   UNL     1      -3.743  -2.895  24.292  0.00  0.00    +0.000 C 
ATOM      2  C   UNL     1      -3.635  -2.093  24.450  0.00  0.00    +0.002 C 
ATOM      3  C   UNL     1      -4.089  -1.530  24.055  0.00  0.00    +0.000 C 
ENDBRANCH   4   2
ENDBRANCH   5   4
ENDBRANCH   6   5
ENDBRANCH   9   7
BRANCH  11  12
ATOM     12  N   UNL     1      -2.752   2.255  24.471  0.00  0.00    -0.199 NA
ATOM     13  C   UNL     1      -3.504   2.285  24.810  0.00  0.00    +0.259 C 
ATOM     14  O   UNL     1      -3.680   1.813  25.464  0.00  0.00    -0.272 OA
BRANCH  13  15
ATOM     15  C   UNL     1      -4.078   2.786  24.496  0.00  0.00    +0.169 C 
ATOM     16  N   UNL     1      -4.000   3.072  23.727  0.00  0.00    -0.123 NA
BRANCH  15  17
ATOM     17  C   UNL     1      -4.732   3.002  24.952  0.00  0.00    +0.027 C 
ATOM     18  C   UNL     1      -4.714   3.699  25.393  0.00  0.00    +0.002 C 
ATOM     19  C   UNL     1      -5.402   2.521  24.966  0.00  0.00    +0.002 C 
ENDBRANCH  15  17
ENDBRANCH  13  15
ENDBRANCH  11  12
TORSDOF 8
ENDMDL
