MODEL 1
REMARK VINA RESULT:      -9.3      0.000      0.000
REMARK  Name = 
REMARK  3 active torsions:
REMARK  status: ('A' for Active; 'I' for Inactive)
REMARK    1  A    between atoms: O_2  and  C_3
REMARK    2  A    between atoms: C_7  and  C_8
REMARK    3  A    between atoms: C_8  and  N_9
REMARK                            x       y       z     vdW  Elec       q    Type
REMARK                         _______ _______ _______ _____ _____    ______ ____
ROOT
ATOM      9  N   UNL     1      -3.888   0.503  25.064  0.00  0.00    -0.266 NA
ATOM     10  C   UNL     1      -4.444   0.962  24.664  0.00  0.00    +0.094 C 
ATOM     11  C   UNL     1      -4.232   1.703  24.371  0.00  0.00    +0.112 C 
ATOM     12  N   UNL     1      -3.464   1.985  24.477  0.00  0.00    -0.261 N 
ATOM     13  C   UNL     1      -2.907   1.525  24.877  0.00  0.00    +0.113 C 
ATOM     14  C   UNL     1      -2.198   1.945  24.898  0.00  0.00    +0.116 C 
ATOM     15  N   UNL     1      -2.315   2.663  24.511  0.00  0.00    -0.261 N 
ATOM     16  C   UNL     1      -1.749   3.254  24.403  0.00  0.00    +0.117 C 
ATOM     17  C   UNL     1      -3.097   2.688  24.251  0.00  0.00    +0.307 C 
ATOM     18  O   UNL     1      -3.451   3.308  23.837  0.00  0.00    -0.252 OA
ATOM     19  C   UNL     1      -3.119   0.784  25.171  0.00  0.00    +0.094 C 
ENDROOT
BRANCH   9   8
ATOM      8  C   UNL     1      -4.100  -0.239  25.358  0.00  0.00    +0.099 C 
BRANCH   8   7
ATOM      3  C   UNL     1      -3.123  -2.072  24.686  0.00  0.00    +0.138 A 
ATOM      4  C   UNL     1      -3.600  -2.277  24.046  0.00  0.00    +0.037 A 
ATOM      5  C   UNL     1      -4.243  -1.804  23.843  0.00  0.00    +0.003 A 
ATOM      6  C   UNL     1      -4.411  -1.124  24.280  0.00  0.00    -0.003 A 
ATOM      7  C   UNL     1      -3.933  -0.918  24.921  0.00  0.00    -0.003 A 
ATOM     20  C   UNL     1      -3.289  -1.392  25.124  0.00  0.00    +0.034 A 
BRANCH   3   2
ATOM      1  C   UNL     1      -1.795  -2.533  24.427  0.00  0.00    +0.252 C 
ATOM      2  O   UNL     1      -2.478  -2.546  24.890  0.00  0.00    -0.471 OA
ENDBRANCH   3   2
ENDBRANCH   8   7
ENDBRANCH   9   8
TORSDOF 3
ENDMDL
MODEL 2
REMARK VINA RESULT:      -9.3      2.653      5.013
REMARK  Name = 
REMARK  3 active torsions:
REMARK  status: ('A' for Active; 'I' for Inactive)
REMARK    1  A    between atoms: O_2  and  C_3
REMARK    2  A    between atoms: C_7  and  C_8
REMARK    3  A    between atoms: C_8  and  N_9
REMARK                            x       y       z     vdW  Elec       q    Type
REMARK                         _______ _______ _______ _____ _____    ______ ____
ROOT
ATOM      9  N   UNL     1      -0.384   2.114  25.436  0.00  0.00    -0.266 NA
ATOM     10  C   UNL     1       0.061   2.111  24.741  0.00  0.00    +0.094 C 
ATOM     11  C   UNL     1       0.115   1.425  24.289  0.00  0.00    +0.112 C 
ATOM     12  N   UNL     1      -0.275   0.739  24.530  0.00  0.00    -0.261 N 
ATOM     13  C   UNL     1      -0.720   0.741  25.225  0.00  0.00    +0.113 C 
ATOM     14  C   UNL     1      -1.042  -0.012  25.323  0.00  0.00    +0.116 C 
ATOM     15  N   UNL     1      -0.797  -0.479  24.690  0.00  0.00    -0.261 N 
ATOM     16  C   UNL     1      -0.991  -1.271  24.568  0.00  0.00    +0.117 C 
ATOM     17  C   UNL     1      -0.323  -0.015  24.200  0.00  0.00    +0.307 C 
ATOM     18  O   UNL     1       0.040  -0.262  23.501  0.00  0.00    -0.252 OA
ATOM     19  C   UNL     1      -0.775   1.429  25.678  0.00  0.00    +0.094 C 
ENDROOT
BRANCH   9   8
ATOM      8  C   UNL     1      -0.438   2.801  25.890  0.00  0.00    +0.099 C 
BRANCH   8   7
ATOM      3  C   UNL     1      -2.292   3.943  25.748  0.00  0.00    +0.138 A 
ATOM      4  C   UNL     1      -2.054   4.568  25.265  0.00  0.00    +0.037 A 
ATOM      5  C   UNL     1      -1.278   4.604  24.991  0.00  0.00    +0.003 A 
ATOM      6  C   UNL     1      -0.738   4.016  25.198  0.00  0.00    -0.003 A 
ATOM      7  C   UNL     1      -0.976   3.391  25.681  0.00  0.00    -0.003 A 
ATOM     20  C   UNL     1      -1.754   3.354  25.956  0.00  0.00    +0.034 A 
BRANCH   3   2
ATOM      1  C   UNL     1      -3.688   3.775  25.493  0.00  0.00    +0.252 C 
ATOM      2  O   UNL     1      -3.070   3.907  26.023  0.00  0.00    -0.471 OA
ENDBRANCH   3   2
ENDBRANCH   8   7
ENDBRANCH   9   8
TORSDOF 3
ENDMDL
MODEL 3
REMARK VINA RESULT:      -9.3      1.008      1.508
REMARK  Name = 
REMARK  3 active torsions:
REMARK  status: ('A' for Active; 'I' for Inactive)
REMARK    1  A    between atoms: O_2  and  C_3
REMARK    2  A    between atoms: C_7  and  C_8
REMARK    3  A    between atoms: C_8  and  N_9
REMARK                            x       y       z     vdW  Elec       q    Type
REMARK                         _______ _______ _______ _____ _____    ______ ____
ROOT
ATOM      9  N   UNL     1      -4.238   0.509  24.356  0.00  0.00    -0.266 NA
ATOM     10  C   UNL     1      -3.625   0.838  23.912  0.00  0.00    +0.094 C 
ATOM     11  C   UNL     1      -3.479   1.649  23.949  0.00  0.00    +0.112 C 
ATOM     12  N   UNL     1      -3.946   2.131  24.429  0.00  0.00    -0.261 N 
ATOM     13  C   UNL     1      -4.558   1.802  24.873  0.00  0.00    +0.113 C 
ATOM     14  C   UNL     1      -4.923   2.410  25.293  0.00  0.00    +0.116 C 
ATOM     15  N   UNL     1      -4.537   3.115  25.109  0.00  0.00    -0.261 N 
ATOM     16  C   UNL     1      -4.722   3.862  25.407  0.00  0.00    +0.117 C 
ATOM     17  C   UNL     1      -3.933   2.942  24.575  0.00  0.00    +0.307 C 
ATOM     18  O   UNL     1      -3.407   3.486  24.245  0.00  0.00    -0.252 OA
ATOM     19  C   UNL     1      -4.704   0.990  24.837  0.00  0.00    +0.094 C 
ENDROOT
BRANCH   9   8
ATOM      8  C   UNL     1      -4.384  -0.303  24.320  0.00  0.00    +0.099 C 
BRANCH   8   7
ATOM      3  C   UNL     1      -2.892  -1.853  24.688  0.00  0.00    +0.138 A 
ATOM      4  C   UNL     1      -2.895  -1.881  25.512  0.00  0.00    +0.037 A 
ATOM      5  C   UNL     1      -3.395  -1.383  25.939  0.00  0.00    +0.003 A 
ATOM      6  C   UNL     1      -3.891  -0.856  25.543  0.00  0.00    -0.003 A 
ATOM      7  C   UNL     1      -3.888  -0.829  24.718  0.00  0.00    -0.003 A 
ATOM     20  C   UNL     1      -3.388  -1.327  24.290  0.00  0.00    +0.034 A 
BRANCH   3   2
ATOM      1  C   UNL     1      -1.589  -2.389  24.447  0.00  0.00    +0.252 C 
ATOM      2  O   UNL     1      -2.392  -2.351  24.260  0.00  0.00    -0.471 OA
ENDBRANCH   3   2
ENDBRANCH   8   7
ENDBRANCH   9   8
TORSDOF 3
ENDMDL
MODEL 4
REMARK VINA RESULT:      -8.9      1.284      4.258
REMARK  Name = 
REMARK  3 active torsions:
REMARK  status: ('A' for Active; 'I' for Inactive)
REMARK    1  A    between atoms: O_2  and  C_3
REMARK    2  A    between atoms: C_7  and  C_8
REMARK    3  A    between atoms: C_8  and  N_9
REMARK                            x       y       z     vdW  Elec       q    Type
REMARK                         _______ _______ _______ _____ _____    ______ ____
ROOT
ATOM      9  N   UNL     1      -3.391   0.913  24.042  0.00  0.00    -0.266 NA
ATOM     10  C   UNL     1      -2.604   0.857  24.283  0.00  0.00    +0.094 C 
ATOM     11  C   UNL     1      -2.306   0.137  24.555  0.00  0.00    +0.112 C 
ATOM     12  N   UNL     1      -2.795  -0.527  24.586  0.00  0.00    -0.261 N 
ATOM     13  C   UNL     1      -3.582  -0.471  24.345  0.00  0.00    +0.113 C 
ATOM     14  C   UNL     1      -3.930  -1.213  24.436  0.00  0.00    +0.116 C 
ATOM     15  N   UNL     1      -3.358  -1.727  24.734  0.00  0.00    -0.261 N 
ATOM     16  C   UNL     1      -3.469  -2.526  24.908  0.00  0.00    +0.117 C 
ATOM     17  C   UNL     1      -2.657  -1.303  24.826  0.00  0.00    +0.307 C 
ATOM     18  O   UNL     1      -1.942  -1.603  25.109  0.00  0.00    -0.252 OA
ATOM     19  C   UNL     1      -3.881   0.249  24.073  0.00  0.00    +0.094 C 
ENDROOT
BRANCH   9   8
ATOM      8  C   UNL     1      -3.690   1.633  23.771  0.00  0.00    +0.099 C 
BRANCH   8   7
ATOM      3  C   UNL     1      -3.711   3.365  25.098  0.00  0.00    +0.138 A 
ATOM      4  C   UNL     1      -4.482   3.331  25.387  0.00  0.00    +0.037 A 
ATOM      5  C   UNL     1      -4.989   2.730  25.138  0.00  0.00    +0.003 A 
ATOM      6  C   UNL     1      -4.726   2.164  24.599  0.00  0.00    -0.003 A 
ATOM      7  C   UNL     1      -3.954   2.199  24.309  0.00  0.00    -0.003 A 
ATOM     20  C   UNL     1      -3.446   2.800  24.559  0.00  0.00    +0.034 A 
BRANCH   3   2
ATOM      1  C   UNL     1      -3.032   4.055  26.149  0.00  0.00    +0.252 C 
ATOM      2  O   UNL     1      -3.202   3.967  25.347  0.00  0.00    -0.471 OA
ENDBRANCH   3   2
ENDBRANCH   8   7
ENDBRANCH   9   8
TORSDOF 3
ENDMDL
MODEL 5
REMARK VINA RESULT:      -8.9      2.810      3.978
REMARK  Name = 
REMARK  3 active torsions:
REMARK  status: ('A' for Active; 'I' for Inactive)
REMARK    1  A    between atoms: O_2  and  C_3
REMARK    2  A    between atoms: C_7  and  C_8
REMARK    3  A    between atoms: C_8  and  N_9
REMARK                            x       y       z     vdW  Elec       q    Type
REMARK                         _______ _______ _______ _____ _____    ______ ____
ROOT
ATOM      9  N   UNL     1      -2.734   3.436  24.971  0.00  0.00    -0.266 NA
ATOM     10  C   UNL     1      -3.018   3.818  25.645  0.00  0.00    +0.094 C 
ATOM     11  C   UNL     1      -3.787   3.675  25.906  0.00  0.00    +0.112 C 
ATOM     12  N   UNL     1      -4.273   3.151  25.493  0.00  0.00    -0.261 N 
ATOM     13  C   UNL     1      -3.988   2.769  24.819  0.00  0.00    +0.113 C 
ATOM     14  C   UNL     1      -4.589   2.286  24.528  0.00  0.00    +0.116 C 
ATOM     15  N   UNL     1      -5.245   2.368  25.021  0.00  0.00    -0.261 N 
ATOM     16  C   UNL     1      -5.969   1.983  24.934  0.00  0.00    +0.117 C 
ATOM     17  C   UNL     1      -5.049   2.903  25.618  0.00  0.00    +0.307 C 
ATOM     18  O   UNL     1      -5.543   3.147  26.232  0.00  0.00    -0.252 OA
ATOM     19  C   UNL     1      -3.218   2.912  24.558  0.00  0.00    +0.094 C 
ENDROOT
BRANCH   9   8
ATOM      8  C   UNL     1      -1.964   3.579  24.710  0.00  0.00    +0.099 C 
BRANCH   8   7
ATOM      3  C   UNL     1      -0.440   2.019  24.789  0.00  0.00    +0.138 A 
ATOM      4  C   UNL     1      -0.101   2.169  25.526  0.00  0.00    +0.037 A 
ATOM      5  C   UNL     1      -0.383   2.788  25.990  0.00  0.00    +0.003 A 
ATOM      6  C   UNL     1      -1.004   3.259  25.719  0.00  0.00    -0.003 A 
ATOM      7  C   UNL     1      -1.343   3.109  24.982  0.00  0.00    -0.003 A 
ATOM     20  C   UNL     1      -1.061   2.488  24.516  0.00  0.00    +0.034 A 
BRANCH   3   2
ATOM      1  C   UNL     1      -0.374   0.621  24.497  0.00  0.00    +0.252 C 
ATOM      2  O   UNL     1      -0.158   1.398  24.323  0.00  0.00    -0.471 OA
ENDBRANCH   3   2
ENDBRANCH   8   7
ENDBRANCH   9   8
TORSDOF 3
ENDMDL
