MODEL 1
REMARK VINA RESULT:     -12.1      0.000      0.000
REMARK  Name = 
REMARK  4 active torsions:
REMARK  status: ('A' for Active; 'I' for Inactive)
REMARK    1  A    between atoms: C_2  and  C_20
REMARK    2  A    between atoms: C_9  and  N_10
REMARK    3  A    between atoms: C_20  and  C_22
REMARK    4  A    between atoms: N_24  and  C_25
REMARK                            x       y       z     vdW  Elec       q    Type
REMARK                         _______ _______ _______ _____ _____    ______ ____
ROOT
ATOM      1  C   UNL     1      -3.259   2.043  24.224  0.00  0.00    +0.052 C 
ATOM      2  C   UNL     1      -4.062   2.164  24.371  0.00  0.00    -0.001 C 
ATOM      3  C   UNL     1      -4.538   1.532  24.602  0.00  0.00    -0.000 C 
ATOM      4  C   UNL     1      -4.213   0.779  24.688  0.00  0.00    -0.001 C 
ATOM      5  C   UNL     1      -5.016   0.900  24.835  0.00  0.00    -0.000 C 
ATOM      6  C   UNL     1      -4.689   0.146  24.920  0.00  0.00    +0.002 C 
ATOM      7  C   UNL     1      -4.364  -0.606  25.006  0.00  0.00    +0.022 C 
ATOM      8  C   UNL     1      -3.561  -0.727  24.859  0.00  0.00    +0.095 C 
ATOM     13  C   UNL     1      -3.084  -0.096  24.627  0.00  0.00    +0.019 C 
ATOM     14  C   UNL     1      -2.282  -0.217  24.480  0.00  0.00    +0.002 C 
ATOM     15  C   UNL     1      -3.410   0.658  24.541  0.00  0.00    +0.045 C 
ATOM     16  C   UNL     1      -2.933   1.290  24.309  0.00  0.00    +0.145 C 
ATOM     17  O   UNL     1      -2.131   1.169  24.162  0.00  0.00    -0.224 OA
ENDROOT
BRANCH   8   9
ATOM      9  N   UNL     1      -3.235  -1.480  24.944  0.00  0.00    -0.207 NA
ATOM     10  C   UNL     1      -3.593  -2.128  24.579  0.00  0.00    +0.242 C 
ATOM     11  C   UNL     1      -3.267  -2.881  24.664  0.00  0.00    +0.096 C 
ATOM     12  O   UNL     1      -4.277  -2.023  24.130  0.00  0.00    -0.273 OA
ENDBRANCH   8   9
BRANCH   1  18
ATOM     18  C   UNL     1      -2.782   2.674  23.992  0.00  0.00    +0.077 C 
ATOM     19  C   UNL     1      -2.355   2.632  23.288  0.00  0.00    +0.009 C 
BRANCH  18  20
ATOM     20  C   UNL     1      -2.732   3.349  24.465  0.00  0.00    +0.241 C 
ATOM     21  O   UNL     1      -3.347   3.899  24.464  0.00  0.00    -0.273 OA
ATOM     22  N   UNL     1      -2.068   3.472  24.937  0.00  0.00    -0.207 NA
BRANCH  22  23
ATOM     23  C   UNL     1      -2.018   4.147  25.411  0.00  0.00    +0.095 C 
ATOM     24  C   UNL     1      -1.577   4.796  25.157  0.00  0.00    +0.023 C 
ATOM     25  C   UNL     1      -2.409   4.172  26.136  0.00  0.00    +0.023 C 
ENDBRANCH  22  23
ENDBRANCH  18  20
ENDBRANCH   1  18
TORSDOF 4
ENDMDL
MODEL 2
REMARK VINA RESULT:     -12.0      0.870      4.322
REMARK  Name = 
REMARK  4 active torsions:
REMARK  status: ('A' for Active; 'I' for Inactive)
REMARK    1  A    between atoms: C_2  and  C_20
REMARK    2  A    between atoms: C_9  and  N_10
REMARK    3  A    between atoms: C_20  and  C_22
REMARK    4  A    between atoms: N_24  and  C_25
REMARK                            x       y       z     vdW  Elec       q    Type
REMARK                         _______ _______ _______ _____ _____    ______ ____
ROOT
ATOM      1  C   UNL     1      -3.913   0.726  24.289  0.00  0.00    +0.052 C 
ATOM      2  C   UNL     1      -4.638   0.922  24.631  0.00  0.00    -0.001 C 
ATOM      3  C   UNL     1      -4.766   1.685  24.916  0.00  0.00    -0.000 C 
ATOM      4  C   UNL     1      -4.169   2.253  24.860  0.00  0.00    -0.001 C 
ATOM      5  C   UNL     1      -4.894   2.449  25.201  0.00  0.00    -0.000 C 
ATOM      6  C   UNL     1      -4.297   3.017  25.145  0.00  0.00    +0.002 C 
ATOM      7  C   UNL     1      -3.701   3.583  25.089  0.00  0.00    +0.022 C 
ATOM      8  C   UNL     1      -2.976   3.387  24.748  0.00  0.00    +0.095 C 
ATOM     13  C   UNL     1      -2.847   2.624  24.462  0.00  0.00    +0.019 C 
ATOM     14  C   UNL     1      -2.123   2.428  24.121  0.00  0.00    +0.002 C 
ATOM     15  C   UNL     1      -3.444   2.056  24.518  0.00  0.00    +0.045 C 
ATOM     16  C   UNL     1      -3.316   1.292  24.233  0.00  0.00    +0.145 C 
ATOM     17  O   UNL     1      -2.592   1.096  23.892  0.00  0.00    -0.224 OA
ENDROOT
BRANCH   8   9
ATOM      9  N   UNL     1      -2.379   3.953  24.691  0.00  0.00    -0.207 NA
ATOM     10  C   UNL     1      -2.186   4.415  25.348  0.00  0.00    +0.242 C 
ATOM     11  C   UNL     1      -1.589   4.981  25.291  0.00  0.00    +0.096 C 
ATOM     12  O   UNL     1      -2.589   4.310  26.060  0.00  0.00    -0.273 OA
ENDBRANCH   8   9
BRANCH   1  18
ATOM     18  C   UNL     1      -3.784  -0.037  24.004  0.00  0.00    +0.077 C 
ATOM     19  C   UNL     1      -3.567  -0.152  23.217  0.00  0.00    +0.009 C 
BRANCH  18  20
ATOM     20  C   UNL     1      -3.873  -0.686  24.507  0.00  0.00    +0.241 C 
ATOM     21  O   UNL     1      -4.628  -0.949  24.711  0.00  0.00    -0.273 OA
ATOM     22  N   UNL     1      -3.207  -1.070  24.805  0.00  0.00    -0.207 NA
BRANCH  22  23
ATOM     23  C   UNL     1      -3.296  -1.719  25.308  0.00  0.00    +0.095 C 
ATOM     24  C   UNL     1      -3.256  -1.615  26.125  0.00  0.00    +0.023 C 
ATOM     25  C   UNL     1      -3.425  -2.471  24.993  0.00  0.00    +0.023 C 
ENDBRANCH  22  23
ENDBRANCH  18  20
ENDBRANCH   1  18
TORSDOF 4
ENDMDL
MODEL 3
REMARK VINA RESULT:     -11.5      1.688      2.253
REMARK  Name = 
REMARK  4 active torsions:
REMARK  status: ('A' for Active; 'I' for Inactive)
REMARK    1  A    between atoms: C_2  and  C_20
REMARK    2  A    between atoms: C_9  and  N_10
REMARK    3  A    between atoms: C_20  and  C_22
REMARK    4  A    between atoms: N_24  and  C_25
REMARK                            x       y       z     vdW  Elec       q    Type
REMARK                         _______ _______ _______ _____ _____    ______ ____
ROOT
ATOM      1  C   UNL     1      -3.950   1.088  24.414  0.00  0.00    +0.052 C 
ATOM      2  C   UNL     1      -4.521   0.506  24.282  0.00  0.00    -0.001 C 
ATOM      3  C   UNL     1      -4.338  -0.287  24.412  0.00  0.00    -0.000 C 
ATOM      4  C   UNL     1      -3.585  -0.500  24.674  0.00  0.00    -0.001 C 
ATOM      5  C   UNL     1      -4.155  -1.081  24.543  0.00  0.00    -0.000 C 
ATOM      6  C   UNL     1      -3.402  -1.294  24.805  0.00  0.00    +0.002 C 
ATOM      7  C   UNL     1      -2.649  -1.506  25.067  0.00  0.00    +0.022 C 
ATOM      8  C   UNL     1      -2.079  -0.925  25.199  0.00  0.00    +0.095 C 
ATOM     13  C   UNL     1      -2.261  -0.131  25.069  0.00  0.00    +0.019 C 
ATOM     14  C   UNL     1      -1.692   0.450  25.201  0.00  0.00    +0.002 C 
ATOM     15  C   UNL     1      -3.015   0.082  24.806  0.00  0.00    +0.045 C 
ATOM     16  C   UNL     1      -3.198   0.876  24.676  0.00  0.00    +0.145 C 
ATOM     17  O   UNL     1      -2.628   1.457  24.808  0.00  0.00    -0.224 OA
ENDROOT
BRANCH   8   9
ATOM      9  N   UNL     1      -1.326  -1.136  25.461  0.00  0.00    -0.207 NA
ATOM     10  C   UNL     1      -0.926  -1.763  25.102  0.00  0.00    +0.242 C 
ATOM     11  C   UNL     1      -0.173  -1.975  25.364  0.00  0.00    +0.096 C 
ATOM     12  O   UNL     1      -1.279  -2.177  24.482  0.00  0.00    -0.273 OA
ENDBRANCH   8   9
BRANCH   1  18
ATOM     18  C   UNL     1      -4.132   1.882  24.284  0.00  0.00    +0.077 C 
ATOM     19  C   UNL     1      -3.676   2.330  23.765  0.00  0.00    +0.009 C 
BRANCH  18  20
ATOM     20  C   UNL     1      -4.773   2.227  24.675  0.00  0.00    +0.241 C 
ATOM     21  O   UNL     1      -5.543   2.069  24.424  0.00  0.00    -0.273 OA
ATOM     22  N   UNL     1      -4.642   2.730  25.315  0.00  0.00    -0.207 NA
BRANCH  22  23
ATOM     23  C   UNL     1      -5.282   3.076  25.706  0.00  0.00    +0.095 C 
ATOM     24  C   UNL     1      -5.489   3.858  25.545  0.00  0.00    +0.023 C 
ATOM     25  C   UNL     1      -5.714   2.638  26.256  0.00  0.00    +0.023 C 
ENDBRANCH  22  23
ENDBRANCH  18  20
ENDBRANCH   1  18
TORSDOF 4
ENDMDL
MODEL 4
REMARK VINA RESULT:     -11.5      1.661      4.368
REMARK  Name = 
REMARK  4 active torsions:
REMARK  status: ('A' for Active; 'I' for Inactive)
REMARK    1  A    between atoms: C_2  and  C_20
REMARK    2  A    between atoms: C_9  and  N_10
REMARK    3  A    between atoms: C_20  and  C_22
REMARK    4  A    between atoms: N_24  and  C_25
REMARK                            x       y       z     vdW  Elec       q    Type
REMARK                         _______ _______ _______ _____ _____    ______ ____
ROOT
ATOM      1  C   UNL     1      -3.590  -0.061  24.170  0.00  0.00    +0.052 C 
ATOM      2  C   UNL     1      -3.056   0.293  23.651  0.00  0.00    -0.001 C 
ATOM      3  C   UNL     1      -3.083   1.107  23.523  0.00  0.00    -0.000 C 
ATOM      4  C   UNL     1      -3.645   1.568  23.914  0.00  0.00    -0.001 C 
ATOM      5  C   UNL     1      -3.111   1.922  23.395  0.00  0.00    -0.000 C 
ATOM      6  C   UNL     1      -3.673   2.382  23.786  0.00  0.00    +0.002 C 
ATOM      7  C   UNL     1      -4.234   2.843  24.178  0.00  0.00    +0.022 C 
ATOM      8  C   UNL     1      -4.768   2.489  24.697  0.00  0.00    +0.095 C 
ATOM     13  C   UNL     1      -4.741   1.674  24.826  0.00  0.00    +0.019 C 
ATOM     14  C   UNL     1      -5.274   1.321  25.345  0.00  0.00    +0.002 C 
ATOM     15  C   UNL     1      -4.179   1.214  24.434  0.00  0.00    +0.045 C 
ATOM     16  C   UNL     1      -4.151   0.398  24.562  0.00  0.00    +0.145 C 
ATOM     17  O   UNL     1      -4.685   0.045  25.081  0.00  0.00    -0.224 OA
ENDROOT
BRANCH   8   9
ATOM      9  N   UNL     1      -5.330   2.948  25.089  0.00  0.00    -0.207 NA
ATOM     10  C   UNL     1      -5.113   3.677  25.412  0.00  0.00    +0.242 C 
ATOM     11  C   UNL     1      -5.675   4.136  25.804  0.00  0.00    +0.096 C 
ATOM     12  O   UNL     1      -4.336   3.944  25.344  0.00  0.00    -0.273 OA
ENDBRANCH   8   9
BRANCH   1  18
ATOM     18  C   UNL     1      -3.563  -0.876  24.299  0.00  0.00    +0.077 C 
ATOM     19  C   UNL     1      -4.180  -1.355  24.039  0.00  0.00    +0.009 C 
BRANCH  18  20
ATOM     20  C   UNL     1      -2.916  -1.210  24.689  0.00  0.00    +0.241 C 
ATOM     21  O   UNL     1      -2.809  -1.080  25.497  0.00  0.00    -0.273 OA
ATOM     22  N   UNL     1      -2.378  -1.674  24.270  0.00  0.00    -0.207 NA
BRANCH  22  23
ATOM     23  C   UNL     1      -1.732  -2.009  24.660  0.00  0.00    +0.095 C 
ATOM     24  C   UNL     1      -1.791  -2.766  24.981  0.00  0.00    +0.023 C 
ATOM     25  C   UNL     1      -1.027  -1.585  24.729  0.00  0.00    +0.023 C 
ENDBRANCH  22  23
ENDBRANCH  18  20
ENDBRANCH   1  18
TORSDOF 4
ENDMDL
MODEL 5
REMARK VINA RESULT:     -11.0      1.262      4.756
REMARK  Name = 
REMARK  4 active torsions:
REMARK  status: ('A' for Active; 'I' for Inactive)
REMARK    1  A    between atoms: C_2  and  C_20
REMARK    2  A    between atoms: C_9  and  N_10
REMARK    3  A    between atoms: C_20  and  C_22
REMARK    4  A    between atoms: N_24  and  C_25
REMARK                            x       y       z     vdW  Elec       q    Type
REMARK                         _______ _______ _______ _____ _____    ______ ____
ROOT
ATOM      1  C   UNL     1      -2.962   0.296  25.002  0.00  0.00    +0.052 C 
ATOM      2  C   UNL     1      -2.249  -0.061  25.212  0.00  0.00    -0.001 C 
ATOM      3  C   UNL     1      -1.563   0.392  25.272  0.00  0.00    -0.000 C 
ATOM      4  C   UNL     1      -1.589   1.203  25.122  0.00  0.00    -0.001 C 
ATOM      5  C   UNL     1      -0.875   0.846  25.332  0.00  0.00    -0.000 C 
ATOM      6  C   UNL     1      -0.902   1.657  25.182  0.00  0.00    +0.002 C 
ATOM      7  C   UNL     1      -0.929   2.467  25.032  0.00  0.00    +0.022 C 
ATOM      8  C   UNL     1      -1.642   2.825  24.822  0.00  0.00    +0.095 C 
ATOM     13  C   UNL     1      -2.329   2.372  24.761  0.00  0.00    +0.019 C 
ATOM     14  C   UNL     1      -3.041   2.729  24.551  0.00  0.00    +0.002 C 
ATOM     15  C   UNL     1      -2.302   1.561  24.912  0.00  0.00    +0.045 C 
ATOM     16  C   UNL     1      -2.989   1.107  24.851  0.00  0.00    +0.145 C 
ATOM     17  O   UNL     1      -3.702   1.464  24.641  0.00  0.00    -0.224 OA
ENDROOT
BRANCH   8   9
ATOM      9  N   UNL     1      -1.669   3.635  24.671  0.00  0.00    -0.207 NA
ATOM     10  C   UNL     1      -1.191   4.151  25.103  0.00  0.00    +0.242 C 
ATOM     11  C   UNL     1      -1.218   4.962  24.953  0.00  0.00    +0.096 C 
ATOM     12  O   UNL     1      -0.685   3.855  25.685  0.00  0.00    -0.273 OA
ENDBRANCH   8   9
BRANCH   1  18
ATOM     18  C   UNL     1      -3.649  -0.157  24.941  0.00  0.00    +0.077 C 
ATOM     19  C   UNL     1      -4.321   0.054  25.369  0.00  0.00    +0.009 C 
BRANCH  18  20
ATOM     20  C   UNL     1      -3.662  -0.821  24.452  0.00  0.00    +0.241 C 
ATOM     21  O   UNL     1      -3.496  -0.745  23.647  0.00  0.00    -0.273 OA
ATOM     22  N   UNL     1      -3.842  -1.562  24.768  0.00  0.00    -0.207 NA
BRANCH  22  23
ATOM     23  C   UNL     1      -3.855  -2.227  24.279  0.00  0.00    +0.095 C 
ATOM     24  C   UNL     1      -4.430  -2.294  23.691  0.00  0.00    +0.023 C 
ATOM     25  C   UNL     1      -3.295  -2.824  24.378  0.00  0.00    +0.023 C 
ENDBRANCH  22  23
ENDBRANCH  18  20
ENDBRANCH   1  18
TORSDOF 4
ENDMDL
