MODEL 1
REMARK VINA RESULT:     -12.9      0.000      0.000
REMARK  Name = 
REMARK  6 active torsions:
REMARK  status: ('A' for Active; 'I' for Inactive)
REMARK    1  A    between atoms: C_2  and  C_26
REMARK    2  A    between atoms: C_9  and  N_10
REMARK    3  A    between atoms: C_11  and  C_13
REMARK    4  A    between atoms: C_26  and  C_28
REMARK    5  A    between atoms: N_30  and  C_31
REMARK    6  A    between atoms: N_30  and  C_33
REMARK                            x       y       z     vdW  Elec       q    Type
REMARK                         _______ _______ _______ _____ _____    ______ ____
ROOT
ATOM      1  C   UNL     1      -4.193   0.067  24.557  0.00  0.00    +0.052 C 
ATOM      2  C   UNL     1      -4.914   0.238  24.917  0.00  0.00    -0.001 C 
ATOM      3  C   UNL     1      -5.083   1.009  25.156  0.00  0.00    -0.000 C 
ATOM      4  C   UNL     1      -4.530   1.610  25.034  0.00  0.00    -0.001 C 
ATOM      5  C   UNL     1      -5.253   1.781  25.395  0.00  0.00    -0.000 C 
ATOM      6  C   UNL     1      -4.700   2.381  25.274  0.00  0.00    +0.002 C 
ATOM      7  C   UNL     1      -4.147   2.981  25.152  0.00  0.00    +0.022 C 
ATOM      8  C   UNL     1      -3.425   2.810  24.791  0.00  0.00    +0.095 C 
ATOM     19  C   UNL     1      -3.256   2.039  24.552  0.00  0.00    +0.019 C 
ATOM     20  C   UNL     1      -2.534   1.869  24.192  0.00  0.00    +0.002 C 
ATOM     21  C   UNL     1      -3.809   1.439  24.674  0.00  0.00    +0.045 C 
ATOM     22  C   UNL     1      -3.639   0.668  24.435  0.00  0.00    +0.145 C 
ATOM     23  O   UNL     1      -2.917   0.497  24.074  0.00  0.00    -0.224 OA
ENDROOT
BRANCH   8   9
ATOM      9  N   UNL     1      -2.873   3.410  24.669  0.00  0.00    -0.203 NA
ATOM     10  C   UNL     1      -2.619   3.872  25.305  0.00  0.00    +0.265 C 
ATOM     11  O   UNL     1      -2.918   3.734  26.061  0.00  0.00    -0.268 OA
BRANCH  10  12
ATOM     12  C   UNL     1      -2.066   4.473  25.183  0.00  0.00    +0.057 A 
ATOM     13  C   UNL     1      -2.312   5.260  25.157  0.00  0.00    +0.005 A 
ATOM     14  C   UNL     1      -1.759   5.860  25.035  0.00  0.00    +0.002 A 
ATOM     15  C   UNL     1      -0.961   5.673  24.940  0.00  0.00    +0.030 A 
ATOM     16  C   UNL     1      -0.715   4.885  24.966  0.00  0.00    +0.140 A 
ATOM     17  F   UNL     1       0.082   4.699  24.871  0.00  0.00    -0.204 F 
ATOM     18  C   UNL     1      -1.268   4.285  25.088  0.00  0.00    +0.034 A 
ENDBRANCH  10  12
ENDBRANCH   8   9
BRANCH   1  24
ATOM     24  C   UNL     1      -4.023  -0.704  24.317  0.00  0.00    +0.075 C 
ATOM     25  C   UNL     1      -4.075  -0.910  23.521  0.00  0.00    +0.009 C 
BRANCH  24  26
ATOM     26  C   UNL     1      -3.800  -1.269  24.876  0.00  0.00    +0.225 C 
ATOM     27  O   UNL     1      -3.592  -1.035  25.640  0.00  0.00    -0.275 OA
ATOM     28  N   UNL     1      -3.786  -2.068  24.672  0.00  0.00    -0.280 N 
BRANCH  28  29
ATOM     29  C   UNL     1      -3.564  -2.632  25.230  0.00  0.00    +0.093 C 
ATOM     30  C   UNL     1      -2.812  -2.973  25.196  0.00  0.00    +0.023 C 
ENDBRANCH  28  29
BRANCH  28  31
ATOM     31  C   UNL     1      -3.994  -2.302  23.908  0.00  0.00    +0.093 C 
ATOM     32  C   UNL     1      -4.242  -3.076  23.768  0.00  0.00    +0.023 C 
ENDBRANCH  28  31
ENDBRANCH  24  26
ENDBRANCH   1  24
TORSDOF 6
ENDMDL
MODEL 2
REMARK VINA RESULT:     -11.8      1.761      5.612
REMARK  Name = 
REMARK  6 active torsions:
REMARK  status: ('A' for Active; 'I' for Inactive)
REMARK    1  A    between atoms: C_2  and  C_26
REMARK    2  A    between atoms: C_9  and  N_10
REMARK    3  A    between atoms: C_11  and  C_13
REMARK    4  A    between atoms: C_26  and  C_28
REMARK    5  A    between atoms: N_30  and  C_31
REMARK    6  A    between atoms: N_30  and  C_33
REMARK                            x       y       z     vdW  Elec       q    Type
REMARK                         _______ _______ _______ _____ _____    ______ ____
ROOT
ATOM      1  C   UNL     1      -2.952   3.234  25.406  0.00  0.00    +0.052 C 
ATOM      2  C   UNL     1      -3.722   3.526  25.439  0.00  0.00    -0.001 C 
ATOM      3  C   UNL     1      -4.358   3.038  25.246  0.00  0.00    -0.000 C 
ATOM      4  C   UNL     1      -4.222   2.255  25.019  0.00  0.00    -0.001 C 
ATOM      5  C   UNL     1      -4.994   2.548  25.052  0.00  0.00    -0.000 C 
ATOM      6  C   UNL     1      -4.859   1.766  24.825  0.00  0.00    +0.002 C 
ATOM      7  C   UNL     1      -4.724   0.985  24.598  0.00  0.00    +0.022 C 
ATOM      8  C   UNL     1      -3.952   0.692  24.564  0.00  0.00    +0.095 C 
ATOM     19  C   UNL     1      -3.317   1.181  24.758  0.00  0.00    +0.019 C 
ATOM     20  C   UNL     1      -2.547   0.888  24.724  0.00  0.00    +0.002 C 
ATOM     21  C   UNL     1      -3.452   1.963  24.985  0.00  0.00    +0.045 C 
ATOM     22  C   UNL     1      -2.817   2.451  25.179  0.00  0.00    +0.145 C 
ATOM     23  O   UNL     1      -2.046   2.159  25.145  0.00  0.00    -0.224 OA
ENDROOT
BRANCH   8   9
ATOM      9  N   UNL     1      -3.817  -0.089  24.338  0.00  0.00    -0.203 NA
ATOM     10  C   UNL     1      -4.130  -0.708  24.785  0.00  0.00    +0.265 C 
ATOM     11  O   UNL     1      -4.577  -0.546  25.459  0.00  0.00    -0.268 OA
BRANCH  10  12
ATOM     12  C   UNL     1      -3.995  -1.490  24.558  0.00  0.00    +0.057 A 
ATOM     13  C   UNL     1      -4.302  -1.771  23.845  0.00  0.00    +0.005 A 
ATOM     14  C   UNL     1      -4.167  -2.552  23.618  0.00  0.00    +0.002 A 
ATOM     15  C   UNL     1      -3.725  -3.053  24.103  0.00  0.00    +0.030 A 
ATOM     16  C   UNL     1      -3.418  -2.771  24.816  0.00  0.00    +0.140 A 
ATOM     17  F   UNL     1      -2.976  -3.272  25.301  0.00  0.00    -0.204 F 
ATOM     18  C   UNL     1      -3.553  -1.990  25.043  0.00  0.00    +0.034 A 
ENDBRANCH  10  12
ENDBRANCH   8   9
BRANCH   1  24
ATOM     24  C   UNL     1      -2.316   3.723  25.599  0.00  0.00    +0.075 C 
ATOM     25  C   UNL     1      -1.794   3.503  26.198  0.00  0.00    +0.009 C 
BRANCH  24  26
ATOM     26  C   UNL     1      -2.203   4.432  25.193  0.00  0.00    +0.225 C 
ATOM     27  O   UNL     1      -2.849   4.915  25.017  0.00  0.00    -0.275 OA
ATOM     28  N   UNL     1      -1.444   4.659  24.962  0.00  0.00    -0.280 N 
BRANCH  28  29
ATOM     29  C   UNL     1      -1.331   5.367  24.556  0.00  0.00    +0.093 C 
ATOM     30  C   UNL     1      -0.834   5.947  24.869  0.00  0.00    +0.023 C 
ENDBRANCH  28  29
BRANCH  28  31
ATOM     31  C   UNL     1      -0.798   4.176  25.138  0.00  0.00    +0.093 C 
ATOM     32  C   UNL     1      -0.124   4.200  24.663  0.00  0.00    +0.023 C 
ENDBRANCH  28  31
ENDBRANCH  24  26
ENDBRANCH   1  24
TORSDOF 6
ENDMDL
MODEL 3
REMARK VINA RESULT:     -11.1      1.462      2.333
REMARK  Name = 
REMARK  6 active torsions:
REMARK  status: ('A' for Active; 'I' for Inactive)
REMARK    1  A    between atoms: C_2  and  C_26
REMARK    2  A    between atoms: C_9  and  N_10
REMARK    3  A    between atoms: C_11  and  C_13
REMARK    4  A    between atoms: C_26  and  C_28
REMARK    5  A    between atoms: N_30  and  C_31
REMARK    6  A    between atoms: N_30  and  C_33
REMARK                            x       y       z     vdW  Elec       q    Type
REMARK                         _______ _______ _______ _____ _____    ______ ____
ROOT
ATOM      1  C   UNL     1      -2.545  -0.601  24.870  0.00  0.00    +0.052 C 
ATOM      2  C   UNL     1      -1.800  -0.949  24.812  0.00  0.00    -0.001 C 
ATOM      3  C   UNL     1      -1.131  -0.477  24.720  0.00  0.00    -0.000 C 
ATOM      4  C   UNL     1      -1.207   0.345  24.686  0.00  0.00    -0.001 C 
ATOM      5  C   UNL     1      -0.460  -0.003  24.627  0.00  0.00    -0.000 C 
ATOM      6  C   UNL     1      -0.536   0.817  24.594  0.00  0.00    +0.002 C 
ATOM      7  C   UNL     1      -0.612   1.638  24.560  0.00  0.00    +0.022 C 
ATOM      8  C   UNL     1      -1.358   1.987  24.618  0.00  0.00    +0.095 C 
ATOM     19  C   UNL     1      -2.027   1.514  24.710  0.00  0.00    +0.019 C 
ATOM     20  C   UNL     1      -2.772   1.863  24.769  0.00  0.00    +0.002 C 
ATOM     21  C   UNL     1      -1.952   0.693  24.744  0.00  0.00    +0.045 C 
ATOM     22  C   UNL     1      -2.621   0.221  24.836  0.00  0.00    +0.145 C 
ATOM     23  O   UNL     1      -3.367   0.569  24.895  0.00  0.00    -0.224 OA
ENDROOT
BRANCH   8   9
ATOM      9  N   UNL     1      -1.433   2.807  24.585  0.00  0.00    -0.203 NA
ATOM     10  C   UNL     1      -0.940   3.286  25.042  0.00  0.00    +0.265 C 
ATOM     11  O   UNL     1      -0.371   2.944  25.532  0.00  0.00    -0.268 OA
BRANCH  10  12
ATOM     12  C   UNL     1      -1.016   4.107  25.008  0.00  0.00    +0.057 A 
ATOM     13  C   UNL     1      -0.459   4.556  24.596  0.00  0.00    +0.005 A 
ATOM     14  C   UNL     1      -0.534   5.376  24.563  0.00  0.00    +0.002 A 
ATOM     15  C   UNL     1      -1.167   5.749  24.940  0.00  0.00    +0.030 A 
ATOM     16  C   UNL     1      -1.725   5.299  25.352  0.00  0.00    +0.140 A 
ATOM     17  F   UNL     1      -2.357   5.671  25.728  0.00  0.00    -0.204 F 
ATOM     18  C   UNL     1      -1.649   4.478  25.385  0.00  0.00    +0.034 A 
ENDBRANCH  10  12
ENDBRANCH   8   9
BRANCH   1  24
ATOM     24  C   UNL     1      -3.216  -1.073  24.962  0.00  0.00    +0.075 C 
ATOM     25  C   UNL     1      -3.565  -1.154  25.705  0.00  0.00    +0.009 C 
BRANCH  24  26
ATOM     26  C   UNL     1      -3.537  -1.464  24.311  0.00  0.00    +0.225 C 
ATOM     27  O   UNL     1      -3.722  -1.042  23.626  0.00  0.00    -0.275 OA
ATOM     28  N   UNL     1      -3.673  -2.277  24.343  0.00  0.00    -0.280 N 
BRANCH  28  29
ATOM     29  C   UNL     1      -3.994  -2.668  23.693  0.00  0.00    +0.093 C 
ATOM     30  C   UNL     1      -4.811  -2.766  23.631  0.00  0.00    +0.023 C 
ENDBRANCH  28  29
BRANCH  28  31
ATOM     31  C   UNL     1      -3.488  -2.699  25.029  0.00  0.00    +0.093 C 
ATOM     32  C   UNL     1      -3.363  -3.513  24.989  0.00  0.00    +0.023 C 
ENDBRANCH  28  31
ENDBRANCH  24  26
ENDBRANCH   1  24
TORSDOF 6
ENDMDL
MODEL 4
REMARK VINA RESULT:     -10.5      3.027      4.670
REMARK  Name = 
REMARK  6 active torsions:
REMARK  status: ('A' for Active; 'I' for Inactive)
REMARK    1  A    between atoms: C_2  and  C_26
REMARK    2  A    between atoms: C_9  and  N_10
REMARK    3  A    between atoms: C_11  and  C_13
REMARK    4  A    between atoms: C_26  and  C_28
REMARK    5  A    between atoms: N_30  and  C_31
REMARK    6  A    between atoms: N_30  and  C_33
REMARK                            x       y       z     vdW  Elec       q    Type
REMARK                         _______ _______ _______ _____ _____    ______ ____
ROOT
ATOM      1  C   UNL     1      -3.132   1.458  24.542  0.00  0.00    +0.052 C 
ATOM      2  C   UNL     1      -3.215   0.852  25.094  0.00  0.00    -0.001 C 
ATOM      3  C   UNL     1      -2.592   0.328  25.228  0.00  0.00    -0.000 C 
ATOM      4  C   UNL     1      -1.885   0.411  24.809  0.00  0.00    -0.001 C 
ATOM      5  C   UNL     1      -1.969  -0.197  25.362  0.00  0.00    -0.000 C 
ATOM      6  C   UNL     1      -1.263  -0.114  24.943  0.00  0.00    +0.002 C 
ATOM      7  C   UNL     1      -0.557  -0.031  24.525  0.00  0.00    +0.022 C 
ATOM      8  C   UNL     1      -0.473   0.576  23.972  0.00  0.00    +0.095 C 
ATOM     19  C   UNL     1      -1.097   1.100  23.838  0.00  0.00    +0.019 C 
ATOM     20  C   UNL     1      -1.013   1.707  23.286  0.00  0.00    +0.002 C 
ATOM     21  C   UNL     1      -1.803   1.017  24.257  0.00  0.00    +0.045 C 
ATOM     22  C   UNL     1      -2.425   1.541  24.123  0.00  0.00    +0.145 C 
ATOM     23  O   UNL     1      -2.342   2.148  23.570  0.00  0.00    -0.224 OA
ENDROOT
BRANCH   8   9
ATOM      9  N   UNL     1       0.232   0.659  23.554  0.00  0.00    -0.203 NA
ATOM     10  C   UNL     1       0.689  -0.006  23.379  0.00  0.00    +0.265 C 
ATOM     11  O   UNL     1       0.439  -0.754  23.623  0.00  0.00    -0.268 OA
BRANCH  10  12
ATOM     12  C   UNL     1       1.395   0.077  22.960  0.00  0.00    +0.057 A 
ATOM     13  C   UNL     1       1.482  -0.285  22.224  0.00  0.00    +0.005 A 
ATOM     14  C   UNL     1       2.188  -0.203  21.805  0.00  0.00    +0.002 A 
ATOM     15  C   UNL     1       2.807   0.242  22.123  0.00  0.00    +0.030 A 
ATOM     16  C   UNL     1       2.719   0.604  22.860  0.00  0.00    +0.140 A 
ATOM     17  F   UNL     1       3.337   1.049  23.177  0.00  0.00    -0.204 F 
ATOM     18  C   UNL     1       2.013   0.522  23.278  0.00  0.00    +0.034 A 
ENDBRANCH  10  12
ENDBRANCH   8   9
BRANCH   1  24
ATOM     24  C   UNL     1      -3.754   1.983  24.408  0.00  0.00    +0.075 C 
ATOM     25  C   UNL     1      -4.119   2.010  23.669  0.00  0.00    +0.009 C 
BRANCH  24  26
ATOM     26  C   UNL     1      -4.012   2.480  25.013  0.00  0.00    +0.225 C 
ATOM     27  O   UNL     1      -3.463   2.908  25.458  0.00  0.00    -0.275 OA
ATOM     28  N   UNL     1      -4.818   2.551  25.175  0.00  0.00    -0.280 N 
BRANCH  28  29
ATOM     29  C   UNL     1      -5.075   3.048  25.780  0.00  0.00    +0.093 C 
ATOM     30  C   UNL     1      -5.464   3.753  25.598  0.00  0.00    +0.023 C 
ENDBRANCH  28  29
BRANCH  28  31
ATOM     31  C   UNL     1      -5.367   2.123  24.730  0.00  0.00    +0.093 C 
ATOM     32  C   UNL     1      -6.109   1.952  25.047  0.00  0.00    +0.023 C 
ENDBRANCH  28  31
ENDBRANCH  24  26
ENDBRANCH   1  24
TORSDOF 6
ENDMDL
MODEL 5
REMARK VINA RESULT:     -10.4      2.217      6.026
REMARK  Name = 
REMARK  6 active torsions:
REMARK  status: ('A' for Active; 'I' for Inactive)
REMARK    1  A    between atoms: C_2  and  C_26
REMARK    2  A    between atoms: C_9  and  N_10
REMARK    3  A    between atoms: C_11  and  C_13
REMARK    4  A    between atoms: C_26  and  C_28
REMARK    5  A    between atoms: N_30  and  C_31
REMARK    6  A    between atoms: N_30  and  C_33
REMARK                            x       y       z     vdW  Elec       q    Type
REMARK                         _______ _______ _______ _____ _____    ______ ____
ROOT
ATOM      1  C   UNL     1      -1.152   2.594  24.953  0.00  0.00    +0.052 C 
ATOM      2  C   UNL     1      -0.649   2.437  25.587  0.00  0.00    -0.001 C 
ATOM      3  C   UNL     1      -0.583   1.670  25.882  0.00  0.00    -0.000 C 
ATOM      4  C   UNL     1      -1.022   1.059  25.543  0.00  0.00    -0.001 C 
ATOM      5  C   UNL     1      -0.518   0.902  26.177  0.00  0.00    -0.000 C 
ATOM      6  C   UNL     1      -0.957   0.291  25.838  0.00  0.00    +0.002 C 
ATOM      7  C   UNL     1      -1.395  -0.320  25.499  0.00  0.00    +0.022 C 
ATOM      8  C   UNL     1      -1.900  -0.163  24.865  0.00  0.00    +0.095 C 
ATOM     19  C   UNL     1      -1.964   0.604  24.570  0.00  0.00    +0.019 C 
ATOM     20  C   UNL     1      -2.468   0.760  23.936  0.00  0.00    +0.002 C 
ATOM     21  C   UNL     1      -1.526   1.215  24.909  0.00  0.00    +0.045 C 
ATOM     22  C   UNL     1      -1.591   1.982  24.614  0.00  0.00    +0.145 C 
ATOM     23  O   UNL     1      -2.095   2.140  23.980  0.00  0.00    -0.224 OA
ENDROOT
BRANCH   8   9
ATOM      9  N   UNL     1      -2.338  -0.773  24.526  0.00  0.00    -0.203 NA
ATOM     10  C   UNL     1      -2.798  -1.266  25.003  0.00  0.00    +0.265 C 
ATOM     11  O   UNL     1      -2.818  -1.147  25.820  0.00  0.00    -0.268 OA
BRANCH  10  12
ATOM     12  C   UNL     1      -3.236  -1.877  24.664  0.00  0.00    +0.057 A 
ATOM     13  C   UNL     1      -2.978  -2.658  24.734  0.00  0.00    +0.005 A 
ATOM     14  C   UNL     1      -3.416  -3.269  24.395  0.00  0.00    +0.002 A 
ATOM     15  C   UNL     1      -4.113  -3.099  23.986  0.00  0.00    +0.030 A 
ATOM     16  C   UNL     1      -4.371  -2.318  23.917  0.00  0.00    +0.140 A 
ATOM     17  F   UNL     1      -5.068  -2.149  23.508  0.00  0.00    -0.204 F 
ATOM     18  C   UNL     1      -3.933  -1.707  24.256  0.00  0.00    +0.034 A 
ENDBRANCH  10  12
ENDBRANCH   8   9
BRANCH   1  24
ATOM     24  C   UNL     1      -1.218   3.362  24.658  0.00  0.00    +0.075 C 
ATOM     25  C   UNL     1      -0.861   3.560  23.942  0.00  0.00    +0.009 C 
BRANCH  24  26
ATOM     26  C   UNL     1      -1.641   3.931  25.079  0.00  0.00    +0.225 C 
ATOM     27  O   UNL     1      -2.306   3.711  25.516  0.00  0.00    -0.275 OA
ATOM     28  N   UNL     1      -1.400   4.719  25.064  0.00  0.00    -0.280 N 
BRANCH  28  29
ATOM     29  C   UNL     1      -1.823   5.288  25.485  0.00  0.00    +0.093 C 
ATOM     30  C   UNL     1      -2.224   5.886  25.083  0.00  0.00    +0.023 C 
ENDBRANCH  28  29
BRANCH  28  31
ATOM     31  C   UNL     1      -0.735   4.939  24.627  0.00  0.00    +0.093 C 
ATOM     32  C   UNL     1      -0.430   5.702  24.698  0.00  0.00    +0.023 C 
ENDBRANCH  28  31
ENDBRANCH  24  26
ENDBRANCH   1  24
TORSDOF 6
ENDMDL
