MODEL 1
REMARK VINA RESULT:      -9.3      0.000      0.000
REMARK  Name = 
REMARK  8 active torsions:
REMARK  status: ('A' for Active; 'I' for Inactive)
REMARK    1  A    between atoms: O_2  and  C_3
REMARK    2  A    between atoms: C_6  and  C_7
REMARK    3  A    between atoms: C_8  and  C_9
REMARK    4  A    between atoms: C_17  and  N_25
REMARK    5  A    between atoms: C_26  and  C_28
REMARK    6  A    between atoms: C_28  and  O_29
REMARK    7  A    between atoms: O_29  and  C_30
REMARK    8  A    between atoms: C_30  and  C_31
REMARK                            x       y       z     vdW  Elec       q    Type
REMARK                         _______ _______ _______ _____ _____    ______ ____
ROOT
ATOM      9  C   UNL     1      -2.026   1.940  24.950  0.00  0.00    +0.000 A 
ATOM     10  C   UNL     1      -1.584   2.615  25.119  0.00  0.00    +0.001 A 
ATOM     11  C   UNL     1      -0.791   2.655  24.896  0.00  0.00    +0.017 A 
ATOM     12  C   UNL     1      -0.440   2.019  24.502  0.00  0.00    +0.078 A 
ATOM     13  N   UNL     1       0.351   2.171  24.329  0.00  0.00    -0.178 NA
ATOM     14  C   UNL     1       0.896   1.686  23.945  0.00  0.00    +0.265 C 
ATOM     15  O   UNL     1       1.654   1.999  23.855  0.00  0.00    -0.271 OA
ATOM     16  C   UNL     1       0.784   0.928  23.638  0.00  0.00    +0.174 C 
ATOM     17  C   UNL     1       1.378   0.496  23.263  0.00  0.00    +0.124 C 
ATOM     18  C   UNL     1       1.060  -0.229  23.033  0.00  0.00    +0.045 C 
ATOM     19  C   UNL     1       0.269  -0.246  23.267  0.00  0.00    +0.096 C 
ATOM     20  N   UNL     1       0.098   0.469  23.641  0.00  0.00    -0.268 N 
ATOM     21  C   UNL     1      -0.644   0.654  23.950  0.00  0.00    +0.251 C 
ATOM     22  O   UNL     1      -1.223   0.072  23.865  0.00  0.00    -0.270 OA
ATOM     23  C   UNL     1      -0.884   1.345  24.334  0.00  0.00    +0.069 A 
ATOM     24  C   UNL     1      -1.677   1.304  24.558  0.00  0.00    +0.006 A 
ENDROOT
BRANCH  17  25
ATOM     25  N   UNL     1       2.155   0.747  23.139  0.00  0.00    -0.203 NA
ATOM     26  C   UNL     1       2.684   0.261  22.734  0.00  0.00    +0.272 C 
ATOM     27  O   UNL     1       2.438  -0.475  22.454  0.00  0.00    -0.271 OA
BRANCH  26  28
ATOM     28  C   UNL     1       3.461   0.512  22.610  0.00  0.00    +0.229 C 
BRANCH  28  29
ATOM     29  O   UNL     1       4.081   0.148  23.015  0.00  0.00    -0.333 OA
BRANCH  29  30
ATOM     30  C   UNL     1       4.815   0.522  23.068  0.00  0.00    +0.257 C 
BRANCH  30  31
ATOM     31  C   UNL     1       5.430   0.166  23.486  0.00  0.00    +0.394 C 
ATOM     32  O   UNL     1       5.440   0.199  24.310  0.00  0.00    -0.243 OA
ATOM     33  O   UNL     1       6.034  -0.224  23.081  0.00  0.00    -0.243 OA
ENDBRANCH  30  31
ENDBRANCH  29  30
ENDBRANCH  28  29
ENDBRANCH  26  28
ENDBRANCH  17  25
BRANCH   9   8
ATOM      7  C   UNL     1      -3.391   2.314  24.746  0.00  0.00    +0.000 C 
ATOM      8  C   UNL     1      -2.820   1.901  25.175  0.00  0.00    +0.000 C 
BRANCH   7   6
ATOM      3  C   UNL     1      -5.770   2.195  25.422  0.00  0.00    +0.139 A 
ATOM      4  C   UNL     1      -5.327   2.873  25.584  0.00  0.00    +0.037 A 
ATOM      5  C   UNL     1      -4.535   2.913  25.359  0.00  0.00    +0.003 A 
ATOM      6  C   UNL     1      -4.184   2.274  24.971  0.00  0.00    +0.000 A 
ATOM     34  C   UNL     1      -4.625   1.597  24.809  0.00  0.00    +0.003 A 
ATOM     35  C   UNL     1      -5.418   1.557  25.034  0.00  0.00    +0.037 A 
BRANCH   3   2
ATOM      1  C   UNL     1      -6.762   1.905  26.407  0.00  0.00    +0.252 C 
ATOM      2  O   UNL     1      -6.562   2.157  25.647  0.00  0.00    -0.471 OA
ENDBRANCH   3   2
ENDBRANCH   7   6
ENDBRANCH   9   8
TORSDOF 8
ENDMDL
MODEL 2
REMARK VINA RESULT:      -8.0      1.355      7.541
REMARK  Name = 
REMARK  8 active torsions:
REMARK  status: ('A' for Active; 'I' for Inactive)
REMARK    1  A    between atoms: O_2  and  C_3
REMARK    2  A    between atoms: C_6  and  C_7
REMARK    3  A    between atoms: C_8  and  C_9
REMARK    4  A    between atoms: C_17  and  N_25
REMARK    5  A    between atoms: C_26  and  C_28
REMARK    6  A    between atoms: C_28  and  O_29
REMARK    7  A    between atoms: O_29  and  C_30
REMARK    8  A    between atoms: C_30  and  C_31
REMARK                            x       y       z     vdW  Elec       q    Type
REMARK                         _______ _______ _______ _____ _____    ______ ____
ROOT
ATOM      9  C   UNL     1       0.828   1.033  23.795  0.00  0.00    +0.000 A 
ATOM     10  C   UNL     1       0.282   0.552  23.405  0.00  0.00    +0.001 A 
ATOM     11  C   UNL     1      -0.523   0.721  23.454  0.00  0.00    +0.017 A 
ATOM     12  C   UNL     1      -0.784   1.370  23.892  0.00  0.00    +0.078 A 
ATOM     13  N   UNL     1      -1.605   1.440  23.869  0.00  0.00    -0.178 NA
ATOM     14  C   UNL     1      -2.084   2.006  24.229  0.00  0.00    +0.265 C 
ATOM     15  O   UNL     1      -2.895   1.925  24.100  0.00  0.00    -0.271 OA
ATOM     16  C   UNL     1      -1.860   2.644  24.702  0.00  0.00    +0.174 C 
ATOM     17  C   UNL     1      -2.396   3.176  25.033  0.00  0.00    +0.124 C 
ATOM     18  C   UNL     1      -1.969   3.733  25.466  0.00  0.00    +0.045 C 
ATOM     19  C   UNL     1      -1.168   3.545  25.404  0.00  0.00    +0.096 C 
ATOM     20  N   UNL     1      -1.100   2.871  24.931  0.00  0.00    -0.268 N 
ATOM     21  C   UNL     1      -0.378   2.518  24.744  0.00  0.00    +0.251 C 
ATOM     22  O   UNL     1       0.291   2.882  25.061  0.00  0.00    -0.270 OA
ATOM     23  C   UNL     1      -0.238   1.850  24.281  0.00  0.00    +0.069 A 
ATOM     24  C   UNL     1       0.568   1.682  24.233  0.00  0.00    +0.006 A 
ENDROOT
BRANCH  17  25
ATOM     25  N   UNL     1      -3.216   3.155  24.945  0.00  0.00    -0.203 NA
ATOM     26  C   UNL     1      -3.695   3.611  25.439  0.00  0.00    +0.272 C 
ATOM     27  O   UNL     1      -3.354   4.087  26.020  0.00  0.00    -0.271 OA
BRANCH  26  28
ATOM     28  C   UNL     1      -4.516   3.589  25.351  0.00  0.00    +0.229 C 
BRANCH  28  29
ATOM     29  O   UNL     1      -4.967   3.087  25.825  0.00  0.00    -0.333 OA
BRANCH  29  30
ATOM     30  C   UNL     1      -5.775   2.997  25.677  0.00  0.00    +0.257 C 
BRANCH  30  31
ATOM     31  C   UNL     1      -6.158   2.300  25.894  0.00  0.00    +0.394 C 
ATOM     32  O   UNL     1      -6.404   1.768  25.313  0.00  0.00    -0.243 OA
ATOM     33  O   UNL     1      -6.295   2.134  26.690  0.00  0.00    -0.243 OA
ENDBRANCH  30  31
ENDBRANCH  29  30
ENDBRANCH  28  29
ENDBRANCH  26  28
ENDBRANCH  17  25
BRANCH   9   8
ATOM      7  C   UNL     1       1.990   0.754  23.010  0.00  0.00    +0.000 C 
ATOM      8  C   UNL     1       1.635   0.864  23.746  0.00  0.00    +0.000 C 
BRANCH   7   6
ATOM      3  C   UNL     1       4.408   0.246  22.866  0.00  0.00    +0.139 A 
ATOM      4  C   UNL     1       3.865  -0.362  22.992  0.00  0.00    +0.037 A 
ATOM      5  C   UNL     1       3.059  -0.194  23.041  0.00  0.00    +0.003 A 
ATOM      6  C   UNL     1       2.796   0.585  22.962  0.00  0.00    +0.000 A 
ATOM     34  C   UNL     1       3.338   1.193  22.835  0.00  0.00    +0.003 A 
ATOM     35  C   UNL     1       4.144   1.024  22.787  0.00  0.00    +0.037 A 
BRANCH   3   2
ATOM      1  C   UNL     1       5.661   0.006  23.507  0.00  0.00    +0.252 C 
ATOM      2  O   UNL     1       5.214   0.076  22.818  0.00  0.00    -0.471 OA
ENDBRANCH   3   2
ENDBRANCH   7   6
ENDBRANCH   9   8
TORSDOF 8
ENDMDL
MODEL 3
REMARK VINA RESULT:      -7.3      1.450      7.381
REMARK  Name = 
REMARK  8 active torsions:
REMARK  status: ('A' for Active; 'I' for Inactive)
REMARK    1  A    between atoms: O_2  and  C_3
REMARK    2  A    between atoms: C_6  and  C_7
REMARK    3  A    between atoms: C_8  and  C_9
REMARK    4  A    between atoms: C_17  and  N_25
REMARK    5  A    between atoms: C_26  and  C_28
REMARK    6  A    between atoms: C_28  and  O_29
REMARK    7  A    between atoms: O_29  and  C_30
REMARK    8  A    between atoms: C_30  and  C_31
REMARK                            x       y       z     vdW  Elec       q    Type
REMARK                         _______ _______ _______ _____ _____    ______ ____
ROOT
ATOM      9  C   UNL     1       0.913   1.102  23.843  0.00  0.00    +0.000 A 
ATOM     10  C   UNL     1       0.698   1.889  23.719  0.00  0.00    +0.001 A 
ATOM     11  C   UNL     1      -0.093   2.114  23.777  0.00  0.00    +0.017 A 
ATOM     12  C   UNL     1      -0.671   1.552  23.959  0.00  0.00    +0.078 A 
ATOM     13  N   UNL     1      -1.422   1.891  23.990  0.00  0.00    -0.178 NA
ATOM     14  C   UNL     1      -2.143   1.527  24.152  0.00  0.00    +0.265 C 
ATOM     15  O   UNL     1      -2.804   2.020  24.141  0.00  0.00    -0.271 OA
ATOM     16  C   UNL     1      -2.293   0.733  24.323  0.00  0.00    +0.174 C 
ATOM     17  C   UNL     1      -3.046   0.435  24.477  0.00  0.00    +0.124 C 
ATOM     18  C   UNL     1      -2.976  -0.374  24.623  0.00  0.00    +0.045 C 
ATOM     19  C   UNL     1      -2.178  -0.576  24.560  0.00  0.00    +0.096 C 
ATOM     20  N   UNL     1      -1.755   0.109  24.374  0.00  0.00    -0.268 N 
ATOM     21  C   UNL     1      -0.938   0.123  24.267  0.00  0.00    +0.251 C 
ATOM     22  O   UNL     1      -0.552  -0.601  24.357  0.00  0.00    -0.270 OA
ATOM     23  C   UNL     1      -0.455   0.766  24.082  0.00  0.00    +0.069 A 
ATOM     24  C   UNL     1       0.336   0.540  24.024  0.00  0.00    +0.006 A 
ENDROOT
BRANCH  17  25
ATOM     25  N   UNL     1      -3.748   0.870  24.483  0.00  0.00    -0.203 NA
ATOM     26  C   UNL     1      -4.410   0.577  24.877  0.00  0.00    +0.272 C 
ATOM     27  O   UNL     1      -4.372  -0.150  25.266  0.00  0.00    -0.271 OA
BRANCH  26  28
ATOM     28  C   UNL     1      -5.112   1.012  24.884  0.00  0.00    +0.229 C 
BRANCH  28  29
ATOM     29  O   UNL     1      -5.304   1.475  25.538  0.00  0.00    -0.333 OA
BRANCH  29  30
ATOM     30  C   UNL     1      -5.885   2.058  25.475  0.00  0.00    +0.257 C 
BRANCH  30  31
ATOM     31  C   UNL     1      -5.939   2.650  26.047  0.00  0.00    +0.394 C 
ATOM     32  O   UNL     1      -6.209   2.466  26.805  0.00  0.00    -0.243 OA
ATOM     33  O   UNL     1      -5.724   3.424  25.862  0.00  0.00    -0.243 OA
ENDBRANCH  30  31
ENDBRANCH  29  30
ENDBRANCH  28  29
ENDBRANCH  26  28
ENDBRANCH  17  25
BRANCH   9   8
ATOM      7  C   UNL     1       2.090   0.907  23.057  0.00  0.00    +0.000 C 
ATOM      8  C   UNL     1       1.705   0.877  23.785  0.00  0.00    +0.000 C 
BRANCH   7   6
ATOM      3  C   UNL     1       4.466   0.233  22.886  0.00  0.00    +0.139 A 
ATOM      4  C   UNL     1       3.886  -0.334  23.038  0.00  0.00    +0.037 A 
ATOM      5  C   UNL     1       3.094  -0.109  23.095  0.00  0.00    +0.003 A 
ATOM      6  C   UNL     1       2.883   0.683  23.000  0.00  0.00    +0.000 A 
ATOM     34  C   UNL     1       3.462   1.249  22.847  0.00  0.00    +0.003 A 
ATOM     35  C   UNL     1       4.253   1.024  22.790  0.00  0.00    +0.037 A 
BRANCH   3   2
ATOM      1  C   UNL     1       5.717  -0.056  23.511  0.00  0.00    +0.252 C 
ATOM      2  O   UNL     1       5.257   0.008  22.829  0.00  0.00    -0.471 OA
ENDBRANCH   3   2
ENDBRANCH   7   6
ENDBRANCH   9   8
TORSDOF 8
ENDMDL
