MODEL 1
REMARK VINA RESULT:     -12.0      0.000      0.000
REMARK  Name = 
REMARK  7 active torsions:
REMARK  status: ('A' for Active; 'I' for Inactive)
REMARK    1  A    between atoms: N_2  and  C_3
REMARK    2  A    between atoms: N_2  and  C_24
REMARK    3  A    between atoms: C_3  and  C_4
REMARK    4  A    between atoms: C_4  and  C_5
REMARK    5  A    between atoms: C_10  and  C_11
REMARK    6  A    between atoms: C_11  and  C_12
REMARK    7  A    between atoms: C_15  and  C_17
REMARK                            x       y       z     vdW  Elec       q    Type
REMARK                         _______ _______ _______ _____ _____    ______ ____
ROOT
ATOM      5  C   UNL     1      -4.061   1.749  24.708  0.00  0.00    +0.022 C 
ATOM      6  C   UNL     1      -3.502   1.162  24.558  0.00  0.00    +0.094 C 
ATOM      7  N   UNL     1      -3.681   0.373  24.710  0.00  0.00    -0.276 N 
ATOM      8  C   UNL     1      -4.420   0.168  25.014  0.00  0.00    +0.094 C 
ATOM      9  C   UNL     1      -4.981   0.755  25.165  0.00  0.00    +0.022 C 
ATOM     10  C   UNL     1      -4.801   1.545  25.012  0.00  0.00    +0.015 C 
ATOM     15  C   UNL     1      -3.121  -0.214  24.559  0.00  0.00    +0.249 C 
ATOM     16  O   UNL     1      -2.381  -0.010  24.256  0.00  0.00    -0.270 OA
ENDROOT
BRANCH  15  17
ATOM     17  C   UNL     1      -3.300  -1.005  24.712  0.00  0.00    +0.057 A 
ATOM     18  C   UNL     1      -3.652  -1.468  24.127  0.00  0.00    +0.035 A 
ATOM     19  C   UNL     1      -3.831  -2.260  24.280  0.00  0.00    +0.138 A 
ATOM     20 CL   UNL     1      -4.184  -2.723  23.695  0.00  0.00    -0.061 Cl
ATOM     21  N   UNL     1      -3.659  -2.587  25.017  0.00  0.00    -0.232 NA
ATOM     22  C   UNL     1      -3.306  -2.124  25.602  0.00  0.00    +0.100 A 
ATOM     23  C   UNL     1      -3.127  -1.332  25.449  0.00  0.00    +0.025 A 
ENDBRANCH  15  17
BRANCH   5   4
ATOM      4  C   UNL     1      -3.882   2.540  24.556  0.00  0.00    +0.023 C 
BRANCH   4   3
ATOM      3  C   UNL     1      -3.120   2.823  24.691  0.00  0.00    +0.091 C 
BRANCH   3   2
ATOM      1  C   UNL     1      -3.457   4.054  24.047  0.00  0.00    +0.112 C 
ATOM      2  N   UNL     1      -2.922   3.596  24.477  0.00  0.00    -0.306 N 
BRANCH   2  24
ATOM     24  C   UNL     1      -2.190   3.910  24.694  0.00  0.00    +0.048 A 
ATOM     25  C   UNL     1      -2.153   4.634  25.087  0.00  0.00    +0.015 A 
ATOM     26  C   UNL     1      -1.422   4.948  25.304  0.00  0.00    +0.001 A 
ATOM     27  C   UNL     1      -0.728   4.537  25.128  0.00  0.00    +0.000 A 
ATOM     28  C   UNL     1      -0.765   3.813  24.735  0.00  0.00    +0.001 A 
ATOM     29  C   UNL     1      -1.497   3.500  24.518  0.00  0.00    +0.015 A 
ENDBRANCH   2  24
ENDBRANCH   3   2
ENDBRANCH   4   3
ENDBRANCH   5   4
BRANCH  10  11
ATOM     11  C   UNL     1      -5.361   2.132  25.163  0.00  0.00    +0.114 C 
BRANCH  11  12
ATOM     12  C   UNL     1      -6.112   1.924  25.434  0.00  0.00    +0.365 C 
ATOM     13  O   UNL     1      -6.267   1.903  26.243  0.00  0.00    -0.246 OA
ATOM     14  O   UNL     1      -6.708   1.738  24.894  0.00  0.00    -0.246 OA
ENDBRANCH  11  12
ENDBRANCH  10  11
TORSDOF 7
ENDMDL
MODEL 2
REMARK VINA RESULT:     -11.4      1.962      3.336
REMARK  Name = 
REMARK  7 active torsions:
REMARK  status: ('A' for Active; 'I' for Inactive)
REMARK    1  A    between atoms: N_2  and  C_3
REMARK    2  A    between atoms: N_2  and  C_24
REMARK    3  A    between atoms: C_3  and  C_4
REMARK    4  A    between atoms: C_4  and  C_5
REMARK    5  A    between atoms: C_10  and  C_11
REMARK    6  A    between atoms: C_11  and  C_12
REMARK    7  A    between atoms: C_15  and  C_17
REMARK                            x       y       z     vdW  Elec       q    Type
REMARK                         _______ _______ _______ _____ _____    ______ ____
ROOT
ATOM      5  C   UNL     1      -1.180   0.669  24.936  0.00  0.00    +0.022 C 
ATOM      6  C   UNL     1      -1.936   0.444  25.176  0.00  0.00    +0.094 C 
ATOM      7  N   UNL     1      -2.292  -0.223  24.848  0.00  0.00    -0.276 N 
ATOM      8  C   UNL     1      -1.892  -0.666  24.278  0.00  0.00    +0.094 C 
ATOM      9  C   UNL     1      -1.135  -0.441  24.037  0.00  0.00    +0.022 C 
ATOM     10  C   UNL     1      -0.780   0.226  24.366  0.00  0.00    +0.015 C 
ATOM     15  C   UNL     1      -3.049  -0.448  25.088  0.00  0.00    +0.249 C 
ATOM     16  O   UNL     1      -3.449  -0.005  25.658  0.00  0.00    -0.270 OA
ENDROOT
BRANCH  15  17
ATOM     17  C   UNL     1      -3.405  -1.116  24.759  0.00  0.00    +0.057 A 
ATOM     18  C   UNL     1      -3.256  -1.861  25.077  0.00  0.00    +0.035 A 
ATOM     19  C   UNL     1      -3.612  -2.530  24.748  0.00  0.00    +0.138 A 
ATOM     20 CL   UNL     1      -3.462  -3.276  25.066  0.00  0.00    -0.061 Cl
ATOM     21  N   UNL     1      -4.118  -2.451  24.102  0.00  0.00    -0.232 NA
ATOM     22  C   UNL     1      -4.268  -1.704  23.783  0.00  0.00    +0.100 A 
ATOM     23  C   UNL     1      -3.911  -1.036  24.113  0.00  0.00    +0.025 A 
ENDBRANCH  15  17
BRANCH   5   4
ATOM      4  C   UNL     1      -0.824   1.336  25.265  0.00  0.00    +0.023 C 
BRANCH   4   3
ATOM      3  C   UNL     1      -1.253   2.036  25.344  0.00  0.00    +0.091 C 
BRANCH   3   2
ATOM      1  C   UNL     1      -0.307   2.577  26.268  0.00  0.00    +0.112 C 
ATOM      2  N   UNL     1      -0.915   2.687  25.722  0.00  0.00    -0.306 N 
BRANCH   2  24
ATOM     24  C   UNL     1      -1.185   3.448  25.553  0.00  0.00    +0.048 A 
ATOM     25  C   UNL     1      -1.934   3.685  25.808  0.00  0.00    +0.015 A 
ATOM     26  C   UNL     1      -2.205   4.446  25.640  0.00  0.00    +0.001 A 
ATOM     27  C   UNL     1      -1.728   4.970  25.217  0.00  0.00    +0.000 A 
ATOM     28  C   UNL     1      -0.980   4.733  24.962  0.00  0.00    +0.001 A 
ATOM     29  C   UNL     1      -0.709   3.972  25.130  0.00  0.00    +0.015 A 
ENDBRANCH   2  24
ENDBRANCH   3   2
ENDBRANCH   4   3
ENDBRANCH   5   4
BRANCH  10  11
ATOM     11  C   UNL     1      -0.023   0.451  24.126  0.00  0.00    +0.114 C 
BRANCH  11  12
ATOM     12  C   UNL     1       0.385  -0.004  23.572  0.00  0.00    +0.365 C 
ATOM     13  O   UNL     1       0.771  -0.693  23.807  0.00  0.00    -0.246 OA
ATOM     14  O   UNL     1       0.406   0.232  22.781  0.00  0.00    -0.246 OA
ENDBRANCH  11  12
ENDBRANCH  10  11
TORSDOF 7
ENDMDL
MODEL 3
REMARK VINA RESULT:     -10.4      1.871      4.766
REMARK  Name = 
REMARK  7 active torsions:
REMARK  status: ('A' for Active; 'I' for Inactive)
REMARK    1  A    between atoms: N_2  and  C_3
REMARK    2  A    between atoms: N_2  and  C_24
REMARK    3  A    between atoms: C_3  and  C_4
REMARK    4  A    between atoms: C_4  and  C_5
REMARK    5  A    between atoms: C_10  and  C_11
REMARK    6  A    between atoms: C_11  and  C_12
REMARK    7  A    between atoms: C_15  and  C_17
REMARK                            x       y       z     vdW  Elec       q    Type
REMARK                         _______ _______ _______ _____ _____    ______ ____
ROOT
ATOM      5  C   UNL     1      -3.819   1.511  24.815  0.00  0.00    +0.022 C 
ATOM      6  C   UNL     1      -2.999   1.505  24.725  0.00  0.00    +0.094 C 
ATOM      7  N   UNL     1      -2.558   2.174  24.916  0.00  0.00    -0.276 N 
ATOM      8  C   UNL     1      -2.935   2.851  25.198  0.00  0.00    +0.094 C 
ATOM      9  C   UNL     1      -3.756   2.858  25.288  0.00  0.00    +0.022 C 
ATOM     10  C   UNL     1      -4.197   2.189  25.098  0.00  0.00    +0.015 C 
ATOM     15  C   UNL     1      -1.737   2.168  24.825  0.00  0.00    +0.249 C 
ATOM     16  O   UNL     1      -1.359   1.491  24.543  0.00  0.00    -0.270 OA
ENDROOT
BRANCH  15  17
ATOM     17  C   UNL     1      -1.295   2.838  25.016  0.00  0.00    +0.057 A 
ATOM     18  C   UNL     1      -1.148   3.411  24.443  0.00  0.00    +0.035 A 
ATOM     19  C   UNL     1      -0.706   4.082  24.634  0.00  0.00    +0.138 A 
ATOM     20 CL   UNL     1      -0.559   4.656  24.060  0.00  0.00    -0.061 Cl
ATOM     21  N   UNL     1      -0.411   4.178  25.398  0.00  0.00    -0.232 NA
ATOM     22  C   UNL     1      -0.558   3.603  25.972  0.00  0.00    +0.100 A 
ATOM     23  C   UNL     1      -1.001   2.933  25.781  0.00  0.00    +0.025 A 
ENDBRANCH  15  17
BRANCH   5   4
ATOM      4  C   UNL     1      -4.260   0.841  24.624  0.00  0.00    +0.023 C 
BRANCH   4   3
ATOM      3  C   UNL     1      -3.926   0.092  24.699  0.00  0.00    +0.091 C 
BRANCH   3   2
ATOM      1  C   UNL     1      -5.118  -0.494  24.172  0.00  0.00    +0.112 C 
ATOM      2  N   UNL     1      -4.357  -0.577  24.479  0.00  0.00    -0.306 N 
BRANCH   2  24
ATOM     24  C   UNL     1      -4.026  -1.328  24.566  0.00  0.00    +0.048 A 
ATOM     25  C   UNL     1      -4.071  -1.873  23.948  0.00  0.00    +0.015 A 
ATOM     26  C   UNL     1      -3.741  -2.623  24.035  0.00  0.00    +0.001 A 
ATOM     27  C   UNL     1      -3.366  -2.830  24.740  0.00  0.00    +0.000 A 
ATOM     28  C   UNL     1      -3.321  -2.286  25.359  0.00  0.00    +0.001 A 
ATOM     29  C   UNL     1      -3.652  -1.535  25.271  0.00  0.00    +0.015 A 
ENDBRANCH   2  24
ENDBRANCH   3   2
ENDBRANCH   4   3
ENDBRANCH   5   4
BRANCH  10  11
ATOM     11  C   UNL     1      -5.017   2.195  25.188  0.00  0.00    +0.114 C 
BRANCH  11  12
ATOM     12  C   UNL     1      -5.383   2.822  25.580  0.00  0.00    +0.365 C 
ATOM     13  O   UNL     1      -5.581   2.751  26.377  0.00  0.00    -0.246 OA
ATOM     14  O   UNL     1      -5.550   3.521  25.173  0.00  0.00    -0.246 OA
ENDBRANCH  11  12
ENDBRANCH  10  11
TORSDOF 7
ENDMDL
MODEL 4
REMARK VINA RESULT:     -10.3      2.221      5.323
REMARK  Name = 
REMARK  7 active torsions:
REMARK  status: ('A' for Active; 'I' for Inactive)
REMARK    1  A    between atoms: N_2  and  C_3
REMARK    2  A    between atoms: N_2  and  C_24
REMARK    3  A    between atoms: C_3  and  C_4
REMARK    4  A    between atoms: C_4  and  C_5
REMARK    5  A    between atoms: C_10  and  C_11
REMARK    6  A    between atoms: C_11  and  C_12
REMARK    7  A    between atoms: C_15  and  C_17
REMARK                            x       y       z     vdW  Elec       q    Type
REMARK                         _______ _______ _______ _____ _____    ______ ____
ROOT
ATOM      5  C   UNL     1      -1.745   0.924  25.114  0.00  0.00    +0.022 C 
ATOM      6  C   UNL     1      -2.519   1.040  24.855  0.00  0.00    +0.094 C 
ATOM      7  N   UNL     1      -2.837   1.800  24.831  0.00  0.00    -0.276 N 
ATOM      8  C   UNL     1      -2.380   2.445  25.066  0.00  0.00    +0.094 C 
ATOM      9  C   UNL     1      -1.605   2.330  25.325  0.00  0.00    +0.022 C 
ATOM     10  C   UNL     1      -1.288   1.570  25.349  0.00  0.00    +0.015 C 
ATOM     15  C   UNL     1      -3.612   1.915  24.571  0.00  0.00    +0.249 C 
ATOM     16  O   UNL     1      -4.068   1.270  24.336  0.00  0.00    -0.270 OA
ENDROOT
BRANCH  15  17
ATOM     17  C   UNL     1      -3.930   2.676  24.547  0.00  0.00    +0.057 A 
ATOM     18  C   UNL     1      -4.435   2.931  25.147  0.00  0.00    +0.035 A 
ATOM     19  C   UNL     1      -4.754   3.693  25.122  0.00  0.00    +0.138 A 
ATOM     20 CL   UNL     1      -5.260   3.947  25.723  0.00  0.00    -0.061 Cl
ATOM     21  N   UNL     1      -4.566   4.198  24.499  0.00  0.00    -0.232 NA
ATOM     22  C   UNL     1      -4.060   3.944  23.899  0.00  0.00    +0.100 A 
ATOM     23  C   UNL     1      -3.741   3.182  23.923  0.00  0.00    +0.025 A 
ENDBRANCH  15  17
BRANCH   5   4
ATOM      4  C   UNL     1      -1.427   0.163  25.138  0.00  0.00    +0.023 C 
BRANCH   4   3
ATOM      3  C   UNL     1      -1.911  -0.480  25.316  0.00  0.00    +0.091 C 
BRANCH   3   2
ATOM      1  C   UNL     1      -0.854  -1.428  25.151  0.00  0.00    +0.112 C 
ATOM      2  N   UNL     1      -1.658  -1.248  25.143  0.00  0.00    -0.306 N 
BRANCH   2  24
ATOM     24  C   UNL     1      -2.212  -1.833  24.963  0.00  0.00    +0.048 A 
ATOM     25  C   UNL     1      -2.074  -2.350  24.335  0.00  0.00    +0.015 A 
ATOM     26  C   UNL     1      -2.627  -2.935  24.154  0.00  0.00    +0.001 A 
ATOM     27  C   UNL     1      -3.318  -3.003  24.602  0.00  0.00    +0.000 A 
ATOM     28  C   UNL     1      -3.455  -2.485  25.229  0.00  0.00    +0.001 A 
ATOM     29  C   UNL     1      -2.901  -1.900  25.409  0.00  0.00    +0.015 A 
ENDBRANCH   2  24
ENDBRANCH   3   2
ENDBRANCH   4   3
ENDBRANCH   5   4
BRANCH  10  11
ATOM     11  C   UNL     1      -0.513   1.454  25.608  0.00  0.00    +0.114 C 
BRANCH  11  12
ATOM     12  C   UNL     1      -0.024   2.103  25.745  0.00  0.00    +0.365 C 
ATOM     13  O   UNL     1       0.475   2.377  25.149  0.00  0.00    -0.246 OA
ATOM     14  O   UNL     1      -0.034   2.479  26.481  0.00  0.00    -0.246 OA
ENDBRANCH  11  12
ENDBRANCH  10  11
TORSDOF 7
ENDMDL
