MODEL 1
REMARK VINA RESULT:      -9.3      0.000      0.000
REMARK  Name = 
REMARK  6 active torsions:
REMARK  status: ('A' for Active; 'I' for Inactive)
REMARK    1  A    between atoms: C_3  and  C_4
REMARK    2  A    between atoms: C_4  and  N_5
REMARK    3  A    between atoms: C_6  and  C_8
REMARK    4  A    between atoms: C_15  and  N_16
REMARK    5  A    between atoms: N_16  and  C_17
REMARK    6  A    between atoms: C_17  and  C_18
REMARK                            x       y       z     vdW  Elec       q    Type
REMARK                         _______ _______ _______ _____ _____    ______ ____
ROOT
ATOM      1  O   UNL     1      -3.829   2.218  24.212  0.00  0.00    -0.219 OA
ATOM      2  C   UNL     1      -3.172   1.831  24.529  0.00  0.00    +0.199 C 
ATOM      3  C   UNL     1      -3.100   1.018  24.650  0.00  0.00    +0.169 C 
ATOM     13  O   UNL     1      -2.356   0.874  24.977  0.00  0.00    -0.350 OA
ATOM     14  C   UNL     1      -1.969   1.598  25.058  0.00  0.00    +0.162 C 
ATOM     15  C   UNL     1      -2.474   2.190  24.782  0.00  0.00    +0.135 C 
ENDROOT
BRANCH   3   4
ATOM      4  C   UNL     1      -3.670   0.449  24.474  0.00  0.00    +0.147 C 
BRANCH   4   5
ATOM      5  N   UNL     1      -3.480  -0.352  24.517  0.00  0.00    -0.203 NA
ATOM      6  C   UNL     1      -4.064  -0.922  24.393  0.00  0.00    +0.241 C 
ATOM      7  O   UNL     1      -4.838  -0.690  24.225  0.00  0.00    -0.273 OA
BRANCH   6   8
ATOM      8  C   UNL     1      -3.874  -1.724  24.436  0.00  0.00    +0.078 C 
ATOM      9  C   UNL     1      -3.495  -2.098  25.067  0.00  0.00    +0.009 C 
ATOM     10  C   UNL     1      -3.414  -2.897  24.879  0.00  0.00    +0.001 C 
ATOM     11  C   UNL     1      -3.744  -3.017  24.131  0.00  0.00    +0.001 C 
ATOM     12  C   UNL     1      -4.028  -2.292  23.859  0.00  0.00    +0.009 C 
ENDBRANCH   6   8
ENDBRANCH   4   5
ENDBRANCH   3   4
BRANCH  15  16
ATOM     16  N   UNL     1      -2.309   2.998  24.761  0.00  0.00    -0.209 NA
BRANCH  16  17
ATOM     17  C   UNL     1      -1.683   3.302  25.204  0.00  0.00    +0.122 C 
BRANCH  17  18
ATOM     18  C   UNL     1      -1.461   4.092  25.116  0.00  0.00    +0.025 A 
ATOM     19  C   UNL     1      -1.917   4.749  25.319  0.00  0.00    +0.004 A 
ATOM     20  C   UNL     1      -1.483   5.426  25.138  0.00  0.00    +0.007 A 
ATOM     21  C   UNL     1      -0.759   5.188  24.823  0.00  0.00    +0.035 A 
ATOM     22  S   UNL     1      -0.746   4.364  24.810  0.00  0.00    -0.089 S 
ENDBRANCH  17  18
ENDBRANCH  16  17
ENDBRANCH  15  16
TORSDOF 6
ENDMDL
MODEL 2
REMARK VINA RESULT:      -9.2      1.787      5.776
REMARK  Name = 
REMARK  6 active torsions:
REMARK  status: ('A' for Active; 'I' for Inactive)
REMARK    1  A    between atoms: C_3  and  C_4
REMARK    2  A    between atoms: C_4  and  N_5
REMARK    3  A    between atoms: C_6  and  C_8
REMARK    4  A    between atoms: C_15  and  N_16
REMARK    5  A    between atoms: N_16  and  C_17
REMARK    6  A    between atoms: C_17  and  C_18
REMARK                            x       y       z     vdW  Elec       q    Type
REMARK                         _______ _______ _______ _____ _____    ______ ____
ROOT
ATOM      1  O   UNL     1      -1.172   0.195  25.109  0.00  0.00    -0.219 OA
ATOM      2  C   UNL     1      -1.884   0.597  24.998  0.00  0.00    +0.199 C 
ATOM      3  C   UNL     1      -1.997   1.412  25.071  0.00  0.00    +0.169 C 
ATOM     13  O   UNL     1      -2.791   1.574  24.912  0.00  0.00    -0.350 OA
ATOM     14  C   UNL     1      -3.167   0.860  24.740  0.00  0.00    +0.162 C 
ATOM     15  C   UNL     1      -2.606   0.257  24.793  0.00  0.00    +0.135 C 
ENDROOT
BRANCH   3   4
ATOM      4  C   UNL     1      -1.420   1.965  25.269  0.00  0.00    +0.147 C 
BRANCH   4   5
ATOM      5  N   UNL     1      -1.541   2.765  25.105  0.00  0.00    -0.203 NA
ATOM      6  C   UNL     1      -1.020   3.331  25.401  0.00  0.00    +0.241 C 
ATOM      7  O   UNL     1      -0.376   3.099  25.863  0.00  0.00    -0.273 OA
BRANCH   6   8
ATOM      8  C   UNL     1      -1.142   4.131  25.236  0.00  0.00    +0.078 C 
ATOM      9  C   UNL     1      -0.629   4.622  24.816  0.00  0.00    +0.009 C 
ATOM     10  C   UNL     1      -0.967   5.374  24.781  0.00  0.00    +0.001 C 
ATOM     11  C   UNL     1      -1.689   5.347  25.181  0.00  0.00    +0.001 C 
ATOM     12  C   UNL     1      -1.796   4.579  25.462  0.00  0.00    +0.009 C 
ENDBRANCH   6   8
ENDBRANCH   4   5
ENDBRANCH   3   4
BRANCH  15  16
ATOM     16  N   UNL     1      -2.744  -0.547  24.664  0.00  0.00    -0.209 NA
BRANCH  16  17
ATOM     17  C   UNL     1      -3.502  -0.857  24.766  0.00  0.00    +0.122 C 
BRANCH  17  18
ATOM     18  C   UNL     1      -3.666  -1.630  24.530  0.00  0.00    +0.025 A 
ATOM     19  C   UNL     1      -4.135  -1.852  23.888  0.00  0.00    +0.004 A 
ATOM     20  C   UNL     1      -4.149  -2.676  23.857  0.00  0.00    +0.007 A 
ATOM     21  C   UNL     1      -3.689  -2.963  24.479  0.00  0.00    +0.035 A 
ATOM     22  S   UNL     1      -3.391  -2.316  24.895  0.00  0.00    -0.089 S 
ENDBRANCH  17  18
ENDBRANCH  16  17
ENDBRANCH  15  16
TORSDOF 6
ENDMDL
MODEL 3
REMARK VINA RESULT:      -7.1      3.081      4.126
REMARK  Name = 
REMARK  6 active torsions:
REMARK  status: ('A' for Active; 'I' for Inactive)
REMARK    1  A    between atoms: C_3  and  C_4
REMARK    2  A    between atoms: C_4  and  N_5
REMARK    3  A    between atoms: C_6  and  C_8
REMARK    4  A    between atoms: C_15  and  N_16
REMARK    5  A    between atoms: N_16  and  C_17
REMARK    6  A    between atoms: C_17  and  C_18
REMARK                            x       y       z     vdW  Elec       q    Type
REMARK                         _______ _______ _______ _____ _____    ______ ____
ROOT
ATOM      1  O   UNL     1      -1.912   2.015  22.716  0.00  0.00    -0.219 OA
ATOM      2  C   UNL     1      -1.862   1.738  23.492  0.00  0.00    +0.199 C 
ATOM      3  C   UNL     1      -2.426   1.850  24.084  0.00  0.00    +0.169 C 
ATOM     13  O   UNL     1      -2.152   1.482  24.770  0.00  0.00    -0.350 OA
ATOM     14  C   UNL     1      -1.419   1.142  24.602  0.00  0.00    +0.162 C 
ATOM     15  C   UNL     1      -1.240   1.301  23.812  0.00  0.00    +0.135 C 
ENDROOT
BRANCH   3   4
ATOM      4  C   UNL     1      -3.138   2.259  24.004  0.00  0.00    +0.147 C 
BRANCH   4   5
ATOM      5  N   UNL     1      -3.759   2.110  24.526  0.00  0.00    -0.203 NA
ATOM      6  C   UNL     1      -4.452   2.557  24.481  0.00  0.00    +0.241 C 
ATOM      7  O   UNL     1      -4.522   3.153  23.916  0.00  0.00    -0.273 OA
BRANCH   6   8
ATOM      8  C   UNL     1      -5.073   2.407  25.004  0.00  0.00    +0.078 C 
ATOM      9  C   UNL     1      -5.634   1.806  24.929  0.00  0.00    +0.009 C 
ATOM     10  C   UNL     1      -6.151   1.858  25.570  0.00  0.00    +0.001 C 
ATOM     11  C   UNL     1      -5.909   2.492  26.041  0.00  0.00    +0.001 C 
ATOM     12  C   UNL     1      -5.243   2.830  25.690  0.00  0.00    +0.009 C 
ENDBRANCH   6   8
ENDBRANCH   4   5
ENDBRANCH   3   4
BRANCH  15  16
ATOM     16  N   UNL     1      -0.559   1.063  23.412  0.00  0.00    -0.209 NA
BRANCH  16  17
ATOM     17  C   UNL     1      -0.028   0.544  23.773  0.00  0.00    +0.122 C 
BRANCH  17  18
ATOM     18  C   UNL     1       0.671   0.336  23.389  0.00  0.00    +0.025 A 
ATOM     19  C   UNL     1       1.382   0.753  23.416  0.00  0.00    +0.004 A 
ATOM     20  C   UNL     1       1.933   0.349  22.953  0.00  0.00    +0.007 A 
ATOM     21  C   UNL     1       1.561  -0.317  22.640  0.00  0.00    +0.035 A 
ATOM     22  S   UNL     1       0.782  -0.325  22.909  0.00  0.00    -0.089 S 
ENDBRANCH  17  18
ENDBRANCH  16  17
ENDBRANCH  15  16
TORSDOF 6
ENDMDL
MODEL 4
REMARK VINA RESULT:      -6.0     14.639     16.802
REMARK  Name = 
REMARK  6 active torsions:
REMARK  status: ('A' for Active; 'I' for Inactive)
REMARK    1  A    between atoms: C_3  and  C_4
REMARK    2  A    between atoms: C_4  and  N_5
REMARK    3  A    between atoms: C_6  and  C_8
REMARK    4  A    between atoms: C_15  and  N_16
REMARK    5  A    between atoms: N_16  and  C_17
REMARK    6  A    between atoms: C_17  and  C_18
REMARK                            x       y       z     vdW  Elec       q    Type
REMARK                         _______ _______ _______ _____ _____    ______ ____
ROOT
ATOM      1  O   UNL     1      -2.944 -10.716  14.064  0.00  0.00    -0.219 OA
ATOM      2  C   UNL     1      -3.721 -10.595  13.815  0.00  0.00    +0.199 C 
ATOM      3  C   UNL     1      -3.966 -10.462  13.038  0.00  0.00    +0.169 C 
ATOM     13  O   UNL     1      -4.787 -10.370  13.041  0.00  0.00    -0.350 OA
ATOM     14  C   UNL     1      -5.048 -10.445  13.820  0.00  0.00    +0.162 C 
ATOM     15  C   UNL     1      -4.389 -10.584  14.298  0.00  0.00    +0.135 C 
ENDROOT
BRANCH   3   4
ATOM      4  C   UNL     1      -3.478 -10.428  12.375  0.00  0.00    +0.147 C 
BRANCH   4   5
ATOM      5  N   UNL     1      -3.772 -10.140  11.660  0.00  0.00    -0.203 NA
ATOM      6  C   UNL     1      -3.278 -10.087  11.001  0.00  0.00    +0.241 C 
ATOM      7  O   UNL     1      -2.488 -10.321  11.057  0.00  0.00    -0.273 OA
BRANCH   6   8
ATOM      8  C   UNL     1      -3.573  -9.798  10.286  0.00  0.00    +0.078 C 
ATOM      9  C   UNL     1      -3.939 -10.247   9.698  0.00  0.00    +0.009 C 
ATOM     10  C   UNL     1      -4.147  -9.739   9.082  0.00  0.00    +0.001 C 
ATOM     11  C   UNL     1      -3.909  -8.976   9.290  0.00  0.00    +0.001 C 
ATOM     12  C   UNL     1      -3.554  -9.014  10.034  0.00  0.00    +0.009 C 
ENDBRANCH   6   8
ENDBRANCH   4   5
ENDBRANCH   3   4
BRANCH  15  16
ATOM     16  N   UNL     1      -4.398 -10.693  15.116  0.00  0.00    -0.209 NA
BRANCH  16  17
ATOM     17  C   UNL     1      -4.999 -10.357  15.571  0.00  0.00    +0.122 C 
BRANCH  17  18
ATOM     18  C   UNL     1      -5.023 -10.489  16.384  0.00  0.00    +0.025 A 
ATOM     19  C   UNL     1      -4.386 -10.424  16.905  0.00  0.00    +0.004 A 
ATOM     20  C   UNL     1      -4.657 -10.604  17.663  0.00  0.00    +0.007 A 
ATOM     21  C   UNL     1      -5.460 -10.781  17.611  0.00  0.00    +0.035 A 
ATOM     22  S   UNL     1      -5.686 -10.710  16.820  0.00  0.00    -0.089 S 
ENDBRANCH  17  18
ENDBRANCH  16  17
ENDBRANCH  15  16
TORSDOF 6
ENDMDL
MODEL 5
REMARK VINA RESULT:      -5.6     14.461     16.319
REMARK  Name = 
REMARK  6 active torsions:
REMARK  status: ('A' for Active; 'I' for Inactive)
REMARK    1  A    between atoms: C_3  and  C_4
REMARK    2  A    between atoms: C_4  and  N_5
REMARK    3  A    between atoms: C_6  and  C_8
REMARK    4  A    between atoms: C_15  and  N_16
REMARK    5  A    between atoms: N_16  and  C_17
REMARK    6  A    between atoms: C_17  and  C_18
REMARK                            x       y       z     vdW  Elec       q    Type
REMARK                         _______ _______ _______ _____ _____    ______ ____
ROOT
ATOM      1  O   UNL     1      -2.723 -10.439  13.548  0.00  0.00    -0.219 OA
ATOM      2  C   UNL     1      -3.548 -10.435  13.565  0.00  0.00    +0.199 C 
ATOM      3  C   UNL     1      -4.019 -10.488  14.240  0.00  0.00    +0.169 C 
ATOM     13  O   UNL     1      -4.809 -10.463  14.002  0.00  0.00    -0.350 OA
ATOM     14  C   UNL     1      -4.826 -10.396  13.180  0.00  0.00    +0.162 C 
ATOM     15  C   UNL     1      -4.046 -10.379  12.910  0.00  0.00    +0.135 C 
ENDROOT
BRANCH   3   4
ATOM      4  C   UNL     1      -3.748 -10.553  15.016  0.00  0.00    +0.147 C 
BRANCH   4   5
ATOM      5  N   UNL     1      -4.287 -10.564  15.641  0.00  0.00    -0.203 NA
ATOM      6  C   UNL     1      -4.017 -10.518  16.420  0.00  0.00    +0.241 C 
ATOM      7  O   UNL     1      -3.208 -10.461  16.573  0.00  0.00    -0.273 OA
BRANCH   6   8
ATOM      8  C   UNL     1      -4.556 -10.530  17.044  0.00  0.00    +0.078 C 
ATOM      9  C   UNL     1      -4.400 -10.781  17.815  0.00  0.00    +0.009 C 
ATOM     10  C   UNL     1      -5.092 -10.700  18.255  0.00  0.00    +0.001 C 
ATOM     11  C   UNL     1      -5.677 -10.398  17.758  0.00  0.00    +0.001 C 
ATOM     12  C   UNL     1      -5.345 -10.293  17.009  0.00  0.00    +0.009 C 
ENDBRANCH   6   8
ENDBRANCH   4   5
ENDBRANCH   3   4
BRANCH  15  16
ATOM     16  N   UNL     1      -3.807 -10.316  12.123  0.00  0.00    -0.209 NA
BRANCH  16  17
ATOM     17  C   UNL     1      -4.351 -10.099  11.542  0.00  0.00    +0.122 C 
BRANCH  17  18
ATOM     18  C   UNL     1      -4.099  -9.971  10.768  0.00  0.00    +0.025 A 
ATOM     19  C   UNL     1      -3.793  -9.266  10.467  0.00  0.00    +0.004 A 
ATOM     20  C   UNL     1      -3.613  -9.385   9.671  0.00  0.00    +0.007 A 
ATOM     21  C   UNL     1      -3.808 -10.163   9.480  0.00  0.00    +0.035 A 
ATOM     22  S   UNL     1      -4.108 -10.525  10.157  0.00  0.00    -0.089 S 
ENDBRANCH  17  18
ENDBRANCH  16  17
ENDBRANCH  15  16
TORSDOF 6
ENDMDL
MODEL 6
REMARK VINA RESULT:      -5.4     14.008     14.743
REMARK  Name = 
REMARK  6 active torsions:
REMARK  status: ('A' for Active; 'I' for Inactive)
REMARK    1  A    between atoms: C_3  and  C_4
REMARK    2  A    between atoms: C_4  and  N_5
REMARK    3  A    between atoms: C_6  and  C_8
REMARK    4  A    between atoms: C_15  and  N_16
REMARK    5  A    between atoms: N_16  and  C_17
REMARK    6  A    between atoms: C_17  and  C_18
REMARK                            x       y       z     vdW  Elec       q    Type
REMARK                         _______ _______ _______ _____ _____    ______ ____
ROOT
ATOM      1  O   UNL     1      -5.583  -9.595  17.790  0.00  0.00    -0.219 OA
ATOM      2  C   UNL     1      -5.707  -9.834  17.010  0.00  0.00    +0.199 C 
ATOM      3  C   UNL     1      -5.160 -10.221  16.529  0.00  0.00    +0.169 C 
ATOM     13  O   UNL     1      -5.515 -10.355  15.796  0.00  0.00    -0.350 OA
ATOM     14  C   UNL     1      -6.282 -10.051  15.825  0.00  0.00    +0.162 C 
ATOM     15  C   UNL     1      -6.400  -9.729  16.575  0.00  0.00    +0.135 C 
ENDROOT
BRANCH   3   4
ATOM      4  C   UNL     1      -4.393 -10.436  16.742  0.00  0.00    +0.147 C 
BRANCH   4   5
ATOM      5  N   UNL     1      -3.788 -10.415  16.182  0.00  0.00    -0.203 NA
ATOM      6  C   UNL     1      -3.012 -10.588  16.405  0.00  0.00    +0.241 C 
ATOM      7  O   UNL     1      -2.842 -10.781  17.189  0.00  0.00    -0.273 OA
BRANCH   6   8
ATOM      8  C   UNL     1      -2.407 -10.567  15.844  0.00  0.00    +0.078 C 
ATOM      9  C   UNL     1      -1.605 -10.453  16.001  0.00  0.00    +0.009 C 
ATOM     10  C   UNL     1      -1.200 -10.471  15.283  0.00  0.00    +0.001 C 
ATOM     11  C   UNL     1      -1.751 -10.596  14.682  0.00  0.00    +0.001 C 
ATOM     12  C   UNL     1      -2.498 -10.655  15.029  0.00  0.00    +0.009 C 
ENDBRANCH   6   8
ENDBRANCH   4   5
ENDBRANCH   3   4
BRANCH  15  16
ATOM     16  N   UNL     1      -7.091  -9.366  16.844  0.00  0.00    -0.209 NA
BRANCH  16  17
ATOM     17  C   UNL     1      -7.812  -9.531  16.479  0.00  0.00    +0.122 C 
BRANCH  17  18
ATOM     18  C   UNL     1      -8.511  -9.225  16.791  0.00  0.00    +0.025 A 
ATOM     19  C   UNL     1      -8.704  -8.425  16.856  0.00  0.00    +0.004 A 
ATOM     20  C   UNL     1      -9.452  -8.370  17.199  0.00  0.00    +0.007 A 
ATOM     21  C   UNL     1      -9.722  -9.136  17.345  0.00  0.00    +0.035 A 
ATOM     22  S   UNL     1      -9.140  -9.664  17.093  0.00  0.00    -0.089 S 
ENDBRANCH  17  18
ENDBRANCH  16  17
ENDBRANCH  15  16
TORSDOF 6
ENDMDL
