MODEL 1
REMARK VINA RESULT:     -12.8      0.000      0.000
REMARK  Name = 
REMARK  8 active torsions:
REMARK  status: ('A' for Active; 'I' for Inactive)
REMARK    1  A    between atoms: C_5  and  C_6
REMARK    2  A    between atoms: C_6  and  C_7
REMARK    3  A    between atoms: C_10  and  C_11
REMARK    4  A    between atoms: C_11  and  O_12
REMARK    5  A    between atoms: O_12  and  C_13
REMARK    6  A    between atoms: C_21  and  C_22
REMARK    7  A    between atoms: C_22  and  N_23
REMARK    8  A    between atoms: C_24  and  C_26
REMARK                            x       y       z     vdW  Elec       q    Type
REMARK                         _______ _______ _______ _____ _____    ______ ____
ROOT
ATOM      1  O   UNL     1      -1.697   4.998  25.068  0.00  0.00    -0.220 OA
ATOM      2  C   UNL     1      -1.447   4.236  25.258  0.00  0.00    +0.181 C 
ATOM      3  C   UNL     1      -0.647   4.041  25.214  0.00  0.00    +0.038 C 
ATOM      4  C   UNL     1      -0.396   3.278  25.404  0.00  0.00    +0.033 C 
ATOM      5  C   UNL     1      -0.947   2.710  25.638  0.00  0.00    +0.121 C 
ATOM     20  O   UNL     1      -1.748   2.905  25.682  0.00  0.00    -0.354 OA
ATOM     21  C   UNL     1      -1.997   3.667  25.493  0.00  0.00    +0.167 C 
ENDROOT
BRANCH   5   6
ATOM      6  C   UNL     1      -0.697   1.947  25.828  0.00  0.00    +0.079 C 
BRANCH   6   7
ATOM      7  C   UNL     1      -0.869   1.318  25.323  0.00  0.00    +0.103 A 
ATOM      8  N   UNL     1      -0.547   1.196  24.573  0.00  0.00    -0.082 NA
ATOM      9  O   UNL     1      -0.872   0.504  24.265  0.00  0.00    -0.354 OA
ATOM     10  C   UNL     1      -1.395   0.197  24.825  0.00  0.00    +0.198 A 
ATOM     19  C   UNL     1      -1.393   0.700  25.478  0.00  0.00    +0.057 A 
BRANCH  10  11
ATOM     11  C   UNL     1      -1.842  -0.492  24.745  0.00  0.00    +0.272 C 
BRANCH  11  12
ATOM     12  O   UNL     1      -2.662  -0.463  24.821  0.00  0.00    -0.467 OA
BRANCH  12  13
ATOM     13  C   UNL     1      -3.119  -1.124  24.632  0.00  0.00    +0.139 A 
ATOM     14  C   UNL     1      -2.994  -1.837  25.027  0.00  0.00    +0.037 A 
ATOM     15  C   UNL     1      -3.450  -2.499  24.837  0.00  0.00    +0.003 A 
ATOM     16  C   UNL     1      -4.031  -2.446  24.253  0.00  0.00    +0.000 A 
ATOM     17  C   UNL     1      -4.155  -1.732  23.859  0.00  0.00    +0.003 A 
ATOM     18  C   UNL     1      -3.699  -1.072  24.048  0.00  0.00    +0.037 A 
ENDBRANCH  12  13
ENDBRANCH  11  12
ENDBRANCH  10  11
ENDBRANCH   6   7
ENDBRANCH   5   6
BRANCH  21  22
ATOM     22  C   UNL     1      -2.798   3.861  25.537  0.00  0.00    +0.147 C 
BRANCH  22  23
ATOM     23  N   UNL     1      -3.372   3.282  25.406  0.00  0.00    -0.199 NA
ATOM     24  C   UNL     1      -4.172   3.474  25.462  0.00  0.00    +0.265 C 
ATOM     25  O   UNL     1      -4.399   4.245  25.647  0.00  0.00    -0.268 OA
BRANCH  24  26
ATOM     26  C   UNL     1      -4.744   2.895  25.331  0.00  0.00    +0.055 A 
ATOM     27  C   UNL     1      -5.298   2.724  25.918  0.00  0.00    +0.005 A 
ATOM     28  C   UNL     1      -5.872   2.144  25.788  0.00  0.00    +0.000 A 
ATOM     29  C   UNL     1      -5.890   1.737  25.071  0.00  0.00    +0.000 A 
ATOM     30  C   UNL     1      -5.337   1.909  24.484  0.00  0.00    +0.000 A 
ATOM     31  C   UNL     1      -4.764   2.488  24.614  0.00  0.00    +0.005 A 
ENDBRANCH  24  26
ENDBRANCH  22  23
ENDBRANCH  21  22
TORSDOF 8
ENDMDL
MODEL 2
REMARK VINA RESULT:     -12.2      1.234      3.456
REMARK  Name = 
REMARK  8 active torsions:
REMARK  status: ('A' for Active; 'I' for Inactive)
REMARK    1  A    between atoms: C_5  and  C_6
REMARK    2  A    between atoms: C_6  and  C_7
REMARK    3  A    between atoms: C_10  and  C_11
REMARK    4  A    between atoms: C_11  and  O_12
REMARK    5  A    between atoms: O_12  and  C_13
REMARK    6  A    between atoms: C_21  and  C_22
REMARK    7  A    between atoms: C_22  and  N_23
REMARK    8  A    between atoms: C_24  and  C_26
REMARK                            x       y       z     vdW  Elec       q    Type
REMARK                         _______ _______ _______ _____ _____    ______ ____
ROOT
ATOM      1  O   UNL     1      -1.547   4.278  25.798  0.00  0.00    -0.220 OA
ATOM      2  C   UNL     1      -2.226   3.940  25.475  0.00  0.00    +0.181 C 
ATOM      3  C   UNL     1      -2.969   4.247  25.663  0.00  0.00    +0.038 C 
ATOM      4  C   UNL     1      -3.649   3.909  25.340  0.00  0.00    +0.033 C 
ATOM      5  C   UNL     1      -3.586   3.263  24.831  0.00  0.00    +0.121 C 
ATOM     20  O   UNL     1      -2.843   2.956  24.644  0.00  0.00    -0.354 OA
ATOM     21  C   UNL     1      -2.164   3.294  24.966  0.00  0.00    +0.167 C 
ENDROOT
BRANCH   5   6
ATOM      6  C   UNL     1      -4.266   2.924  24.508  0.00  0.00    +0.079 C 
BRANCH   6   7
ATOM      7  C   UNL     1      -4.522   2.184  24.768  0.00  0.00    +0.103 A 
ATOM      8  N   UNL     1      -5.024   2.042  25.407  0.00  0.00    -0.082 NA
ATOM      9  O   UNL     1      -5.133   1.227  25.469  0.00  0.00    -0.354 OA
ATOM     10  C   UNL     1      -4.698   0.865  24.868  0.00  0.00    +0.198 A 
ATOM     19  C   UNL     1      -4.320   1.457  24.435  0.00  0.00    +0.057 A 
BRANCH  10  11
ATOM     11  C   UNL     1      -4.649   0.054  24.725  0.00  0.00    +0.272 C 
BRANCH  11  12
ATOM     12  O   UNL     1      -3.967  -0.361  24.932  0.00  0.00    -0.467 OA
BRANCH  12  13
ATOM     13  C   UNL     1      -3.898  -1.162  24.744  0.00  0.00    +0.139 A 
ATOM     14  C   UNL     1      -4.144  -1.435  24.006  0.00  0.00    +0.037 A 
ATOM     15  C   UNL     1      -4.075  -2.236  23.819  0.00  0.00    +0.003 A 
ATOM     16  C   UNL     1      -3.760  -2.763  24.370  0.00  0.00    +0.000 A 
ATOM     17  C   UNL     1      -3.515  -2.489  25.109  0.00  0.00    +0.003 A 
ATOM     18  C   UNL     1      -3.584  -1.689  25.295  0.00  0.00    +0.037 A 
ENDBRANCH  12  13
ENDBRANCH  11  12
ENDBRANCH  10  11
ENDBRANCH   6   7
ENDBRANCH   5   6
BRANCH  21  22
ATOM     22  C   UNL     1      -1.422   2.987  24.778  0.00  0.00    +0.147 C 
BRANCH  22  23
ATOM     23  N   UNL     1      -1.315   2.170  24.723  0.00  0.00    -0.199 NA
ATOM     24  C   UNL     1      -0.589   1.864  24.479  0.00  0.00    +0.265 C 
ATOM     25  O   UNL     1       0.031   2.376  24.291  0.00  0.00    -0.268 OA
BRANCH  24  26
ATOM     26  C   UNL     1      -0.482   1.049  24.423  0.00  0.00    +0.055 A 
ATOM     27  C   UNL     1      -0.582   0.574  25.090  0.00  0.00    +0.005 A 
ATOM     28  C   UNL     1      -0.476  -0.243  25.035  0.00  0.00    +0.000 A 
ATOM     29  C   UNL     1      -0.270  -0.584  24.312  0.00  0.00    +0.000 A 
ATOM     30  C   UNL     1      -0.170  -0.109  23.646  0.00  0.00    +0.000 A 
ATOM     31  C   UNL     1      -0.276   0.707  23.701  0.00  0.00    +0.005 A 
ENDBRANCH  24  26
ENDBRANCH  22  23
ENDBRANCH  21  22
TORSDOF 8
ENDMDL
MODEL 3
REMARK VINA RESULT:     -11.7      1.322      4.273
REMARK  Name = 
REMARK  8 active torsions:
REMARK  status: ('A' for Active; 'I' for Inactive)
REMARK    1  A    between atoms: C_5  and  C_6
REMARK    2  A    between atoms: C_6  and  C_7
REMARK    3  A    between atoms: C_10  and  C_11
REMARK    4  A    between atoms: C_11  and  O_12
REMARK    5  A    between atoms: O_12  and  C_13
REMARK    6  A    between atoms: C_21  and  C_22
REMARK    7  A    between atoms: C_22  and  N_23
REMARK    8  A    between atoms: C_24  and  C_26
REMARK                            x       y       z     vdW  Elec       q    Type
REMARK                         _______ _______ _______ _____ _____    ______ ____
ROOT
ATOM      1  O   UNL     1      -4.483  -1.770  23.947  0.00  0.00    -0.220 OA
ATOM      2  C   UNL     1      -3.797  -1.577  24.362  0.00  0.00    +0.181 C 
ATOM      3  C   UNL     1      -3.163  -2.104  24.378  0.00  0.00    +0.038 C 
ATOM      4  C   UNL     1      -2.476  -1.911  24.794  0.00  0.00    +0.033 C 
ATOM      5  C   UNL     1      -2.425  -1.191  25.193  0.00  0.00    +0.121 C 
ATOM     20  O   UNL     1      -3.059  -0.664  25.177  0.00  0.00    -0.354 OA
ATOM     21  C   UNL     1      -3.745  -0.857  24.762  0.00  0.00    +0.167 C 
ENDROOT
BRANCH   5   6
ATOM      6  C   UNL     1      -1.738  -0.998  25.608  0.00  0.00    +0.079 C 
BRANCH   6   7
ATOM      7  C   UNL     1      -1.245  -0.396  25.334  0.00  0.00    +0.103 A 
ATOM      8  N   UNL     1      -0.626  -0.484  24.794  0.00  0.00    -0.082 NA
ATOM      9  O   UNL     1      -0.283   0.256  24.677  0.00  0.00    -0.354 OA
ATOM     10  C   UNL     1      -0.689   0.802  25.144  0.00  0.00    +0.198 A 
ATOM     19  C   UNL     1      -1.283   0.399  25.549  0.00  0.00    +0.057 A 
BRANCH  10  11
ATOM     11  C   UNL     1      -0.529   1.610  25.196  0.00  0.00    +0.272 C 
BRANCH  11  12
ATOM     12  O   UNL     1      -0.858   2.132  24.649  0.00  0.00    -0.467 OA
BRANCH  12  13
ATOM     13  C   UNL     1      -0.831   2.946  24.786  0.00  0.00    +0.139 A 
ATOM     14  C   UNL     1      -1.014   3.244  25.533  0.00  0.00    +0.037 A 
ATOM     15  C   UNL     1      -0.987   4.057  25.670  0.00  0.00    +0.003 A 
ATOM     16  C   UNL     1      -0.777   4.572  25.060  0.00  0.00    +0.000 A 
ATOM     17  C   UNL     1      -0.593   4.273  24.314  0.00  0.00    +0.003 A 
ATOM     18  C   UNL     1      -0.620   3.460  24.177  0.00  0.00    +0.037 A 
ENDBRANCH  12  13
ENDBRANCH  11  12
ENDBRANCH  10  11
ENDBRANCH   6   7
ENDBRANCH   5   6
BRANCH  21  22
ATOM     22  C   UNL     1      -4.379  -0.330  24.746  0.00  0.00    +0.147 C 
BRANCH  22  23
ATOM     23  N   UNL     1      -4.240   0.483  24.703  0.00  0.00    -0.199 NA
ATOM     24  C   UNL     1      -4.857   1.014  24.834  0.00  0.00    +0.265 C 
ATOM     25  O   UNL     1      -5.614   0.733  25.008  0.00  0.00    -0.268 OA
BRANCH  24  26
ATOM     26  C   UNL     1      -4.718   1.826  24.791  0.00  0.00    +0.055 A 
ATOM     27  C   UNL     1      -4.864   2.304  25.447  0.00  0.00    +0.005 A 
ATOM     28  C   UNL     1      -4.725   3.117  25.405  0.00  0.00    +0.000 A 
ATOM     29  C   UNL     1      -4.440   3.450  24.706  0.00  0.00    +0.000 A 
ATOM     30  C   UNL     1      -4.294   2.971  24.050  0.00  0.00    +0.000 A 
ATOM     31  C   UNL     1      -4.433   2.160  24.093  0.00  0.00    +0.005 A 
ENDBRANCH  24  26
ENDBRANCH  22  23
ENDBRANCH  21  22
TORSDOF 8
ENDMDL
MODEL 4
REMARK VINA RESULT:     -11.6      1.151      4.056
REMARK  Name = 
REMARK  8 active torsions:
REMARK  status: ('A' for Active; 'I' for Inactive)
REMARK    1  A    between atoms: C_5  and  C_6
REMARK    2  A    between atoms: C_6  and  C_7
REMARK    3  A    between atoms: C_10  and  C_11
REMARK    4  A    between atoms: C_11  and  O_12
REMARK    5  A    between atoms: O_12  and  C_13
REMARK    6  A    between atoms: C_21  and  C_22
REMARK    7  A    between atoms: C_22  and  N_23
REMARK    8  A    between atoms: C_24  and  C_26
REMARK                            x       y       z     vdW  Elec       q    Type
REMARK                         _______ _______ _______ _____ _____    ______ ____
ROOT
ATOM      1  O   UNL     1       0.560   0.314  23.409  0.00  0.00    -0.220 OA
ATOM      2  C   UNL     1       0.335   0.885  23.960  0.00  0.00    +0.181 C 
ATOM      3  C   UNL     1       0.634   1.652  23.904  0.00  0.00    +0.038 C 
ATOM      4  C   UNL     1       0.409   2.224  24.455  0.00  0.00    +0.033 C 
ATOM      5  C   UNL     1      -0.116   2.028  25.061  0.00  0.00    +0.121 C 
ATOM     20  O   UNL     1      -0.415   1.261  25.116  0.00  0.00    -0.354 OA
ATOM     21  C   UNL     1      -0.190   0.690  24.566  0.00  0.00    +0.167 C 
ENDROOT
BRANCH   5   6
ATOM      6  C   UNL     1      -0.341   2.600  25.612  0.00  0.00    +0.079 C 
BRANCH   6   7
ATOM      7  C   UNL     1      -1.019   3.052  25.484  0.00  0.00    +0.103 A 
ATOM      8  N   UNL     1      -1.045   3.802  25.139  0.00  0.00    -0.082 NA
ATOM      9  O   UNL     1      -1.832   4.046  25.120  0.00  0.00    -0.354 OA
ATOM     10  C   UNL     1      -2.293   3.449  25.453  0.00  0.00    +0.198 A 
ATOM     19  C   UNL     1      -1.791   2.835  25.678  0.00  0.00    +0.057 A 
BRANCH  10  11
ATOM     11  C   UNL     1      -3.113   3.464  25.546  0.00  0.00    +0.272 C 
BRANCH  11  12
ATOM     12  O   UNL     1      -3.603   3.280  24.909  0.00  0.00    -0.467 OA
BRANCH  12  13
ATOM     13  C   UNL     1      -4.351   2.957  25.043  0.00  0.00    +0.139 A 
ATOM     14  C   UNL     1      -4.835   3.270  25.633  0.00  0.00    +0.037 A 
ATOM     15  C   UNL     1      -5.583   2.947  25.767  0.00  0.00    +0.003 A 
ATOM     16  C   UNL     1      -5.846   2.311  25.310  0.00  0.00    +0.000 A 
ATOM     17  C   UNL     1      -5.360   1.999  24.720  0.00  0.00    +0.003 A 
ATOM     18  C   UNL     1      -4.613   2.322  24.587  0.00  0.00    +0.037 A 
ENDBRANCH  12  13
ENDBRANCH  11  12
ENDBRANCH  10  11
ENDBRANCH   6   7
ENDBRANCH   5   6
BRANCH  21  22
ATOM     22  C   UNL     1      -0.490  -0.076  24.622  0.00  0.00    +0.147 C 
BRANCH  22  23
ATOM     23  N   UNL     1      -1.303  -0.198  24.698  0.00  0.00    -0.199 NA
ATOM     24  C   UNL     1      -1.593  -0.947  24.885  0.00  0.00    +0.265 C 
ATOM     25  O   UNL     1      -1.069  -1.575  24.996  0.00  0.00    -0.268 OA
BRANCH  24  26
ATOM     26  C   UNL     1      -2.405  -1.068  24.961  0.00  0.00    +0.055 A 
ATOM     27  C   UNL     1      -2.852  -1.288  24.303  0.00  0.00    +0.005 A 
ATOM     28  C   UNL     1      -3.665  -1.409  24.379  0.00  0.00    +0.000 A 
ATOM     29  C   UNL     1      -4.030  -1.309  25.112  0.00  0.00    +0.000 A 
ATOM     30  C   UNL     1      -3.582  -1.089  25.769  0.00  0.00    +0.000 A 
ATOM     31  C   UNL     1      -2.770  -0.969  25.694  0.00  0.00    +0.005 A 
ENDBRANCH  24  26
ENDBRANCH  22  23
ENDBRANCH  21  22
TORSDOF 8
ENDMDL
MODEL 5
REMARK VINA RESULT:     -11.4      1.515      4.414
REMARK  Name = 
REMARK  8 active torsions:
REMARK  status: ('A' for Active; 'I' for Inactive)
REMARK    1  A    between atoms: C_5  and  C_6
REMARK    2  A    between atoms: C_6  and  C_7
REMARK    3  A    between atoms: C_10  and  C_11
REMARK    4  A    between atoms: C_11  and  O_12
REMARK    5  A    between atoms: O_12  and  C_13
REMARK    6  A    between atoms: C_21  and  C_22
REMARK    7  A    between atoms: C_22  and  N_23
REMARK    8  A    between atoms: C_24  and  C_26
REMARK                            x       y       z     vdW  Elec       q    Type
REMARK                         _______ _______ _______ _____ _____    ______ ____
ROOT
ATOM      1  O   UNL     1       0.354  -0.644  23.770  0.00  0.00    -0.220 OA
ATOM      2  C   UNL     1      -0.345  -0.768  24.189  0.00  0.00    +0.181 C 
ATOM      3  C   UNL     1      -0.750  -1.483  24.114  0.00  0.00    +0.038 C 
ATOM      4  C   UNL     1      -1.451  -1.607  24.533  0.00  0.00    +0.033 C 
ATOM      5  C   UNL     1      -1.745  -1.016  25.028  0.00  0.00    +0.121 C 
ATOM     20  O   UNL     1      -1.340  -0.301  25.103  0.00  0.00    -0.354 OA
ATOM     21  C   UNL     1      -0.641  -0.177  24.684  0.00  0.00    +0.167 C 
ENDROOT
BRANCH   5   6
ATOM      6  C   UNL     1      -2.445  -1.140  25.447  0.00  0.00    +0.079 C 
BRANCH   6   7
ATOM      7  C   UNL     1      -3.149  -0.801  25.184  0.00  0.00    +0.103 A 
ATOM      8  N   UNL     1      -3.631  -1.089  24.579  0.00  0.00    -0.082 NA
ATOM      9  O   UNL     1      -4.275  -0.580  24.501  0.00  0.00    -0.354 OA
ATOM     10  C   UNL     1      -4.191   0.023  25.058  0.00  0.00    +0.198 A 
ATOM     19  C   UNL     1      -3.496  -0.113  25.479  0.00  0.00    +0.057 A 
BRANCH  10  11
ATOM     11  C   UNL     1      -4.713   0.653  25.172  0.00  0.00    +0.272 C 
BRANCH  11  12
ATOM     12  O   UNL     1      -4.681   1.310  24.675  0.00  0.00    -0.467 OA
BRANCH  12  13
ATOM     13  C   UNL     1      -4.940   2.045  24.946  0.00  0.00    +0.139 A 
ATOM     14  C   UNL     1      -5.474   2.089  25.572  0.00  0.00    +0.037 A 
ATOM     15  C   UNL     1      -5.733   2.825  25.843  0.00  0.00    +0.003 A 
ATOM     16  C   UNL     1      -5.456   3.516  25.487  0.00  0.00    +0.000 A 
ATOM     17  C   UNL     1      -4.922   3.471  24.860  0.00  0.00    +0.003 A 
ATOM     18  C   UNL     1      -4.664   2.736  24.590  0.00  0.00    +0.037 A 
ENDBRANCH  12  13
ENDBRANCH  11  12
ENDBRANCH  10  11
ENDBRANCH   6   7
ENDBRANCH   5   6
BRANCH  21  22
ATOM     22  C   UNL     1      -0.236   0.538  24.760  0.00  0.00    +0.147 C 
BRANCH  22  23
ATOM     23  N   UNL     1      -0.654   1.236  24.896  0.00  0.00    -0.199 NA
ATOM     24  C   UNL     1      -0.248   1.933  25.071  0.00  0.00    +0.265 C 
ATOM     25  O   UNL     1       0.577   1.930  25.108  0.00  0.00    -0.268 OA
BRANCH  24  26
ATOM     26  C   UNL     1      -0.665   2.630  25.207  0.00  0.00    +0.055 A 
ATOM     27  C   UNL     1      -0.700   3.211  24.622  0.00  0.00    +0.005 A 
ATOM     28  C   UNL     1      -1.119   3.910  24.758  0.00  0.00    +0.000 A 
ATOM     29  C   UNL     1      -1.501   4.027  25.479  0.00  0.00    +0.000 A 
ATOM     30  C   UNL     1      -1.466   3.446  26.064  0.00  0.00    +0.000 A 
ATOM     31  C   UNL     1      -1.048   2.749  25.928  0.00  0.00    +0.005 A 
ENDBRANCH  24  26
ENDBRANCH  22  23
ENDBRANCH  21  22
TORSDOF 8
ENDMDL
