MODEL 1
REMARK VINA RESULT:     -10.5      0.000      0.000
REMARK  Name = 
REMARK  5 active torsions:
REMARK  status: ('A' for Active; 'I' for Inactive)
REMARK    1  A    between atoms: O_2  and  C_3
REMARK    2  A    between atoms: C_6  and  C_7
REMARK    3  A    between atoms: C_7  and  N_8
REMARK    4  A    between atoms: C_13  and  O_15
REMARK    5  A    between atoms: O_15  and  C_16
REMARK                            x       y       z     vdW  Elec       q    Type
REMARK                         _______ _______ _______ _____ _____    ______ ____
ROOT
ATOM      8  N   UNL     1      -3.443   1.852  24.413  0.00  0.00    -0.264 NA
ATOM      9  C   UNL     1      -4.227   2.036  24.233  0.00  0.00    +0.105 C 
ATOM     10  C   UNL     1      -4.682   2.667  24.506  0.00  0.00    +0.160 C 
ATOM     11  O   UNL     1      -4.467   3.270  25.027  0.00  0.00    -0.348 OA
ATOM     12  C   UNL     1      -3.742   3.390  25.402  0.00  0.00    +0.187 C 
ATOM     13  C   UNL     1      -3.054   2.938  25.349  0.00  0.00    +0.211 C 
ATOM     14  C   UNL     1      -2.922   2.253  24.909  0.00  0.00    +0.119 C 
ENDROOT
BRANCH   8   7
ATOM      7  C   UNL     1      -3.141   1.177  24.046  0.00  0.00    +0.101 C 
BRANCH   7   6
ATOM      3  C   UNL     1      -3.500  -1.050  25.064  0.00  0.00    +0.225 A 
ATOM      4  C   UNL     1      -4.051  -0.746  24.532  0.00  0.00    +0.057 A 
ATOM      5  C   UNL     1      -3.932  -0.005  24.193  0.00  0.00    +0.003 A 
ATOM      6  C   UNL     1      -3.261   0.434  24.386  0.00  0.00    +0.013 A 
ATOM     22  C   UNL     1      -2.709   0.130  24.919  0.00  0.00    +0.099 A 
ATOM     23  N   UNL     1      -2.828  -0.611  25.258  0.00  0.00    -0.210 NA
BRANCH   3   2
ATOM      1  C   UNL     1      -3.454  -2.476  24.971  0.00  0.00    +0.254 C 
ATOM      2  O   UNL     1      -3.620  -1.793  25.404  0.00  0.00    -0.456 OA
ENDBRANCH   3   2
ENDBRANCH   7   6
ENDBRANCH   8   7
BRANCH  13  15
ATOM     15  O   UNL     1      -2.414   3.206  25.797  0.00  0.00    -0.475 OA
BRANCH  15  16
ATOM     16  C   UNL     1      -1.904   3.774  25.486  0.00  0.00    +0.139 A 
ATOM     17  C   UNL     1      -1.180   3.545  25.164  0.00  0.00    +0.037 A 
ATOM     18  C   UNL     1      -0.669   4.114  24.853  0.00  0.00    +0.003 A 
ATOM     19  C   UNL     1      -0.882   4.911  24.864  0.00  0.00    +0.000 A 
ATOM     20  C   UNL     1      -1.606   5.140  25.186  0.00  0.00    +0.003 A 
ATOM     21  C   UNL     1      -2.117   4.571  25.497  0.00  0.00    +0.037 A 
ENDBRANCH  15  16
ENDBRANCH  13  15
TORSDOF 5
ENDMDL
MODEL 2
REMARK VINA RESULT:     -10.5      1.505      4.805
REMARK  Name = 
REMARK  5 active torsions:
REMARK  status: ('A' for Active; 'I' for Inactive)
REMARK    1  A    between atoms: O_2  and  C_3
REMARK    2  A    between atoms: C_6  and  C_7
REMARK    3  A    between atoms: C_7  and  N_8
REMARK    4  A    between atoms: C_13  and  O_15
REMARK    5  A    between atoms: O_15  and  C_16
REMARK                            x       y       z     vdW  Elec       q    Type
REMARK                         _______ _______ _______ _____ _____    ______ ____
ROOT
ATOM      8  N   UNL     1      -2.558   1.001  24.387  0.00  0.00    -0.264 NA
ATOM      9  C   UNL     1      -1.748   1.092  24.516  0.00  0.00    +0.105 C 
ATOM     10  C   UNL     1      -1.241   0.618  24.962  0.00  0.00    +0.160 C 
ATOM     11  O   UNL     1      -1.419  -0.065  25.390  0.00  0.00    -0.348 OA
ATOM     12  C   UNL     1      -2.148  -0.441  25.477  0.00  0.00    +0.187 C 
ATOM     13  C   UNL     1      -2.879  -0.228  25.158  0.00  0.00    +0.211 C 
ATOM     14  C   UNL     1      -3.060   0.413  24.673  0.00  0.00    +0.119 C 
ENDROOT
BRANCH   8   7
ATOM      7  C   UNL     1      -2.910   1.573  23.909  0.00  0.00    +0.101 C 
BRANCH   7   6
ATOM      3  C   UNL     1      -4.255   3.383  24.930  0.00  0.00    +0.225 A 
ATOM      4  C   UNL     1      -4.630   2.754  24.549  0.00  0.00    +0.057 A 
ATOM      5  C   UNL     1      -4.182   2.152  24.209  0.00  0.00    +0.003 A 
ATOM      6  C   UNL     1      -3.359   2.176  24.250  0.00  0.00    +0.013 A 
ATOM     22  C   UNL     1      -2.983   2.805  24.631  0.00  0.00    +0.099 A 
ATOM     23  N   UNL     1      -3.431   3.407  24.971  0.00  0.00    -0.210 NA
BRANCH   3   2
ATOM      1  C   UNL     1      -5.433   3.813  25.618  0.00  0.00    +0.254 C 
ATOM      2  O   UNL     1      -4.704   3.986  25.271  0.00  0.00    -0.456 OA
ENDBRANCH   3   2
ENDBRANCH   7   6
ENDBRANCH   8   7
BRANCH  13  15
ATOM     15  O   UNL     1      -3.511  -0.724  25.349  0.00  0.00    -0.475 OA
BRANCH  15  16
ATOM     16  C   UNL     1      -3.625  -1.426  24.933  0.00  0.00    +0.139 A 
ATOM     17  C   UNL     1      -3.282  -2.126  25.204  0.00  0.00    +0.037 A 
ATOM     18  C   UNL     1      -3.396  -2.829  24.787  0.00  0.00    +0.003 A 
ATOM     19  C   UNL     1      -3.851  -2.832  24.099  0.00  0.00    +0.000 A 
ATOM     20  C   UNL     1      -4.194  -2.132  23.828  0.00  0.00    +0.003 A 
ATOM     21  C   UNL     1      -4.080  -1.429  24.245  0.00  0.00    +0.037 A 
ENDBRANCH  15  16
ENDBRANCH  13  15
TORSDOF 5
ENDMDL
MODEL 3
REMARK VINA RESULT:     -10.3      1.382      5.055
REMARK  Name = 
REMARK  5 active torsions:
REMARK  status: ('A' for Active; 'I' for Inactive)
REMARK    1  A    between atoms: O_2  and  C_3
REMARK    2  A    between atoms: C_6  and  C_7
REMARK    3  A    between atoms: C_7  and  N_8
REMARK    4  A    between atoms: C_13  and  O_15
REMARK    5  A    between atoms: O_15  and  C_16
REMARK                            x       y       z     vdW  Elec       q    Type
REMARK                         _______ _______ _______ _____ _____    ______ ____
ROOT
ATOM      8  N   UNL     1      -1.755   0.862  24.312  0.00  0.00    -0.264 NA
ATOM      9  C   UNL     1      -0.940   0.734  24.331  0.00  0.00    +0.105 C 
ATOM     10  C   UNL     1      -0.524   0.118  24.688  0.00  0.00    +0.160 C 
ATOM     11  O   UNL     1      -0.820  -0.523  25.115  0.00  0.00    -0.348 OA
ATOM     12  C   UNL     1      -1.606  -0.705  25.289  0.00  0.00    +0.187 C 
ATOM     13  C   UNL     1      -2.289  -0.292  25.080  0.00  0.00    +0.211 C 
ATOM     14  C   UNL     1      -2.354   0.405  24.645  0.00  0.00    +0.119 C 
ENDROOT
BRANCH   8   7
ATOM      7  C   UNL     1      -2.002   1.536  23.905  0.00  0.00    +0.101 C 
BRANCH   7   6
ATOM      3  C   UNL     1      -1.973   3.741  25.030  0.00  0.00    +0.225 A 
ATOM      4  C   UNL     1      -2.659   3.283  25.037  0.00  0.00    +0.057 A 
ATOM      5  C   UNL     1      -2.668   2.549  24.662  0.00  0.00    +0.003 A 
ATOM      6  C   UNL     1      -1.992   2.271  24.280  0.00  0.00    +0.013 A 
ATOM     22  C   UNL     1      -1.305   2.729  24.273  0.00  0.00    +0.099 A 
ATOM     23  N   UNL     1      -1.296   3.463  24.647  0.00  0.00    -0.210 NA
BRANCH   3   2
ATOM      1  C   UNL     1      -1.413   5.048  25.178  0.00  0.00    +0.254 C 
ATOM      2  O   UNL     1      -1.963   4.476  25.405  0.00  0.00    -0.456 OA
ENDBRANCH   3   2
ENDBRANCH   7   6
ENDBRANCH   8   7
BRANCH  13  15
ATOM     15  O   UNL     1      -3.000  -0.621  25.341  0.00  0.00    -0.475 OA
BRANCH  15  16
ATOM     16  C   UNL     1      -3.346  -1.239  24.919  0.00  0.00    +0.139 A 
ATOM     17  C   UNL     1      -3.894  -1.076  24.324  0.00  0.00    +0.037 A 
ATOM     18  C   UNL     1      -4.241  -1.695  23.902  0.00  0.00    +0.003 A 
ATOM     19  C   UNL     1      -4.040  -2.476  24.075  0.00  0.00    +0.000 A 
ATOM     20  C   UNL     1      -3.493  -2.639  24.670  0.00  0.00    +0.003 A 
ATOM     21  C   UNL     1      -3.146  -2.020  25.091  0.00  0.00    +0.037 A 
ENDBRANCH  15  16
ENDBRANCH  13  15
TORSDOF 5
ENDMDL
MODEL 4
REMARK VINA RESULT:      -9.9      2.295      4.560
REMARK  Name = 
REMARK  5 active torsions:
REMARK  status: ('A' for Active; 'I' for Inactive)
REMARK    1  A    between atoms: O_2  and  C_3
REMARK    2  A    between atoms: C_6  and  C_7
REMARK    3  A    between atoms: C_7  and  N_8
REMARK    4  A    between atoms: C_13  and  O_15
REMARK    5  A    between atoms: O_15  and  C_16
REMARK                            x       y       z     vdW  Elec       q    Type
REMARK                         _______ _______ _______ _____ _____    ______ ____
ROOT
ATOM      8  N   UNL     1      -2.126   0.854  24.824  0.00  0.00    -0.264 NA
ATOM      9  C   UNL     1      -2.296   1.500  24.338  0.00  0.00    +0.105 C 
ATOM     10  C   UNL     1      -3.019   1.721  24.010  0.00  0.00    +0.160 C 
ATOM     11  O   UNL     1      -3.753   1.351  24.086  0.00  0.00    -0.348 OA
ATOM     12  C   UNL     1      -3.943   0.669  24.509  0.00  0.00    +0.187 C 
ATOM     13  C   UNL     1      -3.447   0.188  24.960  0.00  0.00    +0.211 C 
ATOM     14  C   UNL     1      -2.639   0.271  25.100  0.00  0.00    +0.119 C 
ENDROOT
BRANCH   8   7
ATOM      7  C   UNL     1      -1.340   0.784  25.064  0.00  0.00    +0.101 C 
BRANCH   7   6
ATOM      3  C   UNL     1       0.374  -0.022  23.471  0.00  0.00    +0.225 A 
ATOM      4  C   UNL     1      -0.007  -0.555  23.973  0.00  0.00    +0.057 A 
ATOM      5  C   UNL     1      -0.577  -0.286  24.503  0.00  0.00    +0.003 A 
ATOM      6  C   UNL     1      -0.769   0.515  24.533  0.00  0.00    +0.013 A 
ATOM     22  C   UNL     1      -0.388   1.049  24.031  0.00  0.00    +0.099 A 
ATOM     23  N   UNL     1       0.183   0.780  23.501  0.00  0.00    -0.210 NA
BRANCH   3   2
ATOM      1  C   UNL     1       1.659   0.117  22.860  0.00  0.00    +0.254 C 
ATOM      2  O   UNL     1       0.946  -0.291  22.941  0.00  0.00    -0.456 OA
ENDBRANCH   3   2
ENDBRANCH   7   6
ENDBRANCH   8   7
BRANCH  13  15
ATOM     15  O   UNL     1      -3.809  -0.462  25.319  0.00  0.00    -0.475 OA
BRANCH  15  16
ATOM     16  C   UNL     1      -3.827  -1.189  24.931  0.00  0.00    +0.139 A 
ATOM     17  C   UNL     1      -3.439  -1.841  25.258  0.00  0.00    +0.037 A 
ATOM     18  C   UNL     1      -3.458  -2.569  24.869  0.00  0.00    +0.003 A 
ATOM     19  C   UNL     1      -3.863  -2.645  24.154  0.00  0.00    +0.000 A 
ATOM     20  C   UNL     1      -4.250  -1.994  23.828  0.00  0.00    +0.003 A 
ATOM     21  C   UNL     1      -4.232  -1.266  24.217  0.00  0.00    +0.037 A 
ENDBRANCH  15  16
ENDBRANCH  13  15
TORSDOF 5
ENDMDL
MODEL 5
REMARK VINA RESULT:      -9.9      1.186      4.734
REMARK  Name = 
REMARK  5 active torsions:
REMARK  status: ('A' for Active; 'I' for Inactive)
REMARK    1  A    between atoms: O_2  and  C_3
REMARK    2  A    between atoms: C_6  and  C_7
REMARK    3  A    between atoms: C_7  and  N_8
REMARK    4  A    between atoms: C_13  and  O_15
REMARK    5  A    between atoms: O_15  and  C_16
REMARK                            x       y       z     vdW  Elec       q    Type
REMARK                         _______ _______ _______ _____ _____    ______ ____
ROOT
ATOM      8  N   UNL     1      -4.029   1.871  24.420  0.00  0.00    -0.264 NA
ATOM      9  C   UNL     1      -4.780   2.073  24.698  0.00  0.00    +0.105 C 
ATOM     10  C   UNL     1      -5.294   1.626  25.161  0.00  0.00    +0.160 C 
ATOM     11  O   UNL     1      -5.186   0.865  25.462  0.00  0.00    -0.348 OA
ATOM     12  C   UNL     1      -4.537   0.364  25.372  0.00  0.00    +0.187 C 
ATOM     13  C   UNL     1      -3.835   0.501  24.960  0.00  0.00    +0.211 C 
ATOM     14  C   UNL     1      -3.610   1.172  24.537  0.00  0.00    +0.119 C 
ENDROOT
BRANCH   8   7
ATOM      7  C   UNL     1      -3.650   2.446  23.965  0.00  0.00    +0.101 C 
BRANCH   7   6
ATOM      3  C   UNL     1      -2.242   4.163  25.058  0.00  0.00    +0.225 A 
ATOM      4  C   UNL     1      -1.900   3.468  24.774  0.00  0.00    +0.057 A 
ATOM      5  C   UNL     1      -2.369   2.896  24.410  0.00  0.00    +0.003 A 
ATOM      6  C   UNL     1      -3.181   3.018  24.329  0.00  0.00    +0.013 A 
ATOM     22  C   UNL     1      -3.524   3.713  24.614  0.00  0.00    +0.099 A 
ATOM     23  N   UNL     1      -3.055   4.285  24.978  0.00  0.00    -0.210 NA
BRANCH   3   2
ATOM      1  C   UNL     1      -1.095   5.015  25.045  0.00  0.00    +0.254 C 
ATOM      2  O   UNL     1      -1.773   4.735  25.423  0.00  0.00    -0.456 OA
ENDBRANCH   3   2
ENDBRANCH   7   6
ENDBRANCH   8   7
BRANCH  13  15
ATOM     15  O   UNL     1      -3.285  -0.115  24.974  0.00  0.00    -0.475 OA
BRANCH  15  16
ATOM     16  C   UNL     1      -3.507  -0.870  24.726  0.00  0.00    +0.139 A 
ATOM     17  C   UNL     1      -3.465  -1.505  25.250  0.00  0.00    +0.037 A 
ATOM     18  C   UNL     1      -3.687  -2.260  25.001  0.00  0.00    +0.003 A 
ATOM     19  C   UNL     1      -3.950  -2.379  24.228  0.00  0.00    +0.000 A 
ATOM     20  C   UNL     1      -3.992  -1.744  23.704  0.00  0.00    +0.003 A 
ATOM     21  C   UNL     1      -3.770  -0.989  23.954  0.00  0.00    +0.037 A 
ENDBRANCH  15  16
ENDBRANCH  13  15
TORSDOF 5
ENDMDL
MODEL 6
REMARK VINA RESULT:      -9.8      1.701      2.491
REMARK  Name = 
REMARK  5 active torsions:
REMARK  status: ('A' for Active; 'I' for Inactive)
REMARK    1  A    between atoms: O_2  and  C_3
REMARK    2  A    between atoms: C_6  and  C_7
REMARK    3  A    between atoms: C_7  and  N_8
REMARK    4  A    between atoms: C_13  and  O_15
REMARK    5  A    between atoms: O_15  and  C_16
REMARK                            x       y       z     vdW  Elec       q    Type
REMARK                         _______ _______ _______ _____ _____    ______ ____
ROOT
ATOM      8  N   UNL     1      -0.929   0.410  25.229  0.00  0.00    -0.264 NA
ATOM      9  C   UNL     1      -0.587   0.187  24.511  0.00  0.00    +0.105 C 
ATOM     10  C   UNL     1      -0.113   0.634  24.006  0.00  0.00    +0.160 C 
ATOM     11  O   UNL     1       0.138   1.416  24.093  0.00  0.00    -0.348 OA
ATOM     12  C   UNL     1      -0.024   1.942  24.708  0.00  0.00    +0.187 C 
ATOM     13  C   UNL     1      -0.477   1.817  25.386  0.00  0.00    +0.211 C 
ATOM     14  C   UNL     1      -0.879   1.135  25.617  0.00  0.00    +0.119 C 
ENDROOT
BRANCH   8   7
ATOM      7  C   UNL     1      -1.378  -0.170  25.606  0.00  0.00    +0.101 C 
BRANCH   7   6
ATOM      3  C   UNL     1      -3.484  -0.969  24.579  0.00  0.00    +0.225 A 
ATOM      4  C   UNL     1      -3.487  -0.299  25.061  0.00  0.00    +0.057 A 
ATOM      5  C   UNL     1      -2.786  -0.033  25.403  0.00  0.00    +0.003 A 
ATOM      6  C   UNL     1      -2.080  -0.436  25.264  0.00  0.00    +0.013 A 
ATOM     22  C   UNL     1      -2.076  -1.106  24.781  0.00  0.00    +0.099 A 
ATOM     23  N   UNL     1      -2.777  -1.372  24.439  0.00  0.00    -0.210 NA
BRANCH   3   2
ATOM      1  C   UNL     1      -4.211  -1.973  23.868  0.00  0.00    +0.254 C 
ATOM      2  O   UNL     1      -4.185  -1.235  24.237  0.00  0.00    -0.456 OA
ENDBRANCH   3   2
ENDBRANCH   7   6
ENDBRANCH   8   7
BRANCH  13  15
ATOM     15  O   UNL     1      -0.536   2.460  25.901  0.00  0.00    -0.475 OA
BRANCH  15  16
ATOM     16  C   UNL     1      -0.959   3.130  25.676  0.00  0.00    +0.139 A 
ATOM     17  C   UNL     1      -1.760   3.195  25.865  0.00  0.00    +0.037 A 
ATOM     18  C   UNL     1      -2.184   3.866  25.640  0.00  0.00    +0.003 A 
ATOM     19  C   UNL     1      -1.808   4.472  25.225  0.00  0.00    +0.000 A 
ATOM     20  C   UNL     1      -1.008   4.408  25.036  0.00  0.00    +0.003 A 
ATOM     21  C   UNL     1      -0.584   3.736  25.261  0.00  0.00    +0.037 A 
ENDBRANCH  15  16
ENDBRANCH  13  15
TORSDOF 5
ENDMDL
MODEL 7
REMARK VINA RESULT:      -9.5      1.566      2.974
REMARK  Name = 
REMARK  5 active torsions:
REMARK  status: ('A' for Active; 'I' for Inactive)
REMARK    1  A    between atoms: O_2  and  C_3
REMARK    2  A    between atoms: C_6  and  C_7
REMARK    3  A    between atoms: C_7  and  N_8
REMARK    4  A    between atoms: C_13  and  O_15
REMARK    5  A    between atoms: O_15  and  C_16
REMARK                            x       y       z     vdW  Elec       q    Type
REMARK                         _______ _______ _______ _____ _____    ______ ____
ROOT
ATOM      8  N   UNL     1      -1.903   2.705  24.718  0.00  0.00    -0.264 NA
ATOM      9  C   UNL     1      -1.464   3.096  25.298  0.00  0.00    +0.105 C 
ATOM     10  C   UNL     1      -1.704   3.703  25.802  0.00  0.00    +0.160 C 
ATOM     11  O   UNL     1      -2.442   4.069  25.852  0.00  0.00    -0.348 OA
ATOM     12  C   UNL     1      -3.121   3.918  25.410  0.00  0.00    +0.187 C 
ATOM     13  C   UNL     1      -3.231   3.364  24.808  0.00  0.00    +0.211 C 
ATOM     14  C   UNL     1      -2.689   2.825  24.501  0.00  0.00    +0.119 C 
ENDROOT
BRANCH   8   7
ATOM      7  C   UNL     1      -1.501   2.117  24.302  0.00  0.00    +0.101 C 
BRANCH   7   6
ATOM      3  C   UNL     1      -1.219  -0.132  25.297  0.00  0.00    +0.225 A 
ATOM      4  C   UNL     1      -1.803  -0.002  24.728  0.00  0.00    +0.057 A 
ATOM      5  C   UNL     1      -1.897   0.746  24.397  0.00  0.00    +0.003 A 
ATOM      6  C   UNL     1      -1.407   1.367  24.634  0.00  0.00    +0.013 A 
ATOM     22  C   UNL     1      -0.823   1.237  25.203  0.00  0.00    +0.099 A 
ATOM     23  N   UNL     1      -0.729   0.489  25.534  0.00  0.00    -0.210 NA
BRANCH   3   2
ATOM      1  C   UNL     1      -0.679  -1.454  25.235  0.00  0.00    +0.254 C 
ATOM      2  O   UNL     1      -1.125  -0.882  25.628  0.00  0.00    -0.456 OA
ENDBRANCH   3   2
ENDBRANCH   7   6
ENDBRANCH   8   7
BRANCH  13  15
ATOM     15  O   UNL     1      -3.984   3.348  24.470  0.00  0.00    -0.475 OA
BRANCH  15  16
ATOM     16  C   UNL     1      -4.592   2.928  24.836  0.00  0.00    +0.139 A 
ATOM     17  C   UNL     1      -4.841   2.207  24.522  0.00  0.00    +0.037 A 
ATOM     18  C   UNL     1      -5.449   1.786  24.889  0.00  0.00    +0.003 A 
ATOM     19  C   UNL     1      -5.807   2.086  25.569  0.00  0.00    +0.000 A 
ATOM     20  C   UNL     1      -5.558   2.807  25.883  0.00  0.00    +0.003 A 
ATOM     21  C   UNL     1      -4.950   3.228  25.516  0.00  0.00    +0.037 A 
ENDBRANCH  15  16
ENDBRANCH  13  15
TORSDOF 5
ENDMDL
