MODEL 1
REMARK VINA RESULT:      -9.9      0.000      0.000
REMARK  Name = 
REMARK  7 active torsions:
REMARK  status: ('A' for Active; 'I' for Inactive)
REMARK    1  A    between atoms: O_2  and  C_3
REMARK    2  A    between atoms: C_3  and  C_4
REMARK    3  A    between atoms: C_4  and  N_5
REMARK    4  A    between atoms: N_5  and  C_6
REMARK    5  A    between atoms: C_9  and  C_12
REMARK    6  A    between atoms: C_15  and  C_17
REMARK    7  A    between atoms: N_21  and  C_22
REMARK                            x       y       z     vdW  Elec       q    Type
REMARK                         _______ _______ _______ _____ _____    ______ ____
ROOT
ATOM     12  C   UNL     1      -1.269   0.222  24.557  0.00  0.00    +0.205 A 
ATOM     13  N   UNL     1      -1.316   0.141  25.377  0.00  0.00    -0.056 NA
ATOM     14  O   UNL     1      -2.106   0.224  25.597  0.00  0.00    -0.336 OA
ATOM     15  C   UNL     1      -2.549   0.358  24.912  0.00  0.00    +0.251 A 
ATOM     16  N   UNL     1      -2.031   0.356  24.271  0.00  0.00    -0.190 NA
ENDROOT
BRANCH  12   9
ATOM      6  C   UNL     1       0.794   0.088  23.197  0.00  0.00    +0.148 A 
ATOM      7  C   UNL     1       0.462  -0.598  23.511  0.00  0.00    +0.036 A 
ATOM      8  C   UNL     1      -0.226  -0.553  23.964  0.00  0.00    +0.008 A 
ATOM      9  C   UNL     1      -0.582   0.178  24.104  0.00  0.00    +0.058 A 
ATOM     10  C   UNL     1      -0.249   0.865  23.790  0.00  0.00    +0.103 A 
ATOM     11  N   UNL     1       0.439   0.820  23.336  0.00  0.00    -0.228 NA
BRANCH   6   5
ATOM      5  N   UNL     1       1.482   0.044  22.744  0.00  0.00    -0.218 NA
BRANCH   5   4
ATOM      4  C   UNL     1       2.179   0.393  23.016  0.00  0.00    +0.146 C 
BRANCH   4   3
ATOM      3  C   UNL     1       2.886   0.274  22.608  0.00  0.00    +0.166 C 
BRANCH   3   2
ATOM      1  C   UNL     1       4.283   0.521  22.774  0.00  0.00    +0.174 C 
ATOM      2  O   UNL     1       3.511   0.803  22.704  0.00  0.00    -0.349 OA
ENDBRANCH   3   2
ENDBRANCH   4   3
ENDBRANCH   5   4
ENDBRANCH   6   5
ENDBRANCH  12   9
BRANCH  15  17
ATOM     17  C   UNL     1      -3.365   0.472  24.878  0.00  0.00    +0.138 C 
ATOM     18  C   UNL     1      -3.753   1.199  24.876  0.00  0.00    +0.027 C 
ATOM     19  C   UNL     1      -4.565   1.054  24.836  0.00  0.00    +0.019 C 
ATOM     20  C   UNL     1      -4.677   0.237  24.815  0.00  0.00    +0.072 C 
ATOM     21  N   UNL     1      -3.936  -0.123  24.841  0.00  0.00    -0.268 NA
BRANCH  21  22
ATOM     22  C   UNL     1      -3.790  -0.935  24.831  0.00  0.00    +0.058 C 
ATOM     23  C   UNL     1      -3.799  -1.346  24.115  0.00  0.00    +0.016 C 
ATOM     24  C   UNL     1      -3.653  -2.158  24.104  0.00  0.00    +0.001 C 
ATOM     25  C   UNL     1      -3.497  -2.559  24.809  0.00  0.00    +0.000 C 
ATOM     26  C   UNL     1      -3.488  -2.148  25.523  0.00  0.00    +0.001 C 
ATOM     27  C   UNL     1      -3.635  -1.335  25.534  0.00  0.00    +0.016 C 
ENDBRANCH  21  22
ENDBRANCH  15  17
TORSDOF 7
ENDMDL
MODEL 2
REMARK VINA RESULT:      -9.1      2.686      4.713
REMARK  Name = 
REMARK  7 active torsions:
REMARK  status: ('A' for Active; 'I' for Inactive)
REMARK    1  A    between atoms: O_2  and  C_3
REMARK    2  A    between atoms: C_3  and  C_4
REMARK    3  A    between atoms: C_4  and  N_5
REMARK    4  A    between atoms: N_5  and  C_6
REMARK    5  A    between atoms: C_9  and  C_12
REMARK    6  A    between atoms: C_15  and  C_17
REMARK    7  A    between atoms: N_21  and  C_22
REMARK                            x       y       z     vdW  Elec       q    Type
REMARK                         _______ _______ _______ _____ _____    ______ ____
ROOT
ATOM     12  C   UNL     1      -0.900   1.836  25.459  0.00  0.00    +0.205 A 
ATOM     13  N   UNL     1      -0.636   2.112  26.190  0.00  0.00    -0.056 NA
ATOM     14  O   UNL     1      -0.623   2.936  26.163  0.00  0.00    -0.336 OA
ATOM     15  C   UNL     1      -0.879   3.169  25.413  0.00  0.00    +0.251 A 
ATOM     16  N   UNL     1      -1.050   2.490  24.980  0.00  0.00    -0.190 NA
ENDROOT
BRANCH  12   9
ATOM      6  C   UNL     1      -1.191  -0.537  24.819  0.00  0.00    +0.148 A 
ATOM      7  C   UNL     1      -1.385  -0.289  25.581  0.00  0.00    +0.036 A 
ATOM      8  C   UNL     1      -1.288   0.502  25.794  0.00  0.00    +0.008 A 
ATOM      9  C   UNL     1      -0.997   1.045  25.246  0.00  0.00    +0.058 A 
ATOM     10  C   UNL     1      -0.803   0.796  24.483  0.00  0.00    +0.103 A 
ATOM     11  N   UNL     1      -0.899   0.005  24.269  0.00  0.00    -0.228 NA
BRANCH   6   5
ATOM      5  N   UNL     1      -1.288  -1.328  24.606  0.00  0.00    -0.218 NA
BRANCH   5   4
ATOM      4  C   UNL     1      -2.015  -1.701  24.720  0.00  0.00    +0.146 C 
BRANCH   4   3
ATOM      3  C   UNL     1      -2.171  -2.423  24.354  0.00  0.00    +0.166 C 
BRANCH   3   2
ATOM      1  C   UNL     1      -3.511  -2.905  24.239  0.00  0.00    +0.174 C 
ATOM      2  O   UNL     1      -2.784  -2.901  24.629  0.00  0.00    -0.349 OA
ENDBRANCH   3   2
ENDBRANCH   4   3
ENDBRANCH   5   4
ENDBRANCH   6   5
ENDBRANCH  12   9
BRANCH  15  17
ATOM     17  C   UNL     1      -0.951   3.947  25.147  0.00  0.00    +0.138 C 
ATOM     18  C   UNL     1      -0.344   4.413  24.841  0.00  0.00    +0.027 C 
ATOM     19  C   UNL     1      -0.662   5.149  24.645  0.00  0.00    +0.019 C 
ATOM     20  C   UNL     1      -1.466   5.137  24.830  0.00  0.00    +0.072 C 
ATOM     21  N   UNL     1      -1.645   4.395  25.140  0.00  0.00    -0.268 NA
BRANCH  21  22
ATOM     22  C   UNL     1      -2.387   4.142  25.398  0.00  0.00    +0.058 C 
ATOM     23  C   UNL     1      -2.920   3.814  24.860  0.00  0.00    +0.016 C 
ATOM     24  C   UNL     1      -3.662   3.561  25.118  0.00  0.00    +0.001 C 
ATOM     25  C   UNL     1      -3.871   3.636  25.913  0.00  0.00    +0.000 C 
ATOM     26  C   UNL     1      -3.338   3.964  26.450  0.00  0.00    +0.001 C 
ATOM     27  C   UNL     1      -2.596   4.217  26.192  0.00  0.00    +0.016 C 
ENDBRANCH  21  22
ENDBRANCH  15  17
TORSDOF 7
ENDMDL
MODEL 3
REMARK VINA RESULT:      -8.8      0.858      2.157
REMARK  Name = 
REMARK  7 active torsions:
REMARK  status: ('A' for Active; 'I' for Inactive)
REMARK    1  A    between atoms: O_2  and  C_3
REMARK    2  A    between atoms: C_3  and  C_4
REMARK    3  A    between atoms: C_4  and  N_5
REMARK    4  A    between atoms: N_5  and  C_6
REMARK    5  A    between atoms: C_9  and  C_12
REMARK    6  A    between atoms: C_15  and  C_17
REMARK    7  A    between atoms: N_21  and  C_22
REMARK                            x       y       z     vdW  Elec       q    Type
REMARK                         _______ _______ _______ _____ _____    ______ ____
ROOT
ATOM     12  C   UNL     1      -1.122   0.395  24.544  0.00  0.00    +0.205 A 
ATOM     13  N   UNL     1      -1.171   0.717  25.301  0.00  0.00    -0.056 NA
ATOM     14  O   UNL     1      -1.961   0.697  25.537  0.00  0.00    -0.336 OA
ATOM     15  C   UNL     1      -2.400   0.360  24.924  0.00  0.00    +0.251 A 
ATOM     16  N   UNL     1      -1.881   0.175  24.311  0.00  0.00    -0.190 NA
ENDROOT
BRANCH  12   9
ATOM      6  C   UNL     1       0.944   0.135  23.205  0.00  0.00    +0.148 A 
ATOM      7  C   UNL     1       0.650   0.888  23.368  0.00  0.00    +0.036 A 
ATOM      8  C   UNL     1      -0.038   0.975  23.814  0.00  0.00    +0.008 A 
ATOM      9  C   UNL     1      -0.433   0.308  24.098  0.00  0.00    +0.058 A 
ATOM     10  C   UNL     1      -0.139  -0.446  23.935  0.00  0.00    +0.103 A 
ATOM     11  N   UNL     1       0.549  -0.532  23.488  0.00  0.00    -0.228 NA
BRANCH   6   5
ATOM      5  N   UNL     1       1.632   0.048  22.759  0.00  0.00    -0.218 NA
BRANCH   5   4
ATOM      4  C   UNL     1       2.324   0.436  22.988  0.00  0.00    +0.146 C 
BRANCH   4   3
ATOM      3  C   UNL     1       3.034   0.279  22.597  0.00  0.00    +0.166 C 
BRANCH   3   2
ATOM      1  C   UNL     1       4.436   0.487  22.767  0.00  0.00    +0.174 C 
ATOM      2  O   UNL     1       3.674   0.791  22.684  0.00  0.00    -0.349 OA
ENDBRANCH   3   2
ENDBRANCH   4   3
ENDBRANCH   5   4
ENDBRANCH   6   5
ENDBRANCH  12   9
BRANCH  15  17
ATOM     17  C   UNL     1      -3.216   0.234  24.926  0.00  0.00    +0.138 C 
ATOM     18  C   UNL     1      -3.597  -0.470  25.125  0.00  0.00    +0.027 C 
ATOM     19  C   UNL     1      -4.410  -0.348  25.051  0.00  0.00    +0.019 C 
ATOM     20  C   UNL     1      -4.530   0.430  24.806  0.00  0.00    +0.072 C 
ATOM     21  N   UNL     1      -3.793   0.790  24.729  0.00  0.00    -0.268 NA
BRANCH  21  22
ATOM     22  C   UNL     1      -3.655   1.570  24.495  0.00  0.00    +0.058 C 
ATOM     23  C   UNL     1      -3.567   1.750  23.694  0.00  0.00    +0.016 C 
ATOM     24  C   UNL     1      -3.429   2.529  23.460  0.00  0.00    +0.001 C 
ATOM     25  C   UNL     1      -3.378   3.127  24.027  0.00  0.00    +0.000 C 
ATOM     26  C   UNL     1      -3.465   2.947  24.826  0.00  0.00    +0.001 C 
ATOM     27  C   UNL     1      -3.604   2.167  25.061  0.00  0.00    +0.016 C 
ENDBRANCH  21  22
ENDBRANCH  15  17
TORSDOF 7
ENDMDL
MODEL 4
REMARK VINA RESULT:      -8.6      1.935      3.291
REMARK  Name = 
REMARK  7 active torsions:
REMARK  status: ('A' for Active; 'I' for Inactive)
REMARK    1  A    between atoms: O_2  and  C_3
REMARK    2  A    between atoms: C_3  and  C_4
REMARK    3  A    between atoms: C_4  and  N_5
REMARK    4  A    between atoms: N_5  and  C_6
REMARK    5  A    between atoms: C_9  and  C_12
REMARK    6  A    between atoms: C_15  and  C_17
REMARK    7  A    between atoms: N_21  and  C_22
REMARK                            x       y       z     vdW  Elec       q    Type
REMARK                         _______ _______ _______ _____ _____    ______ ____
ROOT
ATOM     12  C   UNL     1      -2.764   1.405  23.971  0.00  0.00    +0.205 A 
ATOM     13  N   UNL     1      -3.175   1.735  23.337  0.00  0.00    -0.056 NA
ATOM     14  O   UNL     1      -3.892   2.027  23.621  0.00  0.00    -0.336 OA
ATOM     15  C   UNL     1      -3.924   1.877  24.433  0.00  0.00    +0.251 A 
ATOM     16  N   UNL     1      -3.227   1.494  24.648  0.00  0.00    -0.190 NA
ENDROOT
BRANCH  12   9
ATOM      6  C   UNL     1      -0.533   0.340  23.863  0.00  0.00    +0.148 A 
ATOM      7  C   UNL     1      -1.170  -0.070  24.189  0.00  0.00    +0.036 A 
ATOM      8  C   UNL     1      -1.913   0.285  24.225  0.00  0.00    +0.008 A 
ATOM      9  C   UNL     1      -2.020   1.050  23.935  0.00  0.00    +0.058 A 
ATOM     10  C   UNL     1      -1.382   1.460  23.609  0.00  0.00    +0.103 A 
ATOM     11  N   UNL     1      -0.638   1.105  23.573  0.00  0.00    -0.228 NA
BRANCH   6   5
ATOM      5  N   UNL     1       0.211  -0.016  23.827  0.00  0.00    -0.218 NA
BRANCH   5   4
ATOM      4  C   UNL     1       0.682   0.080  23.156  0.00  0.00    +0.146 C 
BRANCH   4   3
ATOM      3  C   UNL     1       1.466  -0.179  23.161  0.00  0.00    +0.166 C 
BRANCH   3   2
ATOM      1  C   UNL     1       2.714   0.136  22.543  0.00  0.00    +0.174 C 
ATOM      2  O   UNL     1       1.928  -0.108  22.482  0.00  0.00    -0.349 OA
ENDBRANCH   3   2
ENDBRANCH   4   3
ENDBRANCH   5   4
ENDBRANCH   6   5
ENDBRANCH  12   9
BRANCH  15  17
ATOM     17  C   UNL     1      -4.545   2.077  24.938  0.00  0.00    +0.138 C 
ATOM     18  C   UNL     1      -5.222   1.628  25.075  0.00  0.00    +0.027 C 
ATOM     19  C   UNL     1      -5.693   2.036  25.617  0.00  0.00    +0.019 C 
ATOM     20  C   UNL     1      -5.305   2.737  25.813  0.00  0.00    +0.072 C 
ATOM     21  N   UNL     1      -4.596   2.763  25.395  0.00  0.00    -0.268 NA
BRANCH  21  22
ATOM     22  C   UNL     1      -4.035   3.368  25.425  0.00  0.00    +0.058 C 
ATOM     23  C   UNL     1      -4.034   3.957  24.847  0.00  0.00    +0.016 C 
ATOM     24  C   UNL     1      -3.473   4.562  24.877  0.00  0.00    +0.001 C 
ATOM     25  C   UNL     1      -2.914   4.577  25.484  0.00  0.00    +0.000 C 
ATOM     26  C   UNL     1      -2.916   3.988  26.061  0.00  0.00    +0.001 C 
ATOM     27  C   UNL     1      -3.477   3.383  26.031  0.00  0.00    +0.016 C 
ENDBRANCH  21  22
ENDBRANCH  15  17
TORSDOF 7
ENDMDL
MODEL 5
REMARK VINA RESULT:      -8.6      3.074      5.155
REMARK  Name = 
REMARK  7 active torsions:
REMARK  status: ('A' for Active; 'I' for Inactive)
REMARK    1  A    between atoms: O_2  and  C_3
REMARK    2  A    between atoms: C_3  and  C_4
REMARK    3  A    between atoms: C_4  and  N_5
REMARK    4  A    between atoms: N_5  and  C_6
REMARK    5  A    between atoms: C_9  and  C_12
REMARK    6  A    between atoms: C_15  and  C_17
REMARK    7  A    between atoms: N_21  and  C_22
REMARK                            x       y       z     vdW  Elec       q    Type
REMARK                         _______ _______ _______ _____ _____    ______ ____
ROOT
ATOM     12  C   UNL     1      -3.586   1.905  24.352  0.00  0.00    +0.205 A 
ATOM     13  N   UNL     1      -3.526   2.460  23.744  0.00  0.00    -0.056 NA
ATOM     14  O   UNL     1      -3.326   3.186  24.079  0.00  0.00    -0.336 OA
ATOM     15  C   UNL     1      -3.262   3.080  24.896  0.00  0.00    +0.251 A 
ATOM     16  N   UNL     1      -3.422   2.289  25.063  0.00  0.00    -0.190 NA
ENDROOT
BRANCH  12   9
ATOM      6  C   UNL     1      -4.155  -0.489  24.087  0.00  0.00    +0.148 A 
ATOM      7  C   UNL     1      -4.538  -0.035  24.659  0.00  0.00    +0.036 A 
ATOM      8  C   UNL     1      -4.348   0.763  24.747  0.00  0.00    +0.008 A 
ATOM      9  C   UNL     1      -3.776   1.107  24.263  0.00  0.00    +0.058 A 
ATOM     10  C   UNL     1      -3.392   0.653  23.690  0.00  0.00    +0.103 A 
ATOM     11  N   UNL     1      -3.582  -0.145  23.602  0.00  0.00    -0.228 NA
BRANCH   6   5
ATOM      5  N   UNL     1      -4.345  -1.287  23.998  0.00  0.00    -0.218 NA
BRANCH   5   4
ATOM      4  C   UNL     1      -3.838  -1.867  24.296  0.00  0.00    +0.146 C 
BRANCH   4   3
ATOM      3  C   UNL     1      -3.974  -2.662  24.121  0.00  0.00    +0.166 C 
BRANCH   3   2
ATOM      1  C   UNL     1      -2.800  -3.356  24.546  0.00  0.00    +0.174 C 
ATOM      2  O   UNL     1      -3.618  -3.250  24.576  0.00  0.00    -0.349 OA
ENDBRANCH   3   2
ENDBRANCH   4   3
ENDBRANCH   5   4
ENDBRANCH   6   5
ENDBRANCH  12   9
BRANCH  15  17
ATOM     17  C   UNL     1      -3.070   3.664  25.446  0.00  0.00    +0.138 C 
ATOM     18  C   UNL     1      -3.605   4.144  25.850  0.00  0.00    +0.027 C 
ATOM     19  C   UNL     1      -3.174   4.647  26.342  0.00  0.00    +0.019 C 
ATOM     20  C   UNL     1      -2.373   4.477  26.242  0.00  0.00    +0.072 C 
ATOM     21  N   UNL     1      -2.308   3.870  25.689  0.00  0.00    -0.268 NA
BRANCH  21  22
ATOM     22  C   UNL     1      -1.606   3.527  25.423  0.00  0.00    +0.058 C 
ATOM     23  C   UNL     1      -1.272   2.898  25.840  0.00  0.00    +0.016 C 
ATOM     24  C   UNL     1      -0.570   2.555  25.575  0.00  0.00    +0.001 C 
ATOM     25  C   UNL     1      -0.203   2.840  24.893  0.00  0.00    +0.000 C 
ATOM     26  C   UNL     1      -0.537   3.469  24.477  0.00  0.00    +0.001 C 
ATOM     27  C   UNL     1      -1.239   3.812  24.742  0.00  0.00    +0.016 C 
ENDBRANCH  21  22
ENDBRANCH  15  17
TORSDOF 7
ENDMDL
MODEL 6
REMARK VINA RESULT:      -8.3      2.758      3.329
REMARK  Name = 
REMARK  7 active torsions:
REMARK  status: ('A' for Active; 'I' for Inactive)
REMARK    1  A    between atoms: O_2  and  C_3
REMARK    2  A    between atoms: C_3  and  C_4
REMARK    3  A    between atoms: C_4  and  N_5
REMARK    4  A    between atoms: N_5  and  C_6
REMARK    5  A    between atoms: C_9  and  C_12
REMARK    6  A    between atoms: C_15  and  C_17
REMARK    7  A    between atoms: N_21  and  C_22
REMARK                            x       y       z     vdW  Elec       q    Type
REMARK                         _______ _______ _______ _____ _____    ______ ____
ROOT
ATOM     12  C   UNL     1      -2.229   2.068  24.894  0.00  0.00    +0.205 A 
ATOM     13  N   UNL     1      -2.302   1.989  24.077  0.00  0.00    -0.056 NA
ATOM     14  O   UNL     1      -3.097   1.864  23.902  0.00  0.00    -0.336 OA
ATOM     15  C   UNL     1      -3.518   1.867  24.613  0.00  0.00    +0.251 A 
ATOM     16  N   UNL     1      -2.980   1.993  25.225  0.00  0.00    -0.190 NA
ENDROOT
BRANCH  12   9
ATOM      6  C   UNL     1      -0.124   2.463  26.136  0.00  0.00    +0.148 A 
ATOM      7  C   UNL     1      -0.667   3.076  26.040  0.00  0.00    +0.036 A 
ATOM      8  C   UNL     1      -1.369   2.944  25.626  0.00  0.00    +0.008 A 
ATOM      9  C   UNL     1      -1.527   2.200  25.308  0.00  0.00    +0.058 A 
ATOM     10  C   UNL     1      -0.983   1.586  25.405  0.00  0.00    +0.103 A 
ATOM     11  N   UNL     1      -0.282   1.718  25.819  0.00  0.00    -0.228 NA
BRANCH   6   5
ATOM      5  N   UNL     1       0.577   2.595  26.550  0.00  0.00    -0.218 NA
BRANCH   5   4
ATOM      4  C   UNL     1       0.592   2.520  27.372  0.00  0.00    +0.146 C 
BRANCH   4   3
ATOM      3  C   UNL     1       1.294   2.649  27.786  0.00  0.00    +0.166 C 
BRANCH   3   2
ATOM      1  C   UNL     1       2.015   2.673  29.019  0.00  0.00    +0.174 C 
ATOM      2  O   UNL     1       1.328   2.500  28.596  0.00  0.00    -0.349 OA
ENDBRANCH   3   2
ENDBRANCH   4   3
ENDBRANCH   5   4
ENDBRANCH   6   5
ENDBRANCH  12   9
BRANCH  15  17
ATOM     17  C   UNL     1      -4.332   1.762  24.695  0.00  0.00    +0.138 C 
ATOM     18  C   UNL     1      -4.897   2.360  24.729  0.00  0.00    +0.027 C 
ATOM     19  C   UNL     1      -5.638   2.006  24.812  0.00  0.00    +0.019 C 
ATOM     20  C   UNL     1      -5.529   1.189  24.829  0.00  0.00    +0.072 C 
ATOM     21  N   UNL     1      -4.723   1.037  24.757  0.00  0.00    -0.268 NA
BRANCH  21  22
ATOM     22  C   UNL     1      -4.367   0.292  24.748  0.00  0.00    +0.058 C 
ATOM     23  C   UNL     1      -4.156  -0.071  25.459  0.00  0.00    +0.016 C 
ATOM     24  C   UNL     1      -3.800  -0.815  25.451  0.00  0.00    +0.001 C 
ATOM     25  C   UNL     1      -3.655  -1.196  24.733  0.00  0.00    +0.000 C 
ATOM     26  C   UNL     1      -3.867  -0.833  24.024  0.00  0.00    +0.001 C 
ATOM     27  C   UNL     1      -4.223  -0.088  24.032  0.00  0.00    +0.016 C 
ENDBRANCH  21  22
ENDBRANCH  15  17
TORSDOF 7
ENDMDL
MODEL 7
REMARK VINA RESULT:      -8.2      2.346      3.450
REMARK  Name = 
REMARK  7 active torsions:
REMARK  status: ('A' for Active; 'I' for Inactive)
REMARK    1  A    between atoms: O_2  and  C_3
REMARK    2  A    between atoms: C_3  and  C_4
REMARK    3  A    between atoms: C_4  and  N_5
REMARK    4  A    between atoms: N_5  and  C_6
REMARK    5  A    between atoms: C_9  and  C_12
REMARK    6  A    between atoms: C_15  and  C_17
REMARK    7  A    between atoms: N_21  and  C_22
REMARK                            x       y       z     vdW  Elec       q    Type
REMARK                         _______ _______ _______ _____ _____    ______ ____
ROOT
ATOM     12  C   UNL     1      -1.029   0.268  25.302  0.00  0.00    +0.205 A 
ATOM     13  N   UNL     1      -0.953  -0.132  26.020  0.00  0.00    -0.056 NA
ATOM     14  O   UNL     1      -1.217  -0.905  25.912  0.00  0.00    -0.336 OA
ATOM     15  C   UNL     1      -1.458  -0.984  25.125  0.00  0.00    +0.251 A 
ATOM     16  N   UNL     1      -1.342  -0.259  24.750  0.00  0.00    -0.190 NA
ENDROOT
BRANCH  12   9
ATOM      6  C   UNL     1      -0.428   2.631  24.880  0.00  0.00    +0.148 A 
ATOM      7  C   UNL     1      -0.505   2.106  24.249  0.00  0.00    +0.036 A 
ATOM      8  C   UNL     1      -0.705   1.319  24.389  0.00  0.00    +0.008 A 
ATOM      9  C   UNL     1      -0.829   1.055  25.161  0.00  0.00    +0.058 A 
ATOM     10  C   UNL     1      -0.752   1.581  25.793  0.00  0.00    +0.103 A 
ATOM     11  N   UNL     1      -0.551   2.369  25.653  0.00  0.00    -0.228 NA
BRANCH   6   5
ATOM      5  N   UNL     1      -0.228   3.419  24.739  0.00  0.00    -0.218 NA
BRANCH   5   4
ATOM      4  C   UNL     1      -0.710   4.025  25.025  0.00  0.00    +0.146 C 
BRANCH   4   3
ATOM      3  C   UNL     1      -0.687   4.771  24.674  0.00  0.00    +0.166 C 
BRANCH   3   2
ATOM      1  C   UNL     1      -1.759   5.627  25.071  0.00  0.00    +0.174 C 
ATOM      2  O   UNL     1      -0.958   5.430  25.088  0.00  0.00    -0.349 OA
ENDBRANCH   3   2
ENDBRANCH   4   3
ENDBRANCH   5   4
ENDBRANCH   6   5
ENDBRANCH  12   9
BRANCH  15  17
ATOM     17  C   UNL     1      -1.761  -1.668  24.779  0.00  0.00    +0.138 C 
ATOM     18  C   UNL     1      -1.322  -2.314  24.514  0.00  0.00    +0.027 C 
ATOM     19  C   UNL     1      -1.848  -2.871  24.208  0.00  0.00    +0.019 C 
ATOM     20  C   UNL     1      -2.612  -2.569  24.283  0.00  0.00    +0.072 C 
ATOM     21  N   UNL     1      -2.559  -1.826  24.635  0.00  0.00    -0.268 NA
BRANCH  21  22
ATOM     22  C   UNL     1      -3.191  -1.327  24.814  0.00  0.00    +0.058 C 
ATOM     23  C   UNL     1      -3.530  -0.864  24.221  0.00  0.00    +0.016 C 
ATOM     24  C   UNL     1      -4.163  -0.364  24.399  0.00  0.00    +0.001 C 
ATOM     25  C   UNL     1      -4.455  -0.327  25.170  0.00  0.00    +0.000 C 
ATOM     26  C   UNL     1      -4.116  -0.790  25.762  0.00  0.00    +0.001 C 
ATOM     27  C   UNL     1      -3.484  -1.290  25.584  0.00  0.00    +0.016 C 
ENDBRANCH  21  22
ENDBRANCH  15  17
TORSDOF 7
ENDMDL
MODEL 8
REMARK VINA RESULT:      -8.2      3.067      4.101
REMARK  Name = 
REMARK  7 active torsions:
REMARK  status: ('A' for Active; 'I' for Inactive)
REMARK    1  A    between atoms: O_2  and  C_3
REMARK    2  A    between atoms: C_3  and  C_4
REMARK    3  A    between atoms: C_4  and  N_5
REMARK    4  A    between atoms: N_5  and  C_6
REMARK    5  A    between atoms: C_9  and  C_12
REMARK    6  A    between atoms: C_15  and  C_17
REMARK    7  A    between atoms: N_21  and  C_22
REMARK                            x       y       z     vdW  Elec       q    Type
REMARK                         _______ _______ _______ _____ _____    ______ ____
ROOT
ATOM     12  C   UNL     1      -4.058   0.938  24.760  0.00  0.00    +0.205 A 
ATOM     13  N   UNL     1      -4.671   0.668  25.241  0.00  0.00    -0.056 NA
ATOM     14  O   UNL     1      -4.734  -0.148  25.140  0.00  0.00    -0.336 OA
ATOM     15  C   UNL     1      -4.159  -0.382  24.596  0.00  0.00    +0.251 A 
ATOM     16  N   UNL     1      -3.742   0.289  24.362  0.00  0.00    -0.190 NA
ENDROOT
BRANCH  12   9
ATOM      6  C   UNL     1      -3.301   3.285  24.549  0.00  0.00    +0.148 A 
ATOM      7  C   UNL     1      -3.308   2.794  23.887  0.00  0.00    +0.036 A 
ATOM      8  C   UNL     1      -3.561   2.011  23.958  0.00  0.00    +0.008 A 
ATOM      9  C   UNL     1      -3.806   1.721  24.690  0.00  0.00    +0.058 A 
ATOM     10  C   UNL     1      -3.799   2.213  25.352  0.00  0.00    +0.103 A 
ATOM     11  N   UNL     1      -3.546   2.996  25.282  0.00  0.00    -0.228 NA
BRANCH   6   5
ATOM      5  N   UNL     1      -3.049   4.068  24.479  0.00  0.00    -0.218 NA
BRANCH   5   4
ATOM      4  C   UNL     1      -2.431   4.346  24.950  0.00  0.00    +0.146 C 
BRANCH   4   3
ATOM      3  C   UNL     1      -2.023   5.030  24.735  0.00  0.00    +0.166 C 
BRANCH   3   2
ATOM      1  C   UNL     1      -0.632   5.319  24.881  0.00  0.00    +0.174 C 
ATOM      2  O   UNL     1      -1.395   5.298  25.196  0.00  0.00    -0.349 OA
ENDBRANCH   3   2
ENDBRANCH   4   3
ENDBRANCH   5   4
ENDBRANCH   6   5
ENDBRANCH  12   9
BRANCH  15  17
ATOM     17  C   UNL     1      -4.026  -1.153  24.334  0.00  0.00    +0.138 C 
ATOM     18  C   UNL     1      -4.480  -1.563  23.782  0.00  0.00    +0.027 C 
ATOM     19  C   UNL     1      -4.149  -2.313  23.686  0.00  0.00    +0.019 C 
ATOM     20  C   UNL     1      -3.490  -2.366  24.179  0.00  0.00    +0.072 C 
ATOM     21  N   UNL     1      -3.413  -1.650  24.580  0.00  0.00    -0.268 NA
BRANCH  21  22
ATOM     22  C   UNL     1      -2.828  -1.460  25.130  0.00  0.00    +0.058 C 
ATOM     23  C   UNL     1      -2.083  -1.216  24.870  0.00  0.00    +0.016 C 
ATOM     24  C   UNL     1      -1.497  -1.027  25.420  0.00  0.00    +0.001 C 
ATOM     25  C   UNL     1      -1.656  -1.082  26.228  0.00  0.00    +0.000 C 
ATOM     26  C   UNL     1      -2.400  -1.326  26.487  0.00  0.00    +0.001 C 
ATOM     27  C   UNL     1      -2.986  -1.515  25.937  0.00  0.00    +0.016 C 
ENDBRANCH  21  22
ENDBRANCH  15  17
TORSDOF 7
ENDMDL
