MODEL 1
REMARK VINA RESULT:     -11.8      0.000      0.000
REMARK  Name = 
REMARK  6 active torsions:
REMARK  status: ('A' for Active; 'I' for Inactive)
REMARK    1  A    between atoms: O_2  and  C_3
REMARK    2  A    between atoms: C_3  and  C_4
REMARK    3  A    between atoms: C_6  and  C_7
REMARK    4  A    between atoms: C_7  and  C_8
REMARK    5  A    between atoms: C_10  and  N_11
REMARK    6  A    between atoms: C_12  and  C_14
REMARK                            x       y       z     vdW  Elec       q    Type
REMARK                         _______ _______ _______ _____ _____    ______ ____
ROOT
ATOM      8  C   UNL     1      -4.523   2.317  25.042  0.00  0.00    +0.009 C 
ATOM      9  C   UNL     1      -3.938   1.744  24.941  0.00  0.00    +0.022 C 
ATOM     10  C   UNL     1      -4.517   1.156  24.938  0.00  0.00    +0.096 C 
ATOM     20  C   UNL     1      -5.100   1.729  25.039  0.00  0.00    +0.019 C 
ATOM     21  C   UNL     1      -5.799   1.291  25.060  0.00  0.00    +0.002 C 
ATOM     22  C   UNL     1      -5.803   2.150  25.137  0.00  0.00    +0.002 C 
ENDROOT
BRANCH  10  11
ATOM     11  N   UNL     1      -4.512   0.334  24.865  0.00  0.00    -0.203 NA
ATOM     12  C   UNL     1      -3.810  -0.061  24.686  0.00  0.00    +0.265 C 
ATOM     13  O   UNL     1      -3.112   0.367  24.581  0.00  0.00    -0.268 OA
BRANCH  12  14
ATOM     14  C   UNL     1      -3.806  -0.883  24.613  0.00  0.00    +0.055 A 
ATOM     15  C   UNL     1      -4.118  -1.238  23.937  0.00  0.00    +0.005 A 
ATOM     16  C   UNL     1      -4.114  -2.059  23.864  0.00  0.00    +0.000 A 
ATOM     17  C   UNL     1      -3.797  -2.526  24.466  0.00  0.00    +0.000 A 
ATOM     18  C   UNL     1      -3.484  -2.170  25.142  0.00  0.00    +0.000 A 
ATOM     19  C   UNL     1      -3.489  -1.349  25.215  0.00  0.00    +0.005 A 
ENDBRANCH  12  14
ENDBRANCH  10  11
BRANCH   8   7
ATOM      7  C   UNL     1      -4.527   3.139  25.115  0.00  0.00    +0.049 C 
BRANCH   7   6
ATOM      4  C   UNL     1      -2.701   4.218  25.358  0.00  0.00    +0.184 A 
ATOM      5  C   UNL     1      -3.285   3.888  24.877  0.00  0.00    +0.056 A 
ATOM      6  C   UNL     1      -3.848   3.535  25.365  0.00  0.00    +0.100 A 
ATOM     23  N   UNL     1      -3.612   3.646  26.149  0.00  0.00    -0.082 NA
ATOM     24  O   UNL     1      -2.904   4.069  26.144  0.00  0.00    -0.356 OA
BRANCH   4   3
ATOM      3  C   UNL     1      -2.033   4.626  25.100  0.00  0.00    +0.209 C 
BRANCH   3   2
ATOM      1  C   UNL     1      -0.619   4.671  24.897  0.00  0.00    +0.175 C 
ATOM      2  O   UNL     1      -1.281   4.321  25.243  0.00  0.00    -0.343 OA
ENDBRANCH   3   2
ENDBRANCH   4   3
ENDBRANCH   7   6
ENDBRANCH   8   7
TORSDOF 6
ENDMDL
MODEL 2
REMARK VINA RESULT:     -10.9      1.159      4.872
REMARK  Name = 
REMARK  6 active torsions:
REMARK  status: ('A' for Active; 'I' for Inactive)
REMARK    1  A    between atoms: O_2  and  C_3
REMARK    2  A    between atoms: C_3  and  C_4
REMARK    3  A    between atoms: C_6  and  C_7
REMARK    4  A    between atoms: C_7  and  C_8
REMARK    5  A    between atoms: C_10  and  N_11
REMARK    6  A    between atoms: C_12  and  C_14
REMARK                            x       y       z     vdW  Elec       q    Type
REMARK                         _______ _______ _______ _____ _____    ______ ____
ROOT
ATOM      8  C   UNL     1      -4.111   1.201  24.788  0.00  0.00    +0.009 C 
ATOM      9  C   UNL     1      -3.314   1.398  24.864  0.00  0.00    +0.022 C 
ATOM     10  C   UNL     1      -3.504   2.197  24.783  0.00  0.00    +0.096 C 
ATOM     20  C   UNL     1      -4.301   2.000  24.708  0.00  0.00    +0.019 C 
ATOM     21  C   UNL     1      -4.672   2.730  24.612  0.00  0.00    +0.002 C 
ATOM     22  C   UNL     1      -5.121   1.994  24.616  0.00  0.00    +0.002 C 
ENDROOT
BRANCH  10  11
ATOM     11  N   UNL     1      -3.075   2.901  24.780  0.00  0.00    -0.203 NA
ATOM     12  C   UNL     1      -2.293   2.910  25.046  0.00  0.00    +0.265 C 
ATOM     13  O   UNL     1      -1.943   2.213  25.316  0.00  0.00    -0.268 OA
BRANCH  12  14
ATOM     14  C   UNL     1      -1.864   3.614  25.043  0.00  0.00    +0.055 A 
ATOM     15  C   UNL     1      -2.178   4.290  25.394  0.00  0.00    +0.005 A 
ATOM     16  C   UNL     1      -1.749   4.994  25.391  0.00  0.00    +0.000 A 
ATOM     17  C   UNL     1      -1.005   5.023  25.036  0.00  0.00    +0.000 A 
ATOM     18  C   UNL     1      -0.690   4.345  24.684  0.00  0.00    +0.000 A 
ATOM     19  C   UNL     1      -1.120   3.641  24.688  0.00  0.00    +0.005 A 
ENDBRANCH  12  14
ENDBRANCH  10  11
BRANCH   8   7
ATOM      7  C   UNL     1      -4.541   0.497  24.792  0.00  0.00    +0.049 C 
BRANCH   7   6
ATOM      4  C   UNL     1      -3.548  -1.390  24.890  0.00  0.00    +0.184 A 
ATOM      5  C   UNL     1      -3.872  -0.768  24.455  0.00  0.00    +0.056 A 
ATOM      6  C   UNL     1      -4.169  -0.213  24.988  0.00  0.00    +0.100 A 
ATOM     23  N   UNL     1      -4.029  -0.491  25.752  0.00  0.00    -0.082 NA
ATOM     24  O   UNL     1      -3.646  -1.219  25.692  0.00  0.00    -0.356 OA
BRANCH   4   3
ATOM      3  C   UNL     1      -3.190  -2.065  24.579  0.00  0.00    +0.209 C 
BRANCH   3   2
ATOM      1  C   UNL     1      -2.010  -2.820  24.296  0.00  0.00    +0.175 C 
ATOM      2  O   UNL     1      -2.375  -2.168  24.646  0.00  0.00    -0.343 OA
ENDBRANCH   3   2
ENDBRANCH   4   3
ENDBRANCH   7   6
ENDBRANCH   8   7
TORSDOF 6
ENDMDL
MODEL 3
REMARK VINA RESULT:     -10.1      2.238      2.997
REMARK  Name = 
REMARK  6 active torsions:
REMARK  status: ('A' for Active; 'I' for Inactive)
REMARK    1  A    between atoms: O_2  and  C_3
REMARK    2  A    between atoms: C_3  and  C_4
REMARK    3  A    between atoms: C_6  and  C_7
REMARK    4  A    between atoms: C_7  and  C_8
REMARK    5  A    between atoms: C_10  and  N_11
REMARK    6  A    between atoms: C_12  and  C_14
REMARK                            x       y       z     vdW  Elec       q    Type
REMARK                         _______ _______ _______ _____ _____    ______ ____
ROOT
ATOM      8  C   UNL     1      -0.705   0.876  24.789  0.00  0.00    +0.009 C 
ATOM      9  C   UNL     1      -1.480   0.662  24.977  0.00  0.00    +0.022 C 
ATOM     10  C   UNL     1      -1.384  -0.045  24.563  0.00  0.00    +0.096 C 
ATOM     20  C   UNL     1      -0.610   0.170  24.375  0.00  0.00    +0.019 C 
ATOM     21  C   UNL     1      -0.337  -0.468  23.928  0.00  0.00    +0.002 C 
ATOM     22  C   UNL     1       0.165   0.213  24.095  0.00  0.00    +0.002 C 
ENDROOT
BRANCH  10  11
ATOM     11  N   UNL     1      -1.864  -0.696  24.403  0.00  0.00    -0.203 NA
ATOM     12  C   UNL     1      -2.622  -0.740  24.726  0.00  0.00    +0.265 C 
ATOM     13  O   UNL     1      -2.900  -0.131  25.209  0.00  0.00    -0.268 OA
BRANCH  12  14
ATOM     14  C   UNL     1      -3.102  -1.391  24.567  0.00  0.00    +0.055 A 
ATOM     15  C   UNL     1      -2.956  -2.112  24.939  0.00  0.00    +0.005 A 
ATOM     16  C   UNL     1      -3.436  -2.764  24.780  0.00  0.00    +0.000 A 
ATOM     17  C   UNL     1      -4.062  -2.695  24.247  0.00  0.00    +0.000 A 
ATOM     18  C   UNL     1      -4.208  -1.973  23.874  0.00  0.00    +0.000 A 
ATOM     19  C   UNL     1      -3.728  -1.321  24.034  0.00  0.00    +0.005 A 
ENDBRANCH  12  14
ENDBRANCH  10  11
BRANCH   8   7
ATOM      7  C   UNL     1      -0.225   1.528  24.948  0.00  0.00    +0.049 C 
BRANCH   7   6
ATOM      4  C   UNL     1      -1.124   3.369  25.546  0.00  0.00    +0.184 A 
ATOM      5  C   UNL     1      -0.888   2.840  24.959  0.00  0.00    +0.056 A 
ATOM      6  C   UNL     1      -0.540   2.190  25.327  0.00  0.00    +0.100 A 
ATOM     23  N   UNL     1      -0.561   2.316  26.143  0.00  0.00    -0.082 NA
ATOM     24  O   UNL     1      -0.922   3.045  26.278  0.00  0.00    -0.356 OA
BRANCH   4   3
ATOM      3  C   UNL     1      -1.497   4.094  25.424  0.00  0.00    +0.209 C 
BRANCH   3   2
ATOM      1  C   UNL     1      -1.429   5.474  25.058  0.00  0.00    +0.175 C 
ATOM      2  O   UNL     1      -1.069   4.736  25.131  0.00  0.00    -0.343 OA
ENDBRANCH   3   2
ENDBRANCH   4   3
ENDBRANCH   7   6
ENDBRANCH   8   7
TORSDOF 6
ENDMDL
MODEL 4
REMARK VINA RESULT:      -9.9      2.160      4.445
REMARK  Name = 
REMARK  6 active torsions:
REMARK  status: ('A' for Active; 'I' for Inactive)
REMARK    1  A    between atoms: O_2  and  C_3
REMARK    2  A    between atoms: C_3  and  C_4
REMARK    3  A    between atoms: C_6  and  C_7
REMARK    4  A    between atoms: C_7  and  C_8
REMARK    5  A    between atoms: C_10  and  N_11
REMARK    6  A    between atoms: C_12  and  C_14
REMARK                            x       y       z     vdW  Elec       q    Type
REMARK                         _______ _______ _______ _____ _____    ______ ____
ROOT
ATOM      8  C   UNL     1      -2.916  -1.237  24.657  0.00  0.00    +0.009 C 
ATOM      9  C   UNL     1      -2.958  -0.466  24.946  0.00  0.00    +0.022 C 
ATOM     10  C   UNL     1      -3.756  -0.434  24.741  0.00  0.00    +0.096 C 
ATOM     20  C   UNL     1      -3.714  -1.205  24.453  0.00  0.00    +0.019 C 
ATOM     21  C   UNL     1      -4.481  -1.353  24.187  0.00  0.00    +0.002 C 
ATOM     22  C   UNL     1      -3.859  -1.947  24.125  0.00  0.00    +0.002 C 
ENDROOT
BRANCH  10  11
ATOM     11  N   UNL     1      -4.351   0.135  24.801  0.00  0.00    -0.203 NA
ATOM     12  C   UNL     1      -4.161   0.911  25.011  0.00  0.00    +0.265 C 
ATOM     13  O   UNL     1      -3.376   1.117  25.160  0.00  0.00    -0.268 OA
BRANCH  12  14
ATOM     14  C   UNL     1      -4.756   1.480  25.071  0.00  0.00    +0.055 A 
ATOM     15  C   UNL     1      -5.416   1.337  25.542  0.00  0.00    +0.005 A 
ATOM     16  C   UNL     1      -6.011   1.905  25.602  0.00  0.00    +0.000 A 
ATOM     17  C   UNL     1      -5.945   2.617  25.191  0.00  0.00    +0.000 A 
ATOM     18  C   UNL     1      -5.283   2.760  24.718  0.00  0.00    +0.000 A 
ATOM     19  C   UNL     1      -4.688   2.191  24.658  0.00  0.00    +0.005 A 
ENDBRANCH  12  14
ENDBRANCH  10  11
BRANCH   8   7
ATOM      7  C   UNL     1      -2.321  -1.806  24.597  0.00  0.00    +0.049 C 
BRANCH   7   6
ATOM      4  C   UNL     1      -0.299  -1.175  24.340  0.00  0.00    +0.184 A 
ATOM      5  C   UNL     1      -1.045  -1.346  24.033  0.00  0.00    +0.056 A 
ATOM      6  C   UNL     1      -1.529  -1.583  24.656  0.00  0.00    +0.100 A 
ATOM     23  N   UNL     1      -1.083  -1.559  25.350  0.00  0.00    -0.082 NA
ATOM     24  O   UNL     1      -0.322  -1.307  25.155  0.00  0.00    -0.356 OA
BRANCH   4   3
ATOM      3  C   UNL     1       0.356  -0.917  23.911  0.00  0.00    +0.209 C 
BRANCH   3   2
ATOM      1  C   UNL     1       0.986   0.061  23.081  0.00  0.00    +0.175 C 
ATOM      2  O   UNL     1       0.337  -0.189  23.524  0.00  0.00    -0.343 OA
ENDBRANCH   3   2
ENDBRANCH   4   3
ENDBRANCH   7   6
ENDBRANCH   8   7
TORSDOF 6
ENDMDL
MODEL 5
REMARK VINA RESULT:      -9.6      1.428      2.436
REMARK  Name = 
REMARK  6 active torsions:
REMARK  status: ('A' for Active; 'I' for Inactive)
REMARK    1  A    between atoms: O_2  and  C_3
REMARK    2  A    between atoms: C_3  and  C_4
REMARK    3  A    between atoms: C_6  and  C_7
REMARK    4  A    between atoms: C_7  and  C_8
REMARK    5  A    between atoms: C_10  and  N_11
REMARK    6  A    between atoms: C_12  and  C_14
REMARK                            x       y       z     vdW  Elec       q    Type
REMARK                         _______ _______ _______ _____ _____    ______ ____
ROOT
ATOM      8  C   UNL     1      -2.444   1.781  24.373  0.00  0.00    +0.009 C 
ATOM      9  C   UNL     1      -3.055   1.270  24.590  0.00  0.00    +0.022 C 
ATOM     10  C   UNL     1      -2.616   0.630  24.311  0.00  0.00    +0.096 C 
ATOM     20  C   UNL     1      -2.006   1.141  24.095  0.00  0.00    +0.019 C 
ATOM     21  C   UNL     1      -1.438   0.638  23.773  0.00  0.00    +0.002 C 
ATOM     22  C   UNL     1      -1.311   1.489  23.820  0.00  0.00    +0.002 C 
ENDROOT
BRANCH  10  11
ATOM     11  N   UNL     1      -2.737  -0.185  24.266  0.00  0.00    -0.203 NA
ATOM     12  C   UNL     1      -3.444  -0.513  24.540  0.00  0.00    +0.265 C 
ATOM     13  O   UNL     1      -4.028  -0.025  24.858  0.00  0.00    -0.268 OA
BRANCH  12  14
ATOM     14  C   UNL     1      -3.565  -1.328  24.496  0.00  0.00    +0.055 A 
ATOM     15  C   UNL     1      -3.221  -1.827  25.055  0.00  0.00    +0.005 A 
ATOM     16  C   UNL     1      -3.342  -2.642  25.010  0.00  0.00    +0.000 A 
ATOM     17  C   UNL     1      -3.807  -2.958  24.407  0.00  0.00    +0.000 A 
ATOM     18  C   UNL     1      -4.152  -2.458  23.847  0.00  0.00    +0.000 A 
ATOM     19  C   UNL     1      -4.031  -1.643  23.892  0.00  0.00    +0.005 A 
ENDBRANCH  12  14
ENDBRANCH  10  11
BRANCH   8   7
ATOM      7  C   UNL     1      -2.323   2.596  24.418  0.00  0.00    +0.049 C 
BRANCH   7   6
ATOM      4  C   UNL     1      -3.866   3.801  25.269  0.00  0.00    +0.184 A 
ATOM      5  C   UNL     1      -3.555   3.366  24.640  0.00  0.00    +0.056 A 
ATOM      6  C   UNL     1      -2.825   3.064  24.876  0.00  0.00    +0.100 A 
ATOM     23  N   UNL     1      -2.684   3.312  25.650  0.00  0.00    -0.082 NA
ATOM     24  O   UNL     1      -3.327   3.767  25.893  0.00  0.00    -0.356 OA
BRANCH   4   3
ATOM      3  C   UNL     1      -4.588   4.200  25.273  0.00  0.00    +0.209 C 
BRANCH   3   2
ATOM      1  C   UNL     1      -5.986   4.224  25.570  0.00  0.00    +0.175 C 
ATOM      2  O   UNL     1      -5.256   3.842  25.599  0.00  0.00    -0.343 OA
ENDBRANCH   3   2
ENDBRANCH   4   3
ENDBRANCH   7   6
ENDBRANCH   8   7
TORSDOF 6
ENDMDL
MODEL 6
REMARK VINA RESULT:      -9.4      2.395      4.026
REMARK  Name = 
REMARK  6 active torsions:
REMARK  status: ('A' for Active; 'I' for Inactive)
REMARK    1  A    between atoms: O_2  and  C_3
REMARK    2  A    between atoms: C_3  and  C_4
REMARK    3  A    between atoms: C_6  and  C_7
REMARK    4  A    between atoms: C_7  and  C_8
REMARK    5  A    between atoms: C_10  and  N_11
REMARK    6  A    between atoms: C_12  and  C_14
REMARK                            x       y       z     vdW  Elec       q    Type
REMARK                         _______ _______ _______ _____ _____    ______ ____
ROOT
ATOM      8  C   UNL     1      -1.483   3.449  25.107  0.00  0.00    +0.009 C 
ATOM      9  C   UNL     1      -2.012   2.818  25.054  0.00  0.00    +0.022 C 
ATOM     10  C   UNL     1      -2.639   3.333  25.206  0.00  0.00    +0.096 C 
ATOM     20  C   UNL     1      -2.109   3.963  25.258  0.00  0.00    +0.019 C 
ATOM     21  C   UNL     1      -2.595   4.610  25.418  0.00  0.00    +0.002 C 
ATOM     22  C   UNL     1      -1.741   4.695  25.345  0.00  0.00    +0.002 C 
ENDROOT
BRANCH  10  11
ATOM     11  N   UNL     1      -3.457   3.251  25.275  0.00  0.00    -0.203 NA
ATOM     12  C   UNL     1      -3.807   2.508  25.184  0.00  0.00    +0.265 C 
ATOM     13  O   UNL     1      -3.338   1.849  25.024  0.00  0.00    -0.268 OA
BRANCH  12  14
ATOM     14  C   UNL     1      -4.624   2.426  25.254  0.00  0.00    +0.055 A 
ATOM     15  C   UNL     1      -5.020   2.770  25.890  0.00  0.00    +0.005 A 
ATOM     16  C   UNL     1      -5.838   2.688  25.959  0.00  0.00    +0.000 A 
ATOM     17  C   UNL     1      -6.260   2.262  25.393  0.00  0.00    +0.000 A 
ATOM     18  C   UNL     1      -5.864   1.918  24.756  0.00  0.00    +0.000 A 
ATOM     19  C   UNL     1      -5.046   2.000  24.686  0.00  0.00    +0.005 A 
ENDBRANCH  12  14
ENDBRANCH  10  11
BRANCH   8   7
ATOM      7  C   UNL     1      -0.665   3.531  25.038  0.00  0.00    +0.049 C 
BRANCH   7   6
ATOM      4  C   UNL     1       0.469   1.836  24.408  0.00  0.00    +0.184 A 
ATOM      5  C   UNL     1      -0.030   2.471  24.241  0.00  0.00    +0.056 A 
ATOM      6  C   UNL     1      -0.189   2.863  24.949  0.00  0.00    +0.100 A 
ATOM     23  N   UNL     1       0.212   2.470  25.554  0.00  0.00    -0.082 NA
ATOM     24  O   UNL     1       0.619   1.835  25.220  0.00  0.00    -0.356 OA
BRANCH   4   3
ATOM      3  C   UNL     1       0.767   1.295  23.861  0.00  0.00    +0.209 C 
BRANCH   3   2
ATOM      1  C   UNL     1       0.687   0.030  23.202  0.00  0.00    +0.175 C 
ATOM      2  O   UNL     1       0.371   0.585  23.723  0.00  0.00    -0.343 OA
ENDBRANCH   3   2
ENDBRANCH   4   3
ENDBRANCH   7   6
ENDBRANCH   8   7
TORSDOF 6
ENDMDL
