MODEL 1
REMARK VINA RESULT:      -9.6      0.000      0.000
REMARK  Name = 
REMARK  4 active torsions:
REMARK  status: ('A' for Active; 'I' for Inactive)
REMARK    1  A    between atoms: C_3  and  N_17
REMARK    2  A    between atoms: C_6  and  C_7
REMARK    3  A    between atoms: C_7  and  N_8
REMARK    4  A    between atoms: N_17  and  C_18
REMARK                            x       y       z     vdW  Elec       q    Type
REMARK                         _______ _______ _______ _____ _____    ______ ____
ROOT
ATOM      1  O   UNL     1      -4.847   1.091  25.353  0.00  0.00    -0.219 OA
ATOM      2  C   UNL     1      -4.257   0.917  24.803  0.00  0.00    +0.199 C 
ATOM      3  C   UNL     1      -4.100   0.176  24.478  0.00  0.00    +0.135 C 
ATOM      4  C   UNL     1      -3.466   0.255  23.956  0.00  0.00    +0.162 C 
ATOM      5  O   UNL     1      -3.231   1.045  23.958  0.00  0.00    -0.350 OA
ATOM      6  C   UNL     1      -3.720   1.455  24.482  0.00  0.00    +0.169 C 
ENDROOT
BRANCH   6   7
ATOM      7  C   UNL     1      -3.678   2.260  24.654  0.00  0.00    +0.149 C 
BRANCH   7   8
ATOM      8  N   UNL     1      -2.944   2.628  24.735  0.00  0.00    -0.186 NA
ATOM      9  C   UNL     1      -2.902   3.440  24.875  0.00  0.00    +0.323 C 
ATOM     10  O   UNL     1      -3.594   3.885  24.934  0.00  0.00    -0.251 OA
ATOM     11  N   UNL     1      -2.168   3.807  24.957  0.00  0.00    -0.258 N 
ATOM     12  C   UNL     1      -1.475   3.363  24.898  0.00  0.00    +0.127 C 
ATOM     13  C   UNL     1      -0.741   3.730  24.980  0.00  0.00    +0.164 C 
ATOM     14  O   UNL     1      -0.700   4.541  25.119  0.00  0.00    -0.350 OA
ATOM     15  C   UNL     1      -1.392   4.987  25.178  0.00  0.00    +0.164 C 
ATOM     16  C   UNL     1      -2.126   4.619  25.097  0.00  0.00    +0.127 C 
ENDBRANCH   7   8
ENDBRANCH   6   7
BRANCH   3  17
ATOM     17  N   UNL     1      -4.506  -0.523  24.646  0.00  0.00    -0.216 NA
BRANCH  17  18
ATOM     18  C   UNL     1      -4.114  -1.248  24.608  0.00  0.00    +0.076 C 
ATOM     19  C   UNL     1      -3.623  -1.484  25.227  0.00  0.00    +0.036 C 
ATOM     20  C   UNL     1      -3.230  -2.209  25.189  0.00  0.00    +0.090 C 
ATOM     21  N   UNL     1      -3.329  -2.697  24.531  0.00  0.00    -0.218 NA
ATOM     22  C   UNL     1      -3.820  -2.460  23.911  0.00  0.00    +0.090 C 
ATOM     23  C   UNL     1      -4.212  -1.736  23.949  0.00  0.00    +0.036 C 
ENDBRANCH  17  18
ENDBRANCH   3  17
TORSDOF 4
ENDMDL
MODEL 2
REMARK VINA RESULT:      -8.8      1.841      5.543
REMARK  Name = 
REMARK  4 active torsions:
REMARK  status: ('A' for Active; 'I' for Inactive)
REMARK    1  A    between atoms: C_3  and  N_17
REMARK    2  A    between atoms: C_6  and  C_7
REMARK    3  A    between atoms: C_7  and  N_8
REMARK    4  A    between atoms: N_17  and  C_18
REMARK                            x       y       z     vdW  Elec       q    Type
REMARK                         _______ _______ _______ _____ _____    ______ ____
ROOT
ATOM      1  O   UNL     1      -0.605   1.081  26.101  0.00  0.00    -0.219 OA
ATOM      2  C   UNL     1      -0.921   1.329  25.380  0.00  0.00    +0.199 C 
ATOM      3  C   UNL     1      -0.956   2.107  25.108  0.00  0.00    +0.135 C 
ATOM      4  C   UNL     1      -1.313   2.101  24.364  0.00  0.00    +0.162 C 
ATOM      5  O   UNL     1      -1.499   1.319  24.177  0.00  0.00    -0.350 OA
ATOM      6  C   UNL     1      -1.257   0.842  24.805  0.00  0.00    +0.169 C 
ENDROOT
BRANCH   6   7
ATOM      7  C   UNL     1      -1.336   0.022  24.850  0.00  0.00    +0.149 C 
BRANCH   7   8
ATOM      8  N   UNL     1      -2.052  -0.334  24.647  0.00  0.00    -0.186 NA
ATOM      9  C   UNL     1      -2.124  -1.156  24.670  0.00  0.00    +0.323 C 
ATOM     10  O   UNL     1      -1.481  -1.621  24.895  0.00  0.00    -0.251 OA
ATOM     11  N   UNL     1      -2.840  -1.513  24.468  0.00  0.00    -0.258 N 
ATOM     12  C   UNL     1      -3.484  -1.048  24.243  0.00  0.00    +0.127 C 
ATOM     13  C   UNL     1      -4.200  -1.405  24.041  0.00  0.00    +0.164 C 
ATOM     14  O   UNL     1      -4.272  -2.226  24.063  0.00  0.00    -0.350 OA
ATOM     15  C   UNL     1      -3.629  -2.691  24.288  0.00  0.00    +0.164 C 
ATOM     16  C   UNL     1      -2.913  -2.335  24.490  0.00  0.00    +0.127 C 
ENDBRANCH   7   8
ENDBRANCH   6   7
BRANCH   3  17
ATOM     17  N   UNL     1      -0.681   2.774  25.509  0.00  0.00    -0.216 NA
BRANCH  17  18
ATOM     18  C   UNL     1      -1.083   3.491  25.441  0.00  0.00    +0.076 C 
ATOM     19  C   UNL     1      -0.754   4.107  25.003  0.00  0.00    +0.036 C 
ATOM     20  C   UNL     1      -1.156   4.825  24.934  0.00  0.00    +0.090 C 
ATOM     21  N   UNL     1      -1.887   4.925  25.303  0.00  0.00    -0.218 NA
ATOM     22  C   UNL     1      -2.216   4.307  25.741  0.00  0.00    +0.090 C 
ATOM     23  C   UNL     1      -1.814   3.590  25.810  0.00  0.00    +0.036 C 
ENDBRANCH  17  18
ENDBRANCH   3  17
TORSDOF 4
ENDMDL
MODEL 3
REMARK VINA RESULT:      -8.4      1.314      5.141
REMARK  Name = 
REMARK  4 active torsions:
REMARK  status: ('A' for Active; 'I' for Inactive)
REMARK    1  A    between atoms: C_3  and  N_17
REMARK    2  A    between atoms: C_6  and  C_7
REMARK    3  A    between atoms: C_7  and  N_8
REMARK    4  A    between atoms: N_17  and  C_18
REMARK                            x       y       z     vdW  Elec       q    Type
REMARK                         _______ _______ _______ _____ _____    ______ ____
ROOT
ATOM      1  O   UNL     1      -4.911   1.887  24.734  0.00  0.00    -0.219 OA
ATOM      2  C   UNL     1      -4.146   1.847  24.427  0.00  0.00    +0.199 C 
ATOM      3  C   UNL     1      -3.630   2.483  24.328  0.00  0.00    +0.135 C 
ATOM      4  C   UNL     1      -2.927   2.193  24.006  0.00  0.00    +0.162 C 
ATOM      5  O   UNL     1      -3.009   1.379  23.906  0.00  0.00    -0.350 OA
ATOM      6  C   UNL     1      -3.763   1.164  24.167  0.00  0.00    +0.169 C 
ENDROOT
BRANCH   6   7
ATOM      7  C   UNL     1      -4.077   0.402  24.166  0.00  0.00    +0.149 C 
BRANCH   7   8
ATOM      8  N   UNL     1      -3.584  -0.247  24.292  0.00  0.00    -0.186 NA
ATOM      9  C   UNL     1      -3.892  -1.012  24.256  0.00  0.00    +0.323 C 
ATOM     10  O   UNL     1      -4.693  -1.128  24.094  0.00  0.00    -0.251 OA
ATOM     11  N   UNL     1      -3.399  -1.661  24.381  0.00  0.00    -0.258 N 
ATOM     12  C   UNL     1      -2.598  -1.547  24.543  0.00  0.00    +0.127 C 
ATOM     13  C   UNL     1      -2.105  -2.196  24.669  0.00  0.00    +0.164 C 
ATOM     14  O   UNL     1      -2.413  -2.960  24.633  0.00  0.00    -0.350 OA
ATOM     15  C   UNL     1      -3.213  -3.076  24.471  0.00  0.00    +0.164 C 
ATOM     16  C   UNL     1      -3.707  -2.426  24.345  0.00  0.00    +0.127 C 
ENDBRANCH   7   8
ENDBRANCH   6   7
BRANCH   3  17
ATOM     17  N   UNL     1      -3.788   3.270  24.518  0.00  0.00    -0.216 NA
BRANCH  17  18
ATOM     18  C   UNL     1      -3.255   3.699  24.978  0.00  0.00    +0.076 C 
ATOM     19  C   UNL     1      -2.606   4.065  24.623  0.00  0.00    +0.036 C 
ATOM     20  C   UNL     1      -2.072   4.494  25.083  0.00  0.00    +0.090 C 
ATOM     21  N   UNL     1      -2.187   4.557  25.897  0.00  0.00    -0.218 NA
ATOM     22  C   UNL     1      -2.836   4.191  26.252  0.00  0.00    +0.090 C 
ATOM     23  C   UNL     1      -3.370   3.762  25.792  0.00  0.00    +0.036 C 
ENDBRANCH  17  18
ENDBRANCH   3  17
TORSDOF 4
ENDMDL
MODEL 4
REMARK VINA RESULT:      -8.4      1.458      1.947
REMARK  Name = 
REMARK  4 active torsions:
REMARK  status: ('A' for Active; 'I' for Inactive)
REMARK    1  A    between atoms: C_3  and  N_17
REMARK    2  A    between atoms: C_6  and  C_7
REMARK    3  A    between atoms: C_7  and  N_8
REMARK    4  A    between atoms: N_17  and  C_18
REMARK                            x       y       z     vdW  Elec       q    Type
REMARK                         _______ _______ _______ _____ _____    ______ ____
ROOT
ATOM      1  O   UNL     1      -0.915   0.019  25.826  0.00  0.00    -0.219 OA
ATOM      2  C   UNL     1      -1.568   0.193  25.353  0.00  0.00    +0.199 C 
ATOM      3  C   UNL     1      -2.228  -0.288  25.242  0.00  0.00    +0.135 C 
ATOM      4  C   UNL     1      -2.745   0.100  24.728  0.00  0.00    +0.162 C 
ATOM      5  O   UNL     1      -2.403   0.822  24.522  0.00  0.00    -0.350 OA
ATOM      6  C   UNL     1      -1.676   0.880  24.907  0.00  0.00    +0.169 C 
ENDROOT
BRANCH   6   7
ATOM      7  C   UNL     1      -1.149   1.512  24.857  0.00  0.00    +0.149 C 
BRANCH   7   8
ATOM      8  N   UNL     1      -1.408   2.278  25.020  0.00  0.00    -0.186 NA
ATOM      9  C   UNL     1      -0.926   2.924  24.841  0.00  0.00    +0.323 C 
ATOM     10  O   UNL     1      -0.184   2.803  24.499  0.00  0.00    -0.251 OA
ATOM     11  N   UNL     1      -1.185   3.690  25.004  0.00  0.00    -0.258 N 
ATOM     12  C   UNL     1      -1.926   3.811  25.346  0.00  0.00    +0.127 C 
ATOM     13  C   UNL     1      -2.184   4.577  25.509  0.00  0.00    +0.164 C 
ATOM     14  O   UNL     1      -1.703   5.222  25.330  0.00  0.00    -0.350 OA
ATOM     15  C   UNL     1      -0.961   5.101  24.988  0.00  0.00    +0.164 C 
ATOM     16  C   UNL     1      -0.702   4.335  24.825  0.00  0.00    +0.127 C 
ENDBRANCH   7   8
ENDBRANCH   6   7
BRANCH   3  17
ATOM     17  N   UNL     1      -2.351  -1.029  25.585  0.00  0.00    -0.216 NA
BRANCH  17  18
ATOM     18  C   UNL     1      -2.686  -1.639  25.141  0.00  0.00    +0.076 C 
ATOM     19  C   UNL     1      -3.505  -1.729  25.117  0.00  0.00    +0.036 C 
ATOM     20  C   UNL     1      -3.840  -2.339  24.673  0.00  0.00    +0.090 C 
ATOM     21  N   UNL     1      -3.355  -2.858  24.254  0.00  0.00    -0.218 NA
ATOM     22  C   UNL     1      -2.535  -2.767  24.278  0.00  0.00    +0.090 C 
ATOM     23  C   UNL     1      -2.200  -2.157  24.722  0.00  0.00    +0.036 C 
ENDBRANCH  17  18
ENDBRANCH   3  17
TORSDOF 4
ENDMDL
MODEL 5
REMARK VINA RESULT:      -8.0      2.407      4.468
REMARK  Name = 
REMARK  4 active torsions:
REMARK  status: ('A' for Active; 'I' for Inactive)
REMARK    1  A    between atoms: C_3  and  N_17
REMARK    2  A    between atoms: C_6  and  C_7
REMARK    3  A    between atoms: C_7  and  N_8
REMARK    4  A    between atoms: N_17  and  C_18
REMARK                            x       y       z     vdW  Elec       q    Type
REMARK                         _______ _______ _______ _____ _____    ______ ____
ROOT
ATOM      1  O   UNL     1      -3.150   1.967  23.132  0.00  0.00    -0.219 OA
ATOM      2  C   UNL     1      -2.904   2.282  23.854  0.00  0.00    +0.199 C 
ATOM      3  C   UNL     1      -3.329   2.811  24.322  0.00  0.00    +0.135 C 
ATOM      4  C   UNL     1      -2.877   2.980  24.992  0.00  0.00    +0.162 C 
ATOM      5  O   UNL     1      -2.173   2.554  24.938  0.00  0.00    -0.350 OA
ATOM      6  C   UNL     1      -2.189   2.122  24.234  0.00  0.00    +0.169 C 
ENDROOT
BRANCH   6   7
ATOM      7  C   UNL     1      -1.596   1.620  23.960  0.00  0.00    +0.149 C 
BRANCH   7   8
ATOM      8  N   UNL     1      -1.452   0.904  24.343  0.00  0.00    -0.186 NA
ATOM      9  C   UNL     1      -0.823   0.426  24.103  0.00  0.00    +0.323 C 
ATOM     10  O   UNL     1      -0.338   0.665  23.480  0.00  0.00    -0.251 OA
ATOM     11  N   UNL     1      -0.679  -0.290  24.486  0.00  0.00    -0.258 N 
ATOM     12  C   UNL     1      -1.164  -0.529  25.109  0.00  0.00    +0.127 C 
ATOM     13  C   UNL     1      -1.020  -1.246  25.492  0.00  0.00    +0.164 C 
ATOM     14  O   UNL     1      -0.392  -1.722  25.252  0.00  0.00    -0.350 OA
ATOM     15  C   UNL     1       0.093  -1.484  24.629  0.00  0.00    +0.164 C 
ATOM     16  C   UNL     1      -0.050  -0.767  24.246  0.00  0.00    +0.127 C 
ENDBRANCH   7   8
ENDBRANCH   6   7
BRANCH   3  17
ATOM     17  N   UNL     1      -4.076   3.119  24.150  0.00  0.00    -0.216 NA
BRANCH  17  18
ATOM     18  C   UNL     1      -4.667   3.111  24.725  0.00  0.00    +0.076 C 
ATOM     19  C   UNL     1      -5.136   2.440  24.823  0.00  0.00    +0.036 C 
ATOM     20  C   UNL     1      -5.729   2.430  25.398  0.00  0.00    +0.090 C 
ATOM     21  N   UNL     1      -5.851   3.093  25.874  0.00  0.00    -0.218 NA
ATOM     22  C   UNL     1      -5.382   3.765  25.775  0.00  0.00    +0.090 C 
ATOM     23  C   UNL     1      -4.790   3.774  25.200  0.00  0.00    +0.036 C 
ENDBRANCH  17  18
ENDBRANCH   3  17
TORSDOF 4
ENDMDL
MODEL 6
REMARK VINA RESULT:      -7.8     15.928     18.687
REMARK  Name = 
REMARK  4 active torsions:
REMARK  status: ('A' for Active; 'I' for Inactive)
REMARK    1  A    between atoms: C_3  and  N_17
REMARK    2  A    between atoms: C_6  and  C_7
REMARK    3  A    between atoms: C_7  and  N_8
REMARK    4  A    between atoms: N_17  and  C_18
REMARK                            x       y       z     vdW  Elec       q    Type
REMARK                         _______ _______ _______ _____ _____    ______ ____
ROOT
ATOM      1  O   UNL     1      12.220   6.859  19.013  0.00  0.00    -0.219 OA
ATOM      2  C   UNL     1      12.548   7.440  19.498  0.00  0.00    +0.199 C 
ATOM      3  C   UNL     1      12.132   7.934  20.012  0.00  0.00    +0.135 C 
ATOM      4  C   UNL     1      12.677   8.429  20.386  0.00  0.00    +0.162 C 
ATOM      5  O   UNL     1      13.429   8.241  20.104  0.00  0.00    -0.350 OA
ATOM      6  C   UNL     1      13.349   7.629  19.555  0.00  0.00    +0.169 C 
ENDROOT
BRANCH   6   7
ATOM      7  C   UNL     1      13.962   7.270  19.136  0.00  0.00    +0.149 C 
BRANCH   7   8
ATOM      8  N   UNL     1      14.662   7.068  19.523  0.00  0.00    -0.186 NA
ATOM      9  C   UNL     1      15.305   6.783  19.091  0.00  0.00    +0.323 C 
ATOM     10  O   UNL     1      15.248   6.700  18.272  0.00  0.00    -0.251 OA
ATOM     11  N   UNL     1      16.005   6.581  19.478  0.00  0.00    -0.258 N 
ATOM     12  C   UNL     1      16.063   6.664  20.297  0.00  0.00    +0.127 C 
ATOM     13  C   UNL     1      16.763   6.462  20.684  0.00  0.00    +0.164 C 
ATOM     14  O   UNL     1      17.405   6.177  20.252  0.00  0.00    -0.350 OA
ATOM     15  C   UNL     1      17.348   6.094  19.433  0.00  0.00    +0.164 C 
ATOM     16  C   UNL     1      16.648   6.296  19.046  0.00  0.00    +0.127 C 
ENDBRANCH   7   8
ENDBRANCH   6   7
BRANCH   3  17
ATOM     17  N   UNL     1      11.316   7.934  20.131  0.00  0.00    -0.216 NA
BRANCH  17  18
ATOM     18  C   UNL     1      11.010   7.990  20.895  0.00  0.00    +0.076 C 
ATOM     19  C   UNL     1      10.852   7.306  21.327  0.00  0.00    +0.036 C 
ATOM     20  C   UNL     1      10.546   7.361  22.092  0.00  0.00    +0.090 C 
ATOM     21  N   UNL     1      10.399   8.102  22.423  0.00  0.00    -0.218 NA
ATOM     22  C   UNL     1      10.557   8.787  21.991  0.00  0.00    +0.090 C 
ATOM     23  C   UNL     1      10.863   8.731  21.227  0.00  0.00    +0.036 C 
ENDBRANCH  17  18
ENDBRANCH   3  17
TORSDOF 4
ENDMDL
MODEL 7
REMARK VINA RESULT:      -7.7      1.989      2.858
REMARK  Name = 
REMARK  4 active torsions:
REMARK  status: ('A' for Active; 'I' for Inactive)
REMARK    1  A    between atoms: C_3  and  N_17
REMARK    2  A    between atoms: C_6  and  C_7
REMARK    3  A    between atoms: C_7  and  N_8
REMARK    4  A    between atoms: N_17  and  C_18
REMARK                            x       y       z     vdW  Elec       q    Type
REMARK                         _______ _______ _______ _____ _____    ______ ____
ROOT
ATOM      1  O   UNL     1      -3.783  -0.363  23.584  0.00  0.00    -0.219 OA
ATOM      2  C   UNL     1      -3.695  -0.501  24.393  0.00  0.00    +0.199 C 
ATOM      3  C   UNL     1      -3.164  -1.028  24.740  0.00  0.00    +0.135 C 
ATOM      4  C   UNL     1      -3.265  -0.989  25.559  0.00  0.00    +0.162 C 
ATOM      5  O   UNL     1      -3.858  -0.438  25.717  0.00  0.00    -0.350 OA
ATOM      6  C   UNL     1      -4.125  -0.136  24.996  0.00  0.00    +0.169 C 
ENDROOT
BRANCH   6   7
ATOM      7  C   UNL     1      -4.716   0.430  24.896  0.00  0.00    +0.149 C 
BRANCH   7   8
ATOM      8  N   UNL     1      -4.562   1.221  25.070  0.00  0.00    -0.186 NA
ATOM      9  C   UNL     1      -5.185   1.758  25.136  0.00  0.00    +0.323 C 
ATOM     10  O   UNL     1      -5.962   1.503  25.029  0.00  0.00    -0.251 OA
ATOM     11  N   UNL     1      -5.031   2.550  25.310  0.00  0.00    -0.258 N 
ATOM     12  C   UNL     1      -4.254   2.805  25.417  0.00  0.00    +0.127 C 
ATOM     13  C   UNL     1      -4.100   3.597  25.591  0.00  0.00    +0.164 C 
ATOM     14  O   UNL     1      -4.723   4.133  25.657  0.00  0.00    -0.350 OA
ATOM     15  C   UNL     1      -5.500   3.878  25.550  0.00  0.00    +0.164 C 
ATOM     16  C   UNL     1      -5.654   3.087  25.376  0.00  0.00    +0.127 C 
ENDBRANCH   7   8
ENDBRANCH   6   7
BRANCH   3  17
ATOM     17  N   UNL     1      -2.627  -1.509  24.340  0.00  0.00    -0.216 NA
BRANCH  17  18
ATOM     18  C   UNL     1      -1.839  -1.540  24.584  0.00  0.00    +0.076 C 
ATOM     19  C   UNL     1      -1.325  -0.925  24.392  0.00  0.00    +0.036 C 
ATOM     20  C   UNL     1      -0.536  -0.955  24.636  0.00  0.00    +0.090 C 
ATOM     21  N   UNL     1      -0.264  -1.601  25.071  0.00  0.00    -0.218 NA
ATOM     22  C   UNL     1      -0.780  -2.216  25.263  0.00  0.00    +0.090 C 
ATOM     23  C   UNL     1      -1.567  -2.186  25.019  0.00  0.00    +0.036 C 
ENDBRANCH  17  18
ENDBRANCH   3  17
TORSDOF 4
ENDMDL
MODEL 8
REMARK VINA RESULT:      -7.6      2.501      3.766
REMARK  Name = 
REMARK  4 active torsions:
REMARK  status: ('A' for Active; 'I' for Inactive)
REMARK    1  A    between atoms: C_3  and  N_17
REMARK    2  A    between atoms: C_6  and  C_7
REMARK    3  A    between atoms: C_7  and  N_8
REMARK    4  A    between atoms: N_17  and  C_18
REMARK                            x       y       z     vdW  Elec       q    Type
REMARK                         _______ _______ _______ _____ _____    ______ ____
ROOT
ATOM      1  O   UNL     1      -1.122   2.367  25.743  0.00  0.00    -0.219 OA
ATOM      2  C   UNL     1      -1.325   2.263  24.950  0.00  0.00    +0.199 C 
ATOM      3  C   UNL     1      -0.882   1.856  24.386  0.00  0.00    +0.135 C 
ATOM      4  C   UNL     1      -1.290   1.889  23.669  0.00  0.00    +0.162 C 
ATOM      5  O   UNL     1      -1.985   2.317  23.791  0.00  0.00    -0.350 OA
ATOM      6  C   UNL     1      -2.007   2.548  24.583  0.00  0.00    +0.169 C 
ENDROOT
BRANCH   6   7
ATOM      7  C   UNL     1      -2.605   2.986  24.943  0.00  0.00    +0.149 C 
BRANCH   7   8
ATOM      8  N   UNL     1      -3.377   2.697  24.957  0.00  0.00    -0.186 NA
ATOM      9  C   UNL     1      -3.977   3.138  25.313  0.00  0.00    +0.323 C 
ATOM     10  O   UNL     1      -3.804   3.869  25.655  0.00  0.00    -0.251 OA
ATOM     11  N   UNL     1      -4.749   2.849  25.328  0.00  0.00    -0.258 N 
ATOM     12  C   UNL     1      -4.922   2.118  24.986  0.00  0.00    +0.127 C 
ATOM     13  C   UNL     1      -5.695   1.829  25.001  0.00  0.00    +0.164 C 
ATOM     14  O   UNL     1      -6.294   2.270  25.356  0.00  0.00    -0.350 OA
ATOM     15  C   UNL     1      -6.121   3.001  25.698  0.00  0.00    +0.164 C 
ATOM     16  C   UNL     1      -5.349   3.290  25.683  0.00  0.00    +0.127 C 
ENDBRANCH   7   8
ENDBRANCH   6   7
BRANCH   3  17
ATOM     17  N   UNL     1      -0.158   1.481  24.516  0.00  0.00    -0.216 NA
BRANCH  17  18
ATOM     18  C   UNL     1      -0.019   0.732  24.199  0.00  0.00    +0.076 C 
ATOM     19  C   UNL     1       0.448   0.650  23.525  0.00  0.00    +0.036 C 
ATOM     20  C   UNL     1       0.588  -0.099  23.208  0.00  0.00    +0.090 C 
ATOM     21  N   UNL     1       0.259  -0.766  23.566  0.00  0.00    -0.218 NA
ATOM     22  C   UNL     1      -0.209  -0.683  24.241  0.00  0.00    +0.090 C 
ATOM     23  C   UNL     1      -0.348   0.066  24.558  0.00  0.00    +0.036 C 
ENDBRANCH  17  18
ENDBRANCH   3  17
TORSDOF 4
ENDMDL
MODEL 9
REMARK VINA RESULT:      -6.4     14.384     16.814
REMARK  Name = 
REMARK  4 active torsions:
REMARK  status: ('A' for Active; 'I' for Inactive)
REMARK    1  A    between atoms: C_3  and  N_17
REMARK    2  A    between atoms: C_6  and  C_7
REMARK    3  A    between atoms: C_7  and  N_8
REMARK    4  A    between atoms: N_17  and  C_18
REMARK                            x       y       z     vdW  Elec       q    Type
REMARK                         _______ _______ _______ _____ _____    ______ ____
ROOT
ATOM      1  O   UNL     1      -1.943 -10.432  12.785  0.00  0.00    -0.219 OA
ATOM      2  C   UNL     1      -2.758 -10.459  12.662  0.00  0.00    +0.199 C 
ATOM      3  C   UNL     1      -3.140 -10.408  11.933  0.00  0.00    +0.135 C 
ATOM      4  C   UNL     1      -3.953 -10.459  12.066  0.00  0.00    +0.162 C 
ATOM      5  O   UNL     1      -4.073 -10.542  12.878  0.00  0.00    -0.350 OA
ATOM      6  C   UNL     1      -3.335 -10.542  13.247  0.00  0.00    +0.169 C 
ENDROOT
BRANCH   6   7
ATOM      7  C   UNL     1      -3.197 -10.613  14.056  0.00  0.00    +0.149 C 
BRANCH   7   8
ATOM      8  N   UNL     1      -3.814 -10.493  14.591  0.00  0.00    -0.186 NA
ATOM      9  C   UNL     1      -3.679 -10.578  15.401  0.00  0.00    +0.323 C 
ATOM     10  O   UNL     1      -2.928 -10.781  15.676  0.00  0.00    -0.251 OA
ATOM     11  N   UNL     1      -4.296 -10.458  15.936  0.00  0.00    -0.258 N 
ATOM     12  C   UNL     1      -5.047 -10.255  15.662  0.00  0.00    +0.127 C 
ATOM     13  C   UNL     1      -5.663 -10.135  16.197  0.00  0.00    +0.164 C 
ATOM     14  O   UNL     1      -5.529 -10.219  17.006  0.00  0.00    -0.350 OA
ATOM     15  C   UNL     1      -4.778 -10.423  17.281  0.00  0.00    +0.164 C 
ATOM     16  C   UNL     1      -4.161 -10.543  16.746  0.00  0.00    +0.127 C 
ENDBRANCH   7   8
ENDBRANCH   6   7
BRANCH   3  17
ATOM     17  N   UNL     1      -2.774 -10.321  11.198  0.00  0.00    -0.216 NA
BRANCH  17  18
ATOM     18  C   UNL     1      -3.202 -10.030  10.556  0.00  0.00    +0.076 C 
ATOM     19  C   UNL     1      -3.205  -9.222  10.395  0.00  0.00    +0.036 C 
ATOM     20  C   UNL     1      -3.633  -8.930   9.752  0.00  0.00    +0.090 C 
ATOM     21  N   UNL     1      -4.058  -9.448   9.271  0.00  0.00    -0.218 NA
ATOM     22  C   UNL     1      -4.055 -10.258   9.432  0.00  0.00    +0.090 C 
ATOM     23  C   UNL     1      -3.627 -10.549  10.075  0.00  0.00    +0.036 C 
ENDBRANCH  17  18
ENDBRANCH   3  17
TORSDOF 4
ENDMDL
MODEL 10
REMARK VINA RESULT:      -6.0     15.662     17.793
REMARK  Name = 
REMARK  4 active torsions:
REMARK  status: ('A' for Active; 'I' for Inactive)
REMARK    1  A    between atoms: C_3  and  N_17
REMARK    2  A    between atoms: C_6  and  C_7
REMARK    3  A    between atoms: C_7  and  N_8
REMARK    4  A    between atoms: N_17  and  C_18
REMARK                            x       y       z     vdW  Elec       q    Type
REMARK                         _______ _______ _______ _____ _____    ______ ____
ROOT
ATOM      1  O   UNL     1      -2.317  -9.263  10.389  0.00  0.00    -0.219 OA
ATOM      2  C   UNL     1      -3.025  -9.642  10.579  0.00  0.00    +0.199 C 
ATOM      3  C   UNL     1      -3.728  -9.599  10.151  0.00  0.00    +0.135 C 
ATOM      4  C   UNL     1      -4.292 -10.061  10.538  0.00  0.00    +0.162 C 
ATOM      5  O   UNL     1      -3.937 -10.389  11.206  0.00  0.00    -0.350 OA
ATOM      6  C   UNL     1      -3.153 -10.130  11.232  0.00  0.00    +0.169 C 
ENDROOT
BRANCH   6   7
ATOM      7  C   UNL     1      -2.597 -10.325  11.808  0.00  0.00    +0.149 C 
BRANCH   7   8
ATOM      8  N   UNL     1      -2.831 -10.416  12.594  0.00  0.00    -0.186 NA
ATOM      9  C   UNL     1      -2.264 -10.508  13.186  0.00  0.00    +0.323 C 
ATOM     10  O   UNL     1      -1.462 -10.509  12.992  0.00  0.00    -0.251 OA
ATOM     11  N   UNL     1      -2.498 -10.599  13.971  0.00  0.00    -0.258 N 
ATOM     12  C   UNL     1      -3.300 -10.598  14.166  0.00  0.00    +0.127 C 
ATOM     13  C   UNL     1      -3.534 -10.688  14.952  0.00  0.00    +0.164 C 
ATOM     14  O   UNL     1      -2.967 -10.780  15.543  0.00  0.00    -0.350 OA
ATOM     15  C   UNL     1      -2.165 -10.781  15.349  0.00  0.00    +0.164 C 
ATOM     16  C   UNL     1      -1.931 -10.690  14.564  0.00  0.00    +0.127 C 
ENDBRANCH   7   8
ENDBRANCH   6   7
BRANCH   3  17
ATOM     17  N   UNL     1      -3.848  -9.169   9.456  0.00  0.00    -0.216 NA
BRANCH  17  18
ATOM     18  C   UNL     1      -4.600  -9.128   9.121  0.00  0.00    +0.076 C 
ATOM     19  C   UNL     1      -5.144  -8.574   9.397  0.00  0.00    +0.036 C 
ATOM     20  C   UNL     1      -5.898  -8.532   9.062  0.00  0.00    +0.090 C 
ATOM     21  N   UNL     1      -6.105  -9.046   8.450  0.00  0.00    -0.218 NA
ATOM     22  C   UNL     1      -5.560  -9.600   8.173  0.00  0.00    +0.090 C 
ATOM     23  C   UNL     1      -4.807  -9.641   8.509  0.00  0.00    +0.036 C 
ENDBRANCH  17  18
ENDBRANCH   3  17
TORSDOF 4
ENDMDL
