MODEL 1
REMARK VINA RESULT:      -8.8      0.000      0.000
REMARK  Name = 
REMARK  6 active torsions:
REMARK  status: ('A' for Active; 'I' for Inactive)
REMARK    1  A    between atoms: C_3  and  C_4
REMARK    2  A    between atoms: C_4  and  N_5
REMARK    3  A    between atoms: C_6  and  C_8
REMARK    4  A    between atoms: C_15  and  N_16
REMARK    5  A    between atoms: N_16  and  C_17
REMARK    6  A    between atoms: C_17  and  C_18
REMARK                            x       y       z     vdW  Elec       q    Type
REMARK                         _______ _______ _______ _____ _____    ______ ____
ROOT
ATOM      1  O   UNL     1      -3.964   1.203  25.596  0.00  0.00    -0.219 OA
ATOM      2  C   UNL     1      -3.721   1.329  24.817  0.00  0.00    +0.199 C 
ATOM      3  C   UNL     1      -3.463   2.045  24.500  0.00  0.00    +0.169 C 
ATOM     13  O   UNL     1      -3.276   1.919  23.706  0.00  0.00    -0.350 OA
ATOM     14  C   UNL     1      -3.419   1.125  23.534  0.00  0.00    +0.162 C 
ATOM     15  C   UNL     1      -3.694   0.760  24.220  0.00  0.00    +0.135 C 
ENDROOT
BRANCH   3   4
ATOM      4  C   UNL     1      -3.402   2.761  24.905  0.00  0.00    +0.148 C 
BRANCH   4   5
ATOM      5  N   UNL     1      -2.736   3.237  24.803  0.00  0.00    -0.199 NA
ATOM      6  C   UNL     1      -2.627   3.903  25.278  0.00  0.00    +0.271 C 
ATOM      7  O   UNL     1      -3.185   4.092  25.856  0.00  0.00    -0.268 OA
BRANCH   6   8
ATOM      8  C   UNL     1      -1.961   4.379  25.177  0.00  0.00    +0.084 A 
ATOM      9  C   UNL     1      -1.956   5.202  25.127  0.00  0.00    +0.012 A 
ATOM     10  C   UNL     1      -1.175   5.447  25.026  0.00  0.00    +0.008 A 
ATOM     11  C   UNL     1      -0.697   4.775  25.013  0.00  0.00    +0.036 A 
ATOM     12  S   UNL     1      -1.182   4.115  25.106  0.00  0.00    -0.082 S 
ENDBRANCH   6   8
ENDBRANCH   4   5
ENDBRANCH   3   4
BRANCH  15  16
ATOM     16  N   UNL     1      -3.905  -0.033  24.296  0.00  0.00    -0.208 NA
BRANCH  16  17
ATOM     17  C   UNL     1      -3.530  -0.606  23.836  0.00  0.00    +0.134 C 
BRANCH  17  18
ATOM     18  C   UNL     1      -3.590  -1.403  24.040  0.00  0.00    +0.077 A 
ATOM     19  N   UNL     1      -2.999  -1.759  24.493  0.00  0.00    -0.247 NA
ATOM     20  C   UNL     1      -3.059  -2.556  24.697  0.00  0.00    +0.098 A 
ATOM     21  C   UNL     1      -3.709  -2.998  24.448  0.00  0.00    +0.021 A 
ATOM     22  C   UNL     1      -4.300  -2.642  23.994  0.00  0.00    +0.003 A 
ATOM     23  C   UNL     1      -4.240  -1.845  23.790  0.00  0.00    +0.016 A 
ENDBRANCH  17  18
ENDBRANCH  16  17
ENDBRANCH  15  16
TORSDOF 6
ENDMDL
MODEL 2
REMARK VINA RESULT:      -8.8      1.360      1.413
REMARK  Name = 
REMARK  6 active torsions:
REMARK  status: ('A' for Active; 'I' for Inactive)
REMARK    1  A    between atoms: C_3  and  C_4
REMARK    2  A    between atoms: C_4  and  N_5
REMARK    3  A    between atoms: C_6  and  C_8
REMARK    4  A    between atoms: C_15  and  N_16
REMARK    5  A    between atoms: N_16  and  C_17
REMARK    6  A    between atoms: C_17  and  C_18
REMARK                            x       y       z     vdW  Elec       q    Type
REMARK                         _______ _______ _______ _____ _____    ______ ____
ROOT
ATOM      1  O   UNL     1      -1.154   0.303  25.154  0.00  0.00    -0.219 OA
ATOM      2  C   UNL     1      -1.865   0.705  25.043  0.00  0.00    +0.199 C 
ATOM      3  C   UNL     1      -1.977   1.520  25.105  0.00  0.00    +0.169 C 
ATOM     13  O   UNL     1      -2.770   1.681  24.951  0.00  0.00    -0.350 OA
ATOM     14  C   UNL     1      -3.150   0.966  24.794  0.00  0.00    +0.162 C 
ATOM     15  C   UNL     1      -2.592   0.362  24.851  0.00  0.00    +0.135 C 
ENDROOT
BRANCH   3   4
ATOM      4  C   UNL     1      -1.395   2.076  25.288  0.00  0.00    +0.148 C 
BRANCH   4   5
ATOM      5  N   UNL     1      -1.514   2.872  25.108  0.00  0.00    -0.199 NA
ATOM      6  C   UNL     1      -0.979   3.440  25.375  0.00  0.00    +0.271 C 
ATOM      7  O   UNL     1      -0.324   3.212  25.822  0.00  0.00    -0.268 OA
BRANCH   6   8
ATOM      8  C   UNL     1      -1.098   4.237  25.195  0.00  0.00    +0.084 A 
ATOM      9  C   UNL     1      -1.736   4.699  25.439  0.00  0.00    +0.012 A 
ATOM     10  C   UNL     1      -1.633   5.458  25.134  0.00  0.00    +0.008 A 
ATOM     11  C   UNL     1      -0.930   5.465  24.702  0.00  0.00    +0.036 A 
ATOM     12  S   UNL     1      -0.600   4.711  24.739  0.00  0.00    -0.082 S 
ENDBRANCH   6   8
ENDBRANCH   4   5
ENDBRANCH   3   4
BRANCH  15  16
ATOM     16  N   UNL     1      -2.733  -0.442  24.737  0.00  0.00    -0.208 NA
BRANCH  16  17
ATOM     17  C   UNL     1      -3.507  -0.726  24.722  0.00  0.00    +0.134 C 
BRANCH  17  18
ATOM     18  C   UNL     1      -3.652  -1.519  24.545  0.00  0.00    +0.077 A 
ATOM     19  N   UNL     1      -3.303  -2.114  24.999  0.00  0.00    -0.247 NA
ATOM     20  C   UNL     1      -3.448  -2.907  24.822  0.00  0.00    +0.098 A 
ATOM     21  C   UNL     1      -3.942  -3.105  24.191  0.00  0.00    +0.021 A 
ATOM     22  C   UNL     1      -4.290  -2.510  23.737  0.00  0.00    +0.003 A 
ATOM     23  C   UNL     1      -4.145  -1.717  23.914  0.00  0.00    +0.016 A 
ENDBRANCH  17  18
ENDBRANCH  16  17
ENDBRANCH  15  16
TORSDOF 6
ENDMDL
MODEL 3
REMARK VINA RESULT:      -8.7      1.713      5.790
REMARK  Name = 
REMARK  6 active torsions:
REMARK  status: ('A' for Active; 'I' for Inactive)
REMARK    1  A    between atoms: C_3  and  C_4
REMARK    2  A    between atoms: C_4  and  N_5
REMARK    3  A    between atoms: C_6  and  C_8
REMARK    4  A    between atoms: C_15  and  N_16
REMARK    5  A    between atoms: N_16  and  C_17
REMARK    6  A    between atoms: C_17  and  C_18
REMARK                            x       y       z     vdW  Elec       q    Type
REMARK                         _______ _______ _______ _____ _____    ______ ____
ROOT
ATOM      1  O   UNL     1      -3.821   2.067  24.114  0.00  0.00    -0.219 OA
ATOM      2  C   UNL     1      -3.184   1.693  24.482  0.00  0.00    +0.199 C 
ATOM      3  C   UNL     1      -3.113   0.884  24.624  0.00  0.00    +0.169 C 
ATOM     13  O   UNL     1      -2.392   0.754  25.003  0.00  0.00    -0.350 OA
ATOM     14  C   UNL     1      -2.018   1.483  25.096  0.00  0.00    +0.162 C 
ATOM     15  C   UNL     1      -2.507   2.064  24.774  0.00  0.00    +0.135 C 
ENDROOT
BRANCH   3   4
ATOM      4  C   UNL     1      -3.666   0.306  24.422  0.00  0.00    +0.148 C 
BRANCH   4   5
ATOM      5  N   UNL     1      -3.468  -0.493  24.480  0.00  0.00    -0.199 NA
ATOM      6  C   UNL     1      -4.040  -1.072  24.341  0.00  0.00    +0.271 C 
ATOM      7  O   UNL     1      -4.810  -0.851  24.144  0.00  0.00    -0.268 OA
BRANCH   6   8
ATOM      8  C   UNL     1      -3.841  -1.870  24.398  0.00  0.00    +0.084 A 
ATOM      9  C   UNL     1      -4.011  -2.454  23.840  0.00  0.00    +0.012 A 
ATOM     10  C   UNL     1      -3.713  -3.169  24.121  0.00  0.00    +0.008 A 
ATOM     11  C   UNL     1      -3.359  -3.029  24.853  0.00  0.00    +0.036 A 
ATOM     12  S   UNL     1      -3.438  -2.226  25.024  0.00  0.00    -0.082 S 
ENDBRANCH   6   8
ENDBRANCH   4   5
ENDBRANCH   3   4
BRANCH  15  16
ATOM     16  N   UNL     1      -2.348   2.872  24.748  0.00  0.00    -0.208 NA
BRANCH  16  17
ATOM     17  C   UNL     1      -1.744   3.189  25.213  0.00  0.00    +0.134 C 
BRANCH  17  18
ATOM     18  C   UNL     1      -1.530   3.981  25.128  0.00  0.00    +0.077 A 
ATOM     19  N   UNL     1      -2.050   4.576  25.364  0.00  0.00    -0.247 NA
ATOM     20  C   UNL     1      -1.837   5.369  25.280  0.00  0.00    +0.098 A 
ATOM     21  C   UNL     1      -1.103   5.566  24.959  0.00  0.00    +0.021 A 
ATOM     22  C   UNL     1      -0.583   4.971  24.722  0.00  0.00    +0.003 A 
ATOM     23  C   UNL     1      -0.796   4.178  24.807  0.00  0.00    +0.016 A 
ENDBRANCH  17  18
ENDBRANCH  16  17
ENDBRANCH  15  16
TORSDOF 6
ENDMDL
MODEL 4
REMARK VINA RESULT:      -8.5      2.457      5.912
REMARK  Name = 
REMARK  6 active torsions:
REMARK  status: ('A' for Active; 'I' for Inactive)
REMARK    1  A    between atoms: C_3  and  C_4
REMARK    2  A    between atoms: C_4  and  N_5
REMARK    3  A    between atoms: C_6  and  C_8
REMARK    4  A    between atoms: C_15  and  N_16
REMARK    5  A    between atoms: N_16  and  C_17
REMARK    6  A    between atoms: C_17  and  C_18
REMARK                            x       y       z     vdW  Elec       q    Type
REMARK                         _______ _______ _______ _____ _____    ______ ____
ROOT
ATOM      1  O   UNL     1      -1.091   1.098  23.744  0.00  0.00    -0.219 OA
ATOM      2  C   UNL     1      -1.065   0.987  24.562  0.00  0.00    +0.199 C 
ATOM      3  C   UNL     1      -1.125   0.265  24.956  0.00  0.00    +0.169 C 
ATOM     13  O   UNL     1      -1.072   0.412  25.765  0.00  0.00    -0.350 OA
ATOM     14  C   UNL     1      -0.981   1.225  25.872  0.00  0.00    +0.162 C 
ATOM     15  C   UNL     1      -0.976   1.581  25.129  0.00  0.00    +0.135 C 
ENDROOT
BRANCH   3   4
ATOM      4  C   UNL     1      -1.220  -0.474  24.601  0.00  0.00    +0.148 C 
BRANCH   4   5
ATOM      5  N   UNL     1      -1.963  -0.831  24.586  0.00  0.00    -0.199 NA
ATOM      6  C   UNL     1      -2.032  -1.633  24.403  0.00  0.00    +0.271 C 
ATOM      7  O   UNL     1      -1.357  -2.077  24.237  0.00  0.00    -0.268 OA
BRANCH   6   8
ATOM      8  C   UNL     1      -2.775  -1.991  24.387  0.00  0.00    +0.084 A 
ATOM      9  C   UNL     1      -3.472  -1.648  24.109  0.00  0.00    +0.012 A 
ATOM     10  C   UNL     1      -4.079  -2.199  24.197  0.00  0.00    +0.008 A 
ATOM     11  C   UNL     1      -3.758  -2.882  24.530  0.00  0.00    +0.036 A 
ATOM     12  S   UNL     1      -2.953  -2.754  24.648  0.00  0.00    -0.082 S 
ENDBRANCH   6   8
ENDBRANCH   4   5
ENDBRANCH   3   4
BRANCH  15  16
ATOM     16  N   UNL     1      -0.897   2.387  24.978  0.00  0.00    -0.208 NA
BRANCH  16  17
ATOM     17  C   UNL     1      -1.072   2.936  25.568  0.00  0.00    +0.134 C 
BRANCH  17  18
ATOM     18  C   UNL     1      -1.170   3.733  25.375  0.00  0.00    +0.077 A 
ATOM     19  N   UNL     1      -0.561   4.145  25.001  0.00  0.00    -0.247 NA
ATOM     20  C   UNL     1      -0.659   4.941  24.808  0.00  0.00    +0.098 A 
ATOM     21  C   UNL     1      -1.366   5.325  24.988  0.00  0.00    +0.021 A 
ATOM     22  C   UNL     1      -1.976   4.913  25.362  0.00  0.00    +0.003 A 
ATOM     23  C   UNL     1      -1.878   4.117  25.556  0.00  0.00    +0.016 A 
ENDBRANCH  17  18
ENDBRANCH  16  17
ENDBRANCH  15  16
TORSDOF 6
ENDMDL
MODEL 5
REMARK VINA RESULT:      -7.6      3.280      4.680
REMARK  Name = 
REMARK  6 active torsions:
REMARK  status: ('A' for Active; 'I' for Inactive)
REMARK    1  A    between atoms: C_3  and  C_4
REMARK    2  A    between atoms: C_4  and  N_5
REMARK    3  A    between atoms: C_6  and  C_8
REMARK    4  A    between atoms: C_15  and  N_16
REMARK    5  A    between atoms: N_16  and  C_17
REMARK    6  A    between atoms: C_17  and  C_18
REMARK                            x       y       z     vdW  Elec       q    Type
REMARK                         _______ _______ _______ _____ _____    ______ ____
ROOT
ATOM      1  O   UNL     1      -2.000   0.497  25.287  0.00  0.00    -0.219 OA
ATOM      2  C   UNL     1      -1.906   0.962  24.612  0.00  0.00    +0.199 C 
ATOM      3  C   UNL     1      -1.308   0.885  24.050  0.00  0.00    +0.169 C 
ATOM     13  O   UNL     1      -1.426   1.460  23.471  0.00  0.00    -0.350 OA
ATOM     14  C   UNL     1      -2.098   1.893  23.675  0.00  0.00    +0.162 C 
ATOM     15  C   UNL     1      -2.395   1.585  24.380  0.00  0.00    +0.135 C 
ENDROOT
BRANCH   3   4
ATOM      4  C   UNL     1      -0.697   0.329  24.064  0.00  0.00    +0.148 C 
BRANCH   4   5
ATOM      5  N   UNL     1      -0.052   0.413  23.557  0.00  0.00    -0.199 NA
ATOM      6  C   UNL     1       0.513  -0.187  23.506  0.00  0.00    +0.271 C 
ATOM      7  O   UNL     1       0.431  -0.870  23.961  0.00  0.00    -0.268 OA
BRANCH   6   8
ATOM      8  C   UNL     1       1.159  -0.103  22.999  0.00  0.00    +0.084 A 
ATOM      9  C   UNL     1       1.189  -0.336  22.209  0.00  0.00    +0.012 A 
ATOM     10  C   UNL     1       1.936  -0.149  21.916  0.00  0.00    +0.008 A 
ATOM     11  C   UNL     1       2.369   0.200  22.525  0.00  0.00    +0.036 A 
ATOM     12  S   UNL     1       1.889   0.228  23.195  0.00  0.00    -0.082 S 
ENDBRANCH   6   8
ENDBRANCH   4   5
ENDBRANCH   3   4
BRANCH  15  16
ATOM     16  N   UNL     1      -3.062   1.853  24.783  0.00  0.00    -0.208 NA
BRANCH  16  17
ATOM     17  C   UNL     1      -3.666   2.237  24.372  0.00  0.00    +0.134 C 
BRANCH  17  18
ATOM     18  C   UNL     1      -4.349   2.476  24.769  0.00  0.00    +0.077 A 
ATOM     19  N   UNL     1      -4.347   3.175  25.207  0.00  0.00    -0.247 NA
ATOM     20  C   UNL     1      -5.030   3.415  25.605  0.00  0.00    +0.098 A 
ATOM     21  C   UNL     1      -5.713   2.955  25.563  0.00  0.00    +0.021 A 
ATOM     22  C   UNL     1      -5.715   2.256  25.125  0.00  0.00    +0.003 A 
ATOM     23  C   UNL     1      -5.032   2.016  24.728  0.00  0.00    +0.016 A 
ENDBRANCH  17  18
ENDBRANCH  16  17
ENDBRANCH  15  16
TORSDOF 6
ENDMDL
MODEL 6
REMARK VINA RESULT:      -7.0      3.279      4.203
REMARK  Name = 
REMARK  6 active torsions:
REMARK  status: ('A' for Active; 'I' for Inactive)
REMARK    1  A    between atoms: C_3  and  C_4
REMARK    2  A    between atoms: C_4  and  N_5
REMARK    3  A    between atoms: C_6  and  C_8
REMARK    4  A    between atoms: C_15  and  N_16
REMARK    5  A    between atoms: N_16  and  C_17
REMARK    6  A    between atoms: C_17  and  C_18
REMARK                            x       y       z     vdW  Elec       q    Type
REMARK                         _______ _______ _______ _____ _____    ______ ____
ROOT
ATOM      1  O   UNL     1      -1.895   1.900  22.721  0.00  0.00    -0.219 OA
ATOM      2  C   UNL     1      -1.803   1.698  23.515  0.00  0.00    +0.199 C 
ATOM      3  C   UNL     1      -2.319   1.894  24.128  0.00  0.00    +0.169 C 
ATOM     13  O   UNL     1      -2.013   1.582  24.828  0.00  0.00    -0.350 OA
ATOM     14  C   UNL     1      -1.308   1.194  24.647  0.00  0.00    +0.162 C 
ATOM     15  C   UNL     1      -1.178   1.265  23.836  0.00  0.00    +0.135 C 
ENDROOT
BRANCH   3   4
ATOM      4  C   UNL     1      -3.018   2.326  24.054  0.00  0.00    +0.148 C 
BRANCH   4   5
ATOM      5  N   UNL     1      -3.646   2.187  24.571  0.00  0.00    -0.199 NA
ATOM      6  C   UNL     1      -4.332   2.642  24.519  0.00  0.00    +0.271 C 
ATOM      7  O   UNL     1      -4.390   3.236  23.949  0.00  0.00    -0.268 OA
BRANCH   6   8
ATOM      8  C   UNL     1      -4.960   2.503  25.036  0.00  0.00    +0.084 A 
ATOM      9  C   UNL     1      -5.141   2.944  25.709  0.00  0.00    +0.012 A 
ATOM     10  C   UNL     1      -5.809   2.612  26.059  0.00  0.00    +0.008 A 
ATOM     11  C   UNL     1      -6.042   1.966  25.602  0.00  0.00    +0.036 A 
ATOM     12  S   UNL     1      -5.518   1.898  24.970  0.00  0.00    -0.082 S 
ENDBRANCH   6   8
ENDBRANCH   4   5
ENDBRANCH   3   4
BRANCH  15  16
ATOM     16  N   UNL     1      -0.537   0.958  23.419  0.00  0.00    -0.208 NA
BRANCH  16  17
ATOM     17  C   UNL     1       0.115   0.658  23.827  0.00  0.00    +0.134 C 
BRANCH  17  18
ATOM     18  C   UNL     1       0.804   0.463  23.418  0.00  0.00    +0.077 A 
ATOM     19  N   UNL     1       1.483   0.922  23.512  0.00  0.00    -0.247 NA
ATOM     20  C   UNL     1       2.173   0.728  23.102  0.00  0.00    +0.098 A 
ATOM     21  C   UNL     1       2.183   0.074  22.599  0.00  0.00    +0.021 A 
ATOM     22  C   UNL     1       1.504  -0.385  22.505  0.00  0.00    +0.003 A 
ATOM     23  C   UNL     1       0.814  -0.190  22.914  0.00  0.00    +0.016 A 
ENDBRANCH  17  18
ENDBRANCH  16  17
ENDBRANCH  15  16
TORSDOF 6
ENDMDL
MODEL 7
REMARK VINA RESULT:      -6.1     14.822     16.637
REMARK  Name = 
REMARK  6 active torsions:
REMARK  status: ('A' for Active; 'I' for Inactive)
REMARK    1  A    between atoms: C_3  and  C_4
REMARK    2  A    between atoms: C_4  and  N_5
REMARK    3  A    between atoms: C_6  and  C_8
REMARK    4  A    between atoms: C_15  and  N_16
REMARK    5  A    between atoms: N_16  and  C_17
REMARK    6  A    between atoms: C_17  and  C_18
REMARK                            x       y       z     vdW  Elec       q    Type
REMARK                         _______ _______ _______ _____ _____    ______ ____
ROOT
ATOM      1  O   UNL     1      -3.087 -10.781  14.259  0.00  0.00    -0.219 OA
ATOM      2  C   UNL     1      -3.850 -10.615  13.993  0.00  0.00    +0.199 C 
ATOM      3  C   UNL     1      -4.075 -10.496  13.208  0.00  0.00    +0.169 C 
ATOM     13  O   UNL     1      -4.885 -10.346  13.195  0.00  0.00    -0.350 OA
ATOM     14  C   UNL     1      -5.162 -10.372  13.972  0.00  0.00    +0.162 C 
ATOM     15  C   UNL     1      -4.522 -10.538  14.465  0.00  0.00    +0.135 C 
ENDROOT
BRANCH   3   4
ATOM      4  C   UNL     1      -3.575 -10.523  12.552  0.00  0.00    +0.148 C 
BRANCH   4   5
ATOM      5  N   UNL     1      -3.812 -10.181  11.839  0.00  0.00    -0.199 NA
ATOM      6  C   UNL     1      -3.336 -10.253  11.169  0.00  0.00    +0.271 C 
ATOM      7  O   UNL     1      -2.624 -10.667  11.211  0.00  0.00    -0.268 OA
BRANCH   6   8
ATOM      8  C   UNL     1      -3.573  -9.910  10.457  0.00  0.00    +0.084 A 
ATOM      9  C   UNL     1      -3.397  -9.145  10.205  0.00  0.00    +0.012 A 
ATOM     10  C   UNL     1      -3.742  -9.035   9.464  0.00  0.00    +0.008 A 
ATOM     11  C   UNL     1      -4.131  -9.732   9.257  0.00  0.00    +0.036 A 
ATOM     12  S   UNL     1      -4.027 -10.273   9.870  0.00  0.00    -0.082 S 
ENDBRANCH   6   8
ENDBRANCH   4   5
ENDBRANCH   3   4
BRANCH  15  16
ATOM     16  N   UNL     1      -4.550 -10.613  15.286  0.00  0.00    -0.208 NA
BRANCH  16  17
ATOM     17  C   UNL     1      -5.196 -10.320  15.706  0.00  0.00    +0.134 C 
BRANCH  17  18
ATOM     18  C   UNL     1      -5.257 -10.456  16.517  0.00  0.00    +0.077 A 
ATOM     19  N   UNL     1      -5.992 -10.625  16.853  0.00  0.00    -0.247 NA
ATOM     20  C   UNL     1      -6.053 -10.761  17.664  0.00  0.00    +0.098 A 
ATOM     21  C   UNL     1      -5.380 -10.729  18.140  0.00  0.00    +0.021 A 
ATOM     22  C   UNL     1      -4.645 -10.560  17.804  0.00  0.00    +0.003 A 
ATOM     23  C   UNL     1      -4.584 -10.423  16.993  0.00  0.00    +0.016 A 
ENDBRANCH  17  18
ENDBRANCH  16  17
ENDBRANCH  15  16
TORSDOF 6
ENDMDL
MODEL 8
REMARK VINA RESULT:      -6.1     14.314     14.871
REMARK  Name = 
REMARK  6 active torsions:
REMARK  status: ('A' for Active; 'I' for Inactive)
REMARK    1  A    between atoms: C_3  and  C_4
REMARK    2  A    between atoms: C_4  and  N_5
REMARK    3  A    between atoms: C_6  and  C_8
REMARK    4  A    between atoms: C_15  and  N_16
REMARK    5  A    between atoms: N_16  and  C_17
REMARK    6  A    between atoms: C_17  and  C_18
REMARK                            x       y       z     vdW  Elec       q    Type
REMARK                         _______ _______ _______ _____ _____    ______ ____
ROOT
ATOM      1  O   UNL     1      -4.943 -10.397  17.869  0.00  0.00    -0.219 OA
ATOM      2  C   UNL     1      -5.202 -10.332  17.089  0.00  0.00    +0.199 C 
ATOM      3  C   UNL     1      -5.982 -10.224  16.844  0.00  0.00    +0.169 C 
ATOM     13  O   UNL     1      -5.987 -10.189  16.020  0.00  0.00    -0.350 OA
ATOM     14  C   UNL     1      -5.211 -10.276  15.755  0.00  0.00    +0.162 C 
ATOM     15  C   UNL     1      -4.725 -10.364  16.416  0.00  0.00    +0.135 C 
ENDROOT
BRANCH   3   4
ATOM      4  C   UNL     1      -6.641 -10.161  17.336  0.00  0.00    +0.148 C 
BRANCH   4   5
ATOM      5  N   UNL     1      -7.328  -9.797  17.062  0.00  0.00    -0.199 NA
ATOM      6  C   UNL     1      -8.008  -9.792  17.530  0.00  0.00    +0.271 C 
ATOM      7  O   UNL     1      -8.000 -10.152  18.272  0.00  0.00    -0.268 OA
BRANCH   6   8
ATOM      8  C   UNL     1      -8.695  -9.427  17.256  0.00  0.00    +0.084 A 
ATOM      9  C   UNL     1      -9.331  -9.804  16.888  0.00  0.00    +0.012 A 
ATOM     10  C   UNL     1      -9.895  -9.231  16.706  0.00  0.00    +0.008 A 
ATOM     11  C   UNL     1      -9.609  -8.501  16.961  0.00  0.00    +0.036 A 
ATOM     12  S   UNL     1      -8.868  -8.621  17.300  0.00  0.00    -0.082 S 
ENDBRANCH   6   8
ENDBRANCH   4   5
ENDBRANCH   3   4
BRANCH  15  16
ATOM     16  N   UNL     1      -3.907 -10.467  16.406  0.00  0.00    -0.208 NA
BRANCH  16  17
ATOM     17  C   UNL     1      -3.519 -10.619  15.694  0.00  0.00    +0.134 C 
BRANCH  17  18
ATOM     18  C   UNL     1      -2.695 -10.599  15.660  0.00  0.00    +0.077 A 
ATOM     19  N   UNL     1      -2.250 -10.781  16.331  0.00  0.00    -0.247 NA
ATOM     20  C   UNL     1      -1.426 -10.761  16.297  0.00  0.00    +0.098 A 
ATOM     21  C   UNL     1      -1.047 -10.559  15.593  0.00  0.00    +0.021 A 
ATOM     22  C   UNL     1      -1.492 -10.377  14.922  0.00  0.00    +0.003 A 
ATOM     23  C   UNL     1      -2.316 -10.397  14.956  0.00  0.00    +0.016 A 
ENDBRANCH  17  18
ENDBRANCH  16  17
ENDBRANCH  15  16
TORSDOF 6
ENDMDL
MODEL 9
REMARK VINA RESULT:      -6.0     18.166     19.924
REMARK  Name = 
REMARK  6 active torsions:
REMARK  status: ('A' for Active; 'I' for Inactive)
REMARK    1  A    between atoms: C_3  and  C_4
REMARK    2  A    between atoms: C_4  and  N_5
REMARK    3  A    between atoms: C_6  and  C_8
REMARK    4  A    between atoms: C_15  and  N_16
REMARK    5  A    between atoms: N_16  and  C_17
REMARK    6  A    between atoms: C_17  and  C_18
REMARK                            x       y       z     vdW  Elec       q    Type
REMARK                         _______ _______ _______ _____ _____    ______ ____
ROOT
ATOM      1  O   UNL     1      14.957   7.245  17.613  0.00  0.00    -0.219 OA
ATOM      2  C   UNL     1      14.643   7.849  18.079  0.00  0.00    +0.199 C 
ATOM      3  C   UNL     1      14.075   8.399  17.843  0.00  0.00    +0.169 C 
ATOM     13  O   UNL     1      13.923   8.897  18.482  0.00  0.00    -0.350 OA
ATOM     14  C   UNL     1      14.396   8.656  19.113  0.00  0.00    +0.162 C 
ATOM     15  C   UNL     1      14.841   8.008  18.865  0.00  0.00    +0.135 C 
ENDROOT
BRANCH   3   4
ATOM      4  C   UNL     1      13.722   8.442  17.099  0.00  0.00    +0.148 C 
BRANCH   4   5
ATOM      5  N   UNL     1      12.903   8.515  17.034  0.00  0.00    -0.199 NA
ATOM      6  C   UNL     1      12.564   8.732  16.314  0.00  0.00    +0.271 C 
ATOM      7  O   UNL     1      13.044   8.874  15.658  0.00  0.00    -0.268 OA
BRANCH   6   8
ATOM      8  C   UNL     1      11.745   8.805  16.249  0.00  0.00    +0.084 A 
ATOM      9  C   UNL     1      11.192   8.604  16.828  0.00  0.00    +0.012 A 
ATOM     10  C   UNL     1      10.441   8.767  16.531  0.00  0.00    +0.008 A 
ATOM     11  C   UNL     1      10.528   9.069  15.768  0.00  0.00    +0.036 A 
ATOM     12  S   UNL     1      11.333   9.093  15.594  0.00  0.00    -0.082 S 
ENDBRANCH   6   8
ENDBRANCH   4   5
ENDBRANCH   3   4
BRANCH  15  16
ATOM     16  N   UNL     1      15.388   7.592  19.320  0.00  0.00    -0.208 NA
BRANCH  16  17
ATOM     17  C   UNL     1      15.503   7.793  20.112  0.00  0.00    +0.134 C 
BRANCH  17  18
ATOM     18  C   UNL     1      16.084   7.409  20.555  0.00  0.00    +0.077 A 
ATOM     19  N   UNL     1      15.925   6.676  20.898  0.00  0.00    -0.247 NA
ATOM     20  C   UNL     1      16.506   6.293  21.341  0.00  0.00    +0.098 A 
ATOM     21  C   UNL     1      17.246   6.643  21.441  0.00  0.00    +0.021 A 
ATOM     22  C   UNL     1      17.405   7.376  21.098  0.00  0.00    +0.003 A 
ATOM     23  C   UNL     1      16.824   7.760  20.655  0.00  0.00    +0.016 A 
ENDBRANCH  17  18
ENDBRANCH  16  17
ENDBRANCH  15  16
TORSDOF 6
ENDMDL
MODEL 10
REMARK VINA RESULT:      -5.9     15.672     17.681
REMARK  Name = 
REMARK  6 active torsions:
REMARK  status: ('A' for Active; 'I' for Inactive)
REMARK    1  A    between atoms: C_3  and  C_4
REMARK    2  A    between atoms: C_4  and  N_5
REMARK    3  A    between atoms: C_6  and  C_8
REMARK    4  A    between atoms: C_15  and  N_16
REMARK    5  A    between atoms: N_16  and  C_17
REMARK    6  A    between atoms: C_17  and  C_18
REMARK                            x       y       z     vdW  Elec       q    Type
REMARK                         _______ _______ _______ _____ _____    ______ ____
ROOT
ATOM      1  O   UNL     1      -1.749  -9.971  11.679  0.00  0.00    -0.219 OA
ATOM      2  C   UNL     1      -2.518 -10.193  11.878  0.00  0.00    +0.199 C 
ATOM      3  C   UNL     1      -3.172 -10.184  11.376  0.00  0.00    +0.169 C 
ATOM     13  O   UNL     1      -3.826 -10.448  11.803  0.00  0.00    -0.350 OA
ATOM     14  C   UNL     1      -3.577 -10.621  12.570  0.00  0.00    +0.162 C 
ATOM     15  C   UNL     1      -2.769 -10.464  12.617  0.00  0.00    +0.135 C 
ENDROOT
BRANCH   3   4
ATOM      4  C   UNL     1      -3.172  -9.950  10.584  0.00  0.00    +0.148 C 
BRANCH   4   5
ATOM      5  N   UNL     1      -3.871  -9.973  10.147  0.00  0.00    -0.199 NA
ATOM      6  C   UNL     1      -3.957  -9.493   9.481  0.00  0.00    +0.271 C 
ATOM      7  O   UNL     1      -3.343  -8.992   9.252  0.00  0.00    -0.268 OA
BRANCH   6   8
ATOM      8  C   UNL     1      -4.656  -9.516   9.044  0.00  0.00    +0.084 A 
ATOM      9  C   UNL     1      -4.858 -10.083   8.480  0.00  0.00    +0.012 A 
ATOM     10  C   UNL     1      -5.603  -9.893   8.182  0.00  0.00    +0.008 A 
ATOM     11  C   UNL     1      -5.861  -9.207   8.561  0.00  0.00    +0.036 A 
ATOM     12  S   UNL     1      -5.277  -8.974   9.093  0.00  0.00    -0.082 S 
ENDBRANCH   6   8
ENDBRANCH   4   5
ENDBRANCH   3   4
BRANCH  15  16
ATOM     16  N   UNL     1      -2.294 -10.560  13.284  0.00  0.00    -0.208 NA
BRANCH  16  17
ATOM     17  C   UNL     1      -2.603 -10.412  14.035  0.00  0.00    +0.134 C 
BRANCH  17  18
ATOM     18  C   UNL     1      -2.106 -10.412  14.693  0.00  0.00    +0.077 A 
ATOM     19  N   UNL     1      -1.368 -10.044  14.654  0.00  0.00    -0.247 NA
ATOM     20  C   UNL     1      -0.871 -10.045  15.312  0.00  0.00    +0.098 A 
ATOM     21  C   UNL     1      -1.111 -10.413  16.010  0.00  0.00    +0.021 A 
ATOM     22  C   UNL     1      -1.848 -10.781  16.050  0.00  0.00    +0.003 A 
ATOM     23  C   UNL     1      -2.346 -10.781  15.391  0.00  0.00    +0.016 A 
ENDBRANCH  17  18
ENDBRANCH  16  17
ENDBRANCH  15  16
TORSDOF 6
ENDMDL
