MODEL 1
REMARK VINA RESULT:     -12.2      0.000      0.000
REMARK  Name = 
REMARK  5 active torsions:
REMARK  status: ('A' for Active; 'I' for Inactive)
REMARK    1  A    between atoms: O_2  and  C_3
REMARK    2  A    between atoms: C_3  and  C_4
REMARK    3  A    between atoms: C_4  and  C_5
REMARK    4  A    between atoms: C_14  and  C_21
REMARK    5  A    between atoms: C_24  and  O_25
REMARK                            x       y       z     vdW  Elec       q    Type
REMARK                         _______ _______ _______ _____ _____    ______ ____
ROOT
ATOM      5  C   UNL     1      -3.189   2.849  24.526  0.00  0.00    +0.228 C 
ATOM      6  O   UNL     1      -3.899   2.560  24.832  0.00  0.00    -0.275 OA
ATOM      7  N   UNL     1      -2.621   2.325  24.236  0.00  0.00    -0.279 N 
ATOM      8  C   UNL     1      -1.906   2.062  23.894  0.00  0.00    +0.095 C 
ATOM      9  C   UNL     1      -2.064   1.087  23.906  0.00  0.00    +0.043 C 
ATOM     10  C   UNL     1      -2.041   0.275  23.846  0.00  0.00    +0.011 C 
ATOM     11  C   UNL     1      -2.486   0.765  24.078  0.00  0.00    +0.058 C 
ATOM     12  C   UNL     1      -2.318   1.705  24.059  0.00  0.00    +0.099 C 
ATOM     13  C   UNL     1      -3.316   0.862  24.462  0.00  0.00    +0.041 A 
ATOM     14  C   UNL     1      -3.955   0.413  24.726  0.00  0.00    +0.012 A 
ATOM     15  C   UNL     1      -4.616   0.787  25.049  0.00  0.00    +0.006 A 
ATOM     16  C   UNL     1      -4.636   1.610  25.109  0.00  0.00    +0.061 A 
ATOM     17  C   UNL     1      -3.996   2.058  24.845  0.00  0.00    +0.261 A 
ATOM     18  O   UNL     1      -4.247   2.827  25.007  0.00  0.00    -0.267 OA
ATOM     19  N   UNL     1      -3.336   1.684  24.522  0.00  0.00    -0.299 N 
ATOM     20  C   UNL     1      -2.930   1.198  24.307  0.00  0.00    +0.110 C 
ENDROOT
BRANCH  14  21
ATOM     21  C   UNL     1      -3.935  -0.410  24.666  0.00  0.00    +0.001 A 
ATOM     22  C   UNL     1      -3.624  -0.861  25.283  0.00  0.00    +0.003 A 
ATOM     23  C   UNL     1      -3.604  -1.683  25.223  0.00  0.00    +0.037 A 
ATOM     24  C   UNL     1      -3.894  -2.055  24.546  0.00  0.00    +0.139 A 
ATOM     27  C   UNL     1      -4.205  -1.605  23.929  0.00  0.00    +0.037 A 
ATOM     28  C   UNL     1      -4.225  -0.782  23.989  0.00  0.00    +0.003 A 
BRANCH  24  25
ATOM     25  O   UNL     1      -3.874  -2.877  24.486  0.00  0.00    -0.471 OA
ATOM     26  C   UNL     1      -3.176  -3.286  24.648  0.00  0.00    +0.252 C 
ENDBRANCH  24  25
ENDBRANCH  14  21
BRANCH   5   4
ATOM      4  C   UNL     1      -3.046   3.661  24.511  0.00  0.00    +0.117 C 
BRANCH   4   3
ATOM      3  C   UNL     1      -2.561   4.005  25.083  0.00  0.00    +0.152 C 
BRANCH   3   2
ATOM      1  C   UNL     1      -1.693   5.106  25.358  0.00  0.00    +0.174 C 
ATOM      2  O   UNL     1      -2.404   4.815  25.058  0.00  0.00    -0.351 OA
ENDBRANCH   3   2
ENDBRANCH   4   3
ENDBRANCH   5   4
TORSDOF 5
ENDMDL
MODEL 2
REMARK VINA RESULT:     -11.5      1.377      4.706
REMARK  Name = 
REMARK  5 active torsions:
REMARK  status: ('A' for Active; 'I' for Inactive)
REMARK    1  A    between atoms: O_2  and  C_3
REMARK    2  A    between atoms: C_3  and  C_4
REMARK    3  A    between atoms: C_4  and  C_5
REMARK    4  A    between atoms: C_14  and  C_21
REMARK    5  A    between atoms: C_24  and  O_25
REMARK                            x       y       z     vdW  Elec       q    Type
REMARK                         _______ _______ _______ _____ _____    ______ ____
ROOT
ATOM      5  C   UNL     1      -3.205  -0.487  25.087  0.00  0.00    +0.228 C 
ATOM      6  O   UNL     1      -2.404  -0.443  25.283  0.00  0.00    -0.275 OA
ATOM      7  N   UNL     1      -3.616   0.198  24.879  0.00  0.00    -0.279 N 
ATOM      8  C   UNL     1      -4.256   0.682  24.644  0.00  0.00    +0.095 C 
ATOM      9  C   UNL     1      -3.802   1.559  24.625  0.00  0.00    +0.043 C 
ATOM     10  C   UNL     1      -3.580   2.340  24.562  0.00  0.00    +0.011 C 
ATOM     11  C   UNL     1      -3.281   1.728  24.731  0.00  0.00    +0.058 C 
ATOM     12  C   UNL     1      -3.734   0.887  24.744  0.00  0.00    +0.099 C 
ATOM     13  C   UNL     1      -2.477   1.365  24.989  0.00  0.00    +0.041 A 
ATOM     14  C   UNL     1      -1.699   1.584  25.152  0.00  0.00    +0.012 A 
ATOM     15  C   UNL     1      -1.149   1.013  25.378  0.00  0.00    +0.006 A 
ATOM     16  C   UNL     1      -1.377   0.222  25.441  0.00  0.00    +0.061 A 
ATOM     17  C   UNL     1      -2.155   0.003  25.278  0.00  0.00    +0.261 A 
ATOM     18  O   UNL     1      -2.135  -0.811  25.407  0.00  0.00    -0.267 OA
ATOM     19  N   UNL     1      -2.705   0.575  25.052  0.00  0.00    -0.299 N 
ATOM     20  C   UNL     1      -2.966   1.171  24.895  0.00  0.00    +0.110 C 
ENDROOT
BRANCH  14  21
ATOM     21  C   UNL     1      -1.470   2.375  25.090  0.00  0.00    +0.001 A 
ATOM     22  C   UNL     1      -1.165   2.661  24.379  0.00  0.00    +0.003 A 
ATOM     23  C   UNL     1      -0.937   3.451  24.316  0.00  0.00    +0.037 A 
ATOM     24  C   UNL     1      -1.014   3.956  24.964  0.00  0.00    +0.139 A 
ATOM     27  C   UNL     1      -1.319   3.670  25.675  0.00  0.00    +0.037 A 
ATOM     28  C   UNL     1      -1.547   2.879  25.738  0.00  0.00    +0.003 A 
BRANCH  24  25
ATOM     25  O   UNL     1      -0.786   4.745  24.902  0.00  0.00    -0.471 OA
ATOM     26  C   UNL     1      -1.344   5.345  24.998  0.00  0.00    +0.252 C 
ENDBRANCH  24  25
ENDBRANCH  14  21
BRANCH   5   4
ATOM      4  C   UNL     1      -3.594  -1.214  25.099  0.00  0.00    +0.117 C 
BRANCH   4   3
ATOM      3  C   UNL     1      -3.553  -1.715  24.445  0.00  0.00    +0.152 C 
BRANCH   3   2
ATOM      1  C   UNL     1      -3.969  -2.906  23.775  0.00  0.00    +0.174 C 
ATOM      2  O   UNL     1      -3.949  -2.439  24.454  0.00  0.00    -0.351 OA
ENDBRANCH   3   2
ENDBRANCH   4   3
ENDBRANCH   5   4
TORSDOF 5
ENDMDL
