MODEL 1
REMARK VINA RESULT:     -13.0      0.000      0.000
REMARK  Name = 
REMARK  7 active torsions:
REMARK  status: ('A' for Active; 'I' for Inactive)
REMARK    1  A    between atoms: C_5  and  N_6
REMARK    2  A    between atoms: N_9  and  C_10
REMARK    3  A    between atoms: C_12  and  C_18
REMARK    4  A    between atoms: N_20  and  C_21
REMARK    5  A    between atoms: C_21  and  C_22
REMARK    6  A    between atoms: C_21  and  C_29
REMARK    7  A    between atoms: C_22  and  C_23
REMARK                            x       y       z     vdW  Elec       q    Type
REMARK                         _______ _______ _______ _____ _____    ______ ____
ROOT
ATOM     10  C   UNL     1      -4.919   2.003  24.898  0.00  0.00    +0.152 C 
ATOM     11  C   UNL     1      -4.220   2.399  24.710  0.00  0.00    -0.002 C 
ATOM     12  C   UNL     1      -4.091   3.165  24.987  0.00  0.00    +0.033 C 
ATOM     13  C   UNL     1      -4.662   3.537  25.452  0.00  0.00    +0.066 C 
ATOM     14  C   UNL     1      -5.362   3.142  25.641  0.00  0.00    +0.189 C 
ATOM     15  O   UNL     1      -5.933   3.513  26.107  0.00  0.00    -0.220 OA
ATOM     16  C   UNL     1      -5.490   2.375  25.364  0.00  0.00    +0.206 C 
ATOM     17  O   UNL     1      -6.190   1.980  25.552  0.00  0.00    -0.218 OA
ENDROOT
BRANCH  10   9
ATOM      6  N   UNL     1      -4.614  -0.117  24.480  0.00  0.00    -0.161 NA
ATOM      7  C   UNL     1      -4.486   0.650  24.757  0.00  0.00    +0.344 C 
ATOM      8  O   UNL     1      -3.795   0.828  25.171  0.00  0.00    -0.249 OA
ATOM      9  N   UNL     1      -5.048   1.237  24.621  0.00  0.00    -0.181 NA
BRANCH   6   5
ATOM      1  C   UNL     1      -2.365  -2.469  25.024  0.00  0.00    +0.031 C 
ATOM      2  C   UNL     1      -2.928  -1.881  24.889  0.00  0.00    -0.022 A 
ATOM      3  C   UNL     1      -3.382  -1.592  25.514  0.00  0.00    -0.003 A 
ATOM      4  C   UNL     1      -3.943  -1.004  25.378  0.00  0.00    +0.016 A 
ATOM      5  C   UNL     1      -4.052  -0.705  24.616  0.00  0.00    +0.075 A 
ATOM     32  C   UNL     1      -3.598  -0.994  23.991  0.00  0.00    +0.016 A 
ATOM     33  C   UNL     1      -3.036  -1.582  24.127  0.00  0.00    -0.003 A 
ENDBRANCH   6   5
ENDBRANCH  10   9
BRANCH  12  18
ATOM     18  C   UNL     1      -3.392   3.560  24.799  0.00  0.00    +0.261 C 
ATOM     19  O   UNL     1      -3.352   4.028  24.121  0.00  0.00    -0.269 OA
ATOM     20  N   UNL     1      -2.732   3.487  25.289  0.00  0.00    -0.194 NA
BRANCH  20  21
ATOM     21  C   UNL     1      -2.033   3.881  25.101  0.00  0.00    +0.179 C 
BRANCH  21  29
ATOM     29  C   UNL     1      -1.912   4.654  25.366  0.00  0.00    +0.281 C 
ATOM     30  N   UNL     1      -1.530   5.201  24.880  0.00  0.00    -0.086 NA
ATOM     31  O   UNL     1      -2.172   4.879  26.115  0.00  0.00    -0.270 OA
ENDBRANCH  21  29
BRANCH  21  22
ATOM     22  C   UNL     1      -1.455   3.505  24.651  0.00  0.00    +0.057 C 
BRANCH  22  23
ATOM     23  C   UNL     1      -1.003   2.898  24.982  0.00  0.00    -0.020 A 
ATOM     24  C   UNL     1      -0.674   2.991  25.733  0.00  0.00    -0.004 A 
ATOM     25  C   UNL     1      -0.223   2.385  26.063  0.00  0.00    -0.000 A 
ATOM     26  C   UNL     1      -0.100   1.685  25.643  0.00  0.00    -0.000 A 
ATOM     27  C   UNL     1      -0.429   1.592  24.893  0.00  0.00    -0.000 A 
ATOM     28  C   UNL     1      -0.881   2.199  24.562  0.00  0.00    -0.004 A 
ENDBRANCH  22  23
ENDBRANCH  21  22
ENDBRANCH  20  21
ENDBRANCH  12  18
TORSDOF 7
ENDMDL
MODEL 2
REMARK VINA RESULT:     -12.5      1.858      5.142
REMARK  Name = 
REMARK  7 active torsions:
REMARK  status: ('A' for Active; 'I' for Inactive)
REMARK    1  A    between atoms: C_5  and  N_6
REMARK    2  A    between atoms: N_9  and  C_10
REMARK    3  A    between atoms: C_12  and  C_18
REMARK    4  A    between atoms: N_20  and  C_21
REMARK    5  A    between atoms: C_21  and  C_22
REMARK    6  A    between atoms: C_21  and  C_29
REMARK    7  A    between atoms: C_22  and  C_23
REMARK                            x       y       z     vdW  Elec       q    Type
REMARK                         _______ _______ _______ _____ _____    ______ ____
ROOT
ATOM     10  C   UNL     1      -1.413   2.013  24.251  0.00  0.00    +0.152 C 
ATOM     11  C   UNL     1      -1.568   1.245  24.508  0.00  0.00    -0.002 C 
ATOM     12  C   UNL     1      -0.953   0.767  24.781  0.00  0.00    +0.033 C 
ATOM     13  C   UNL     1      -0.182   1.059  24.797  0.00  0.00    +0.066 C 
ATOM     14  C   UNL     1      -0.025   1.828  24.540  0.00  0.00    +0.189 C 
ATOM     15  O   UNL     1       0.746   2.120  24.556  0.00  0.00    -0.220 OA
ATOM     16  C   UNL     1      -0.641   2.305  24.267  0.00  0.00    +0.206 C 
ATOM     17  O   UNL     1      -0.485   3.073  24.010  0.00  0.00    -0.218 OA
ENDROOT
BRANCH  10   9
ATOM      6  N   UNL     1      -3.349   3.012  24.128  0.00  0.00    -0.161 NA
ATOM      7  C   UNL     1      -2.734   2.535  24.401  0.00  0.00    +0.344 C 
ATOM      8  O   UNL     1      -2.824   2.104  25.099  0.00  0.00    -0.249 OA
ATOM      9  N   UNL     1      -2.028   2.489  23.977  0.00  0.00    -0.181 NA
BRANCH   6   5
ATOM      1  C   UNL     1      -6.174   3.196  25.824  0.00  0.00    +0.031 C 
ATOM      2  C   UNL     1      -5.467   3.150  25.400  0.00  0.00    -0.022 A 
ATOM      3  C   UNL     1      -5.342   2.526  24.875  0.00  0.00    -0.003 A 
ATOM      4  C   UNL     1      -4.636   2.480  24.451  0.00  0.00    +0.016 A 
ATOM      5  C   UNL     1      -4.055   3.058  24.552  0.00  0.00    +0.075 A 
ATOM     32  C   UNL     1      -4.181   3.681  25.077  0.00  0.00    +0.016 A 
ATOM     33  C   UNL     1      -4.888   3.727  25.501  0.00  0.00    -0.003 A 
ENDBRANCH   6   5
ENDBRANCH  10   9
BRANCH  12  18
ATOM     18  C   UNL     1      -1.109  -0.000  25.038  0.00  0.00    +0.261 C 
ATOM     19  O   UNL     1      -0.884  -0.235  25.796  0.00  0.00    -0.269 OA
ATOM     20  N   UNL     1      -1.490  -0.534  24.537  0.00  0.00    -0.194 NA
BRANCH  20  21
ATOM     21  C   UNL     1      -1.646  -1.302  24.794  0.00  0.00    +0.179 C 
BRANCH  21  29
ATOM     29  C   UNL     1      -1.097  -1.902  24.655  0.00  0.00    +0.281 C 
ATOM     30  N   UNL     1      -0.810  -2.352  25.284  0.00  0.00    -0.086 NA
ATOM     31  O   UNL     1      -0.835  -2.052  23.887  0.00  0.00    -0.270 OA
ENDBRANCH  21  29
BRANCH  21  22
ATOM     22  C   UNL     1      -2.350  -1.470  25.188  0.00  0.00    +0.057 C 
BRANCH  22  23
ATOM     23  C   UNL     1      -3.025  -1.675  24.759  0.00  0.00    -0.020 A 
ATOM     24  C   UNL     1      -3.530  -1.087  24.479  0.00  0.00    -0.004 A 
ATOM     25  C   UNL     1      -4.204  -1.292  24.051  0.00  0.00    -0.000 A 
ATOM     26  C   UNL     1      -4.374  -2.086  23.902  0.00  0.00    -0.000 A 
ATOM     27  C   UNL     1      -3.868  -2.675  24.183  0.00  0.00    -0.000 A 
ATOM     28  C   UNL     1      -3.193  -2.469  24.611  0.00  0.00    -0.004 A 
ENDBRANCH  22  23
ENDBRANCH  21  22
ENDBRANCH  20  21
ENDBRANCH  12  18
TORSDOF 7
ENDMDL
MODEL 3
REMARK VINA RESULT:     -12.4      1.629      3.524
REMARK  Name = 
REMARK  7 active torsions:
REMARK  status: ('A' for Active; 'I' for Inactive)
REMARK    1  A    between atoms: C_5  and  N_6
REMARK    2  A    between atoms: N_9  and  C_10
REMARK    3  A    between atoms: C_12  and  C_18
REMARK    4  A    between atoms: N_20  and  C_21
REMARK    5  A    between atoms: C_21  and  C_22
REMARK    6  A    between atoms: C_21  and  C_29
REMARK    7  A    between atoms: C_22  and  C_23
REMARK                            x       y       z     vdW  Elec       q    Type
REMARK                         _______ _______ _______ _____ _____    ______ ____
ROOT
ATOM     10  C   UNL     1      -0.989   0.956  25.107  0.00  0.00    +0.152 C 
ATOM     11  C   UNL     1      -1.506   1.598  25.151  0.00  0.00    -0.002 C 
ATOM     12  C   UNL     1      -1.287   2.328  24.835  0.00  0.00    +0.033 C 
ATOM     13  C   UNL     1      -0.550   2.417  24.474  0.00  0.00    +0.066 C 
ATOM     14  C   UNL     1      -0.033   1.775  24.429  0.00  0.00    +0.189 C 
ATOM     15  O   UNL     1       0.704   1.864  24.068  0.00  0.00    -0.220 OA
ATOM     16  C   UNL     1      -0.252   1.045  24.746  0.00  0.00    +0.206 C 
ATOM     17  O   UNL     1       0.265   0.404  24.701  0.00  0.00    -0.218 OA
ENDROOT
BRANCH  10   9
ATOM      6  N   UNL     1      -2.016  -0.951  25.374  0.00  0.00    -0.161 NA
ATOM      7  C   UNL     1      -1.796  -0.221  25.058  0.00  0.00    +0.344 C 
ATOM      8  O   UNL     1      -2.166   0.061  24.377  0.00  0.00    -0.249 OA
ATOM      9  N   UNL     1      -1.208   0.227  25.423  0.00  0.00    -0.181 NA
BRANCH   6   5
ATOM      1  C   UNL     1      -4.370  -2.744  23.914  0.00  0.00    +0.031 C 
ATOM      2  C   UNL     1      -3.781  -2.295  24.280  0.00  0.00    -0.022 A 
ATOM      3  C   UNL     1      -3.981  -1.607  24.690  0.00  0.00    -0.003 A 
ATOM      4  C   UNL     1      -3.393  -1.160  25.054  0.00  0.00    +0.016 A 
ATOM      5  C   UNL     1      -2.604  -1.398  25.009  0.00  0.00    +0.075 A 
ATOM     32  C   UNL     1      -2.404  -2.086  24.599  0.00  0.00    +0.016 A 
ATOM     33  C   UNL     1      -2.993  -2.535  24.234  0.00  0.00    -0.003 A 
ENDBRANCH   6   5
ENDBRANCH  10   9
BRANCH  12  18
ATOM     18  C   UNL     1      -1.804   2.969  24.879  0.00  0.00    +0.261 C 
ATOM     19  O   UNL     1      -1.629   3.668  24.479  0.00  0.00    -0.269 OA
ATOM     20  N   UNL     1      -2.496   2.910  25.324  0.00  0.00    -0.194 NA
BRANCH  20  21
ATOM     21  C   UNL     1      -3.013   3.551  25.369  0.00  0.00    +0.179 C 
BRANCH  21  29
ATOM     29  C   UNL     1      -2.882   4.149  25.923  0.00  0.00    +0.281 C 
ATOM     30  N   UNL     1      -2.800   4.931  25.674  0.00  0.00    -0.086 NA
ATOM     31  O   UNL     1      -2.832   3.964  26.726  0.00  0.00    -0.270 OA
ENDBRANCH  21  29
BRANCH  21  22
ATOM     22  C   UNL     1      -3.661   3.595  24.862  0.00  0.00    +0.057 C 
BRANCH  22  23
ATOM     23  C   UNL     1      -4.325   3.124  24.998  0.00  0.00    -0.020 A 
ATOM     24  C   UNL     1      -4.514   2.515  24.475  0.00  0.00    -0.004 A 
ATOM     25  C   UNL     1      -5.178   2.045  24.612  0.00  0.00    -0.000 A 
ATOM     26  C   UNL     1      -5.653   2.183  25.272  0.00  0.00    -0.000 A 
ATOM     27  C   UNL     1      -5.464   2.792  25.795  0.00  0.00    -0.000 A 
ATOM     28  C   UNL     1      -4.800   3.263  25.659  0.00  0.00    -0.004 A 
ENDBRANCH  22  23
ENDBRANCH  21  22
ENDBRANCH  20  21
ENDBRANCH  12  18
TORSDOF 7
ENDMDL
MODEL 4
REMARK VINA RESULT:     -12.1      1.255      4.268
REMARK  Name = 
REMARK  7 active torsions:
REMARK  status: ('A' for Active; 'I' for Inactive)
REMARK    1  A    between atoms: C_5  and  N_6
REMARK    2  A    between atoms: N_9  and  C_10
REMARK    3  A    between atoms: C_12  and  C_18
REMARK    4  A    between atoms: N_20  and  C_21
REMARK    5  A    between atoms: C_21  and  C_22
REMARK    6  A    between atoms: C_21  and  C_29
REMARK    7  A    between atoms: C_22  and  C_23
REMARK                            x       y       z     vdW  Elec       q    Type
REMARK                         _______ _______ _______ _____ _____    ______ ____
ROOT
ATOM     10  C   UNL     1      -4.674   2.401  25.535  0.00  0.00    +0.152 C 
ATOM     11  C   UNL     1      -4.302   1.688  25.352  0.00  0.00    -0.002 C 
ATOM     12  C   UNL     1      -4.723   1.087  24.973  0.00  0.00    +0.033 C 
ATOM     13  C   UNL     1      -5.517   1.201  24.778  0.00  0.00    +0.066 C 
ATOM     14  C   UNL     1      -5.889   1.914  24.961  0.00  0.00    +0.189 C 
ATOM     15  O   UNL     1      -6.683   2.028  24.766  0.00  0.00    -0.220 OA
ATOM     16  C   UNL     1      -5.468   2.515  25.340  0.00  0.00    +0.206 C 
ATOM     17  O   UNL     1      -5.840   3.227  25.523  0.00  0.00    -0.218 OA
ENDROOT
BRANCH  10   9
ATOM      6  N   UNL     1      -3.126   3.878  25.967  0.00  0.00    -0.161 NA
ATOM      7  C   UNL     1      -3.548   3.278  25.588  0.00  0.00    +0.344 C 
ATOM      8  O   UNL     1      -3.263   2.955  24.885  0.00  0.00    -0.249 OA
ATOM      9  N   UNL     1      -4.253   3.001  25.913  0.00  0.00    -0.181 NA
BRANCH   6   5
ATOM      1  C   UNL     1      -0.303   4.987  24.666  0.00  0.00    +0.031 C 
ATOM      2  C   UNL     1      -1.010   4.710  24.992  0.00  0.00    -0.022 A 
ATOM      3  C   UNL     1      -1.028   3.981  25.378  0.00  0.00    -0.003 A 
ATOM      4  C   UNL     1      -1.733   3.704  25.703  0.00  0.00    +0.016 A 
ATOM      5  C   UNL     1      -2.421   4.155  25.642  0.00  0.00    +0.075 A 
ATOM     32  C   UNL     1      -2.403   4.884  25.256  0.00  0.00    +0.016 A 
ATOM     33  C   UNL     1      -1.697   5.162  24.931  0.00  0.00    -0.003 A 
ENDBRANCH   6   5
ENDBRANCH  10   9
BRANCH  12  18
ATOM     18  C   UNL     1      -4.352   0.375  24.790  0.00  0.00    +0.261 C 
ATOM     19  O   UNL     1      -4.629  -0.087  24.166  0.00  0.00    -0.269 OA
ATOM     20  N   UNL     1      -3.702   0.123  25.232  0.00  0.00    -0.194 NA
BRANCH  20  21
ATOM     21  C   UNL     1      -3.329  -0.590  25.049  0.00  0.00    +0.179 C 
BRANCH  21  29
ATOM     29  C   UNL     1      -3.566  -1.286  25.424  0.00  0.00    +0.281 C 
ATOM     30  N   UNL     1      -3.726  -1.960  24.976  0.00  0.00    -0.086 NA
ATOM     31  O   UNL     1      -3.644  -1.308  26.245  0.00  0.00    -0.270 OA
ENDBRANCH  21  29
BRANCH  21  22
ATOM     22  C   UNL     1      -2.721  -0.607  24.494  0.00  0.00    +0.057 C 
BRANCH  22  23
ATOM     23  C   UNL     1      -1.978  -0.300  24.685  0.00  0.00    -0.020 A 
ATOM     24  C   UNL     1      -1.658  -0.431  25.434  0.00  0.00    -0.004 A 
ATOM     25  C   UNL     1      -0.917  -0.125  25.625  0.00  0.00    -0.000 A 
ATOM     26  C   UNL     1      -0.494   0.312  25.067  0.00  0.00    -0.000 A 
ATOM     27  C   UNL     1      -0.814   0.443  24.317  0.00  0.00    -0.000 A 
ATOM     28  C   UNL     1      -1.557   0.136  24.126  0.00  0.00    -0.004 A 
ENDBRANCH  22  23
ENDBRANCH  21  22
ENDBRANCH  20  21
ENDBRANCH  12  18
TORSDOF 7
ENDMDL
MODEL 5
REMARK VINA RESULT:     -11.8      2.253      5.839
REMARK  Name = 
REMARK  7 active torsions:
REMARK  status: ('A' for Active; 'I' for Inactive)
REMARK    1  A    between atoms: C_5  and  N_6
REMARK    2  A    between atoms: N_9  and  C_10
REMARK    3  A    between atoms: C_12  and  C_18
REMARK    4  A    between atoms: N_20  and  C_21
REMARK    5  A    between atoms: C_21  and  C_22
REMARK    6  A    between atoms: C_21  and  C_29
REMARK    7  A    between atoms: C_22  and  C_23
REMARK                            x       y       z     vdW  Elec       q    Type
REMARK                         _______ _______ _______ _____ _____    ______ ____
ROOT
ATOM     10  C   UNL     1       0.125   0.956  24.564  0.00  0.00    +0.152 C 
ATOM     11  C   UNL     1      -0.391   0.397  24.884  0.00  0.00    -0.002 C 
ATOM     12  C   UNL     1      -0.490  -0.334  24.514  0.00  0.00    +0.033 C 
ATOM     13  C   UNL     1      -0.072  -0.506  23.823  0.00  0.00    +0.066 C 
ATOM     14  C   UNL     1       0.444   0.053  23.503  0.00  0.00    +0.189 C 
ATOM     15  O   UNL     1       0.862  -0.119  22.813  0.00  0.00    -0.220 OA
ATOM     16  C   UNL     1       0.542   0.784  23.874  0.00  0.00    +0.206 C 
ATOM     17  O   UNL     1       1.058   1.342  23.554  0.00  0.00    -0.218 OA
ENDROOT
BRANCH  10   9
ATOM      6  N   UNL     1      -0.316   2.935  25.370  0.00  0.00    -0.161 NA
ATOM      7  C   UNL     1      -0.414   2.205  25.000  0.00  0.00    +0.344 C 
ATOM      8  O   UNL     1      -1.151   1.993  24.694  0.00  0.00    -0.249 OA
ATOM      9  N   UNL     1       0.223   1.686  24.935  0.00  0.00    -0.181 NA
BRANCH   6   5
ATOM      1  C   UNL     1      -2.868   5.013  25.630  0.00  0.00    +0.031 C 
ATOM      2  C   UNL     1      -2.229   4.493  25.565  0.00  0.00    -0.022 A 
ATOM      3  C   UNL     1      -2.221   3.794  26.003  0.00  0.00    -0.003 A 
ATOM      4  C   UNL     1      -1.583   3.275  25.938  0.00  0.00    +0.016 A 
ATOM      5  C   UNL     1      -0.954   3.454  25.435  0.00  0.00    +0.075 A 
ATOM     32  C   UNL     1      -0.963   4.153  24.997  0.00  0.00    +0.016 A 
ATOM     33  C   UNL     1      -1.601   4.673  25.062  0.00  0.00    -0.003 A 
ENDBRANCH   6   5
ENDBRANCH  10   9
BRANCH  12  18
ATOM     18  C   UNL     1      -1.005  -0.893  24.833  0.00  0.00    +0.261 C 
ATOM     19  O   UNL     1      -0.783  -1.327  25.498  0.00  0.00    -0.269 OA
ATOM     20  N   UNL     1      -1.744  -1.017  24.487  0.00  0.00    -0.194 NA
BRANCH  20  21
ATOM     21  C   UNL     1      -2.260  -1.576  24.806  0.00  0.00    +0.179 C 
BRANCH  21  29
ATOM     29  C   UNL     1      -2.175  -2.374  24.612  0.00  0.00    +0.281 C 
ATOM     30  N   UNL     1      -2.248  -2.950  25.198  0.00  0.00    -0.086 NA
ATOM     31  O   UNL     1      -2.019  -2.594  23.833  0.00  0.00    -0.270 OA
ENDBRANCH  21  29
BRANCH  21  22
ATOM     22  C   UNL     1      -2.861  -1.338  25.318  0.00  0.00    +0.057 C 
BRANCH  22  23
ATOM     23  C   UNL     1      -3.487  -0.880  25.035  0.00  0.00    -0.020 A 
ATOM     24  C   UNL     1      -3.913  -1.127  24.374  0.00  0.00    -0.004 A 
ATOM     25  C   UNL     1      -4.539  -0.670  24.092  0.00  0.00    -0.000 A 
ATOM     26  C   UNL     1      -4.739   0.035  24.471  0.00  0.00    -0.000 A 
ATOM     27  C   UNL     1      -4.313   0.282  25.133  0.00  0.00    -0.000 A 
ATOM     28  C   UNL     1      -3.686  -0.175  25.415  0.00  0.00    -0.004 A 
ENDBRANCH  22  23
ENDBRANCH  21  22
ENDBRANCH  20  21
ENDBRANCH  12  18
TORSDOF 7
ENDMDL
