MODEL 1
REMARK VINA RESULT:     -12.1      0.000      0.000
REMARK  Name = 
REMARK  5 active torsions:
REMARK  status: ('A' for Active; 'I' for Inactive)
REMARK    1  A    between atoms: O_2  and  C_3
REMARK    2  A    between atoms: C_6  and  C_7
REMARK    3  A    between atoms: C_7  and  N_8
REMARK    4  A    between atoms: C_9  and  O_11
REMARK    5  A    between atoms: O_11  and  C_12
REMARK                            x       y       z     vdW  Elec       q    Type
REMARK                         _______ _______ _______ _____ _____    ______ ____
ROOT
ATOM     12  C   UNL     1      -4.908   2.178  24.827  0.00  0.00    +0.220 C 
ATOM     13  C   UNL     1      -5.638   2.434  25.113  0.00  0.00    +0.187 C 
ATOM     14  O   UNL     1      -5.824   3.148  25.483  0.00  0.00    -0.348 OA
ATOM     15  C   UNL     1      -5.326   3.781  25.659  0.00  0.00    +0.164 C 
ATOM     16  C   UNL     1      -4.519   3.858  25.507  0.00  0.00    +0.125 C 
ATOM     17  N   UNL     1      -4.010   3.320  25.143  0.00  0.00    -0.282 N 
ATOM     18  C   UNL     1      -4.184   2.573  24.841  0.00  0.00    +0.139 C 
ATOM     19  C   UNL     1      -3.225   3.562  25.073  0.00  0.00    +0.163 A 
ATOM     20  N   UNL     1      -2.914   4.282  25.331  0.00  0.00    -0.224 NA
ATOM     21  C   UNL     1      -2.110   4.291  25.149  0.00  0.00    +0.089 A 
ATOM     22  C   UNL     1      -1.522   4.857  25.273  0.00  0.00    +0.020 A 
ATOM     23  C   UNL     1      -0.749   4.710  25.027  0.00  0.00    +0.002 A 
ATOM     24  C   UNL     1      -0.563   3.996  24.657  0.00  0.00    +0.001 A 
ATOM     25  C   UNL     1      -1.149   3.430  24.533  0.00  0.00    +0.008 A 
ATOM     26  C   UNL     1      -1.923   3.578  24.779  0.00  0.00    +0.050 A 
ATOM     27  S   UNL     1      -2.612   3.127  24.732  0.00  0.00    -0.052 S 
ENDROOT
BRANCH  12  11
ATOM     11  O   UNL     1      -4.901   1.429  24.482  0.00  0.00    -0.433 OA
BRANCH  11   9
ATOM      8  N   UNL     1      -4.285   0.165  24.739  0.00  0.00    -0.164 NA
ATOM      9  C   UNL     1      -4.818   0.758  24.954  0.00  0.00    +0.421 C 
ATOM     10  O   UNL     1      -5.266   0.679  25.643  0.00  0.00    -0.225 OA
BRANCH   8   7
ATOM      7  C   UNL     1      -4.201  -0.506  25.211  0.00  0.00    +0.145 C 
BRANCH   7   6
ATOM      3  C   UNL     1      -2.529  -2.235  24.622  0.00  0.00    +0.139 A 
ATOM      4  C   UNL     1      -3.297  -2.282  24.321  0.00  0.00    +0.037 A 
ATOM      5  C   UNL     1      -3.853  -1.707  24.517  0.00  0.00    +0.001 A 
ATOM      6  C   UNL     1      -3.644  -1.082  25.015  0.00  0.00    -0.000 A 
ATOM     28  C   UNL     1      -2.878  -1.034  25.316  0.00  0.00    +0.001 A 
ATOM     29  C   UNL     1      -2.320  -1.610  25.120  0.00  0.00    +0.037 A 
BRANCH   3   2
ATOM      1  C   UNL     1      -1.187  -2.597  24.295  0.00  0.00    +0.252 C 
ATOM      2  O   UNL     1      -1.973  -2.810  24.426  0.00  0.00    -0.471 OA
ENDBRANCH   3   2
ENDBRANCH   7   6
ENDBRANCH   8   7
ENDBRANCH  11   9
ENDBRANCH  12  11
TORSDOF 5
ENDMDL
MODEL 2
REMARK VINA RESULT:     -11.7      2.275      5.685
REMARK  Name = 
REMARK  5 active torsions:
REMARK  status: ('A' for Active; 'I' for Inactive)
REMARK    1  A    between atoms: O_2  and  C_3
REMARK    2  A    between atoms: C_6  and  C_7
REMARK    3  A    between atoms: C_7  and  N_8
REMARK    4  A    between atoms: C_9  and  O_11
REMARK    5  A    between atoms: O_11  and  C_12
REMARK                            x       y       z     vdW  Elec       q    Type
REMARK                         _______ _______ _______ _____ _____    ______ ____
ROOT
ATOM     12  C   UNL     1      -0.267   1.363  24.738  0.00  0.00    +0.220 C 
ATOM     13  C   UNL     1       0.393   1.442  24.250  0.00  0.00    +0.187 C 
ATOM     14  O   UNL     1       0.703   0.900  23.710  0.00  0.00    -0.348 OA
ATOM     15  C   UNL     1       0.428   0.145  23.525  0.00  0.00    +0.164 C 
ATOM     16  C   UNL     1      -0.224  -0.255  23.834  0.00  0.00    +0.125 C 
ATOM     17  N   UNL     1      -0.762   0.001  24.405  0.00  0.00    -0.282 N 
ATOM     18  C   UNL     1      -0.781   0.721  24.807  0.00  0.00    +0.139 C 
ATOM     19  C   UNL     1      -1.360  -0.533  24.598  0.00  0.00    +0.163 A 
ATOM     20  N   UNL     1      -1.461  -1.286  24.275  0.00  0.00    -0.224 NA
ATOM     21  C   UNL     1      -2.125  -1.626  24.626  0.00  0.00    +0.089 A 
ATOM     22  C   UNL     1      -2.489  -2.360  24.524  0.00  0.00    +0.020 A 
ATOM     23  C   UNL     1      -3.161  -2.552  24.962  0.00  0.00    +0.002 A 
ATOM     24  C   UNL     1      -3.470  -2.010  25.502  0.00  0.00    +0.001 A 
ATOM     25  C   UNL     1      -3.107  -1.276  25.604  0.00  0.00    +0.008 A 
ATOM     26  C   UNL     1      -2.434  -1.084  25.166  0.00  0.00    +0.050 A 
ATOM     27  S   UNL     1      -1.961  -0.409  25.149  0.00  0.00    -0.052 S 
ENDROOT
BRANCH  12  11
ATOM     11  O   UNL     1      -0.435   2.010  25.221  0.00  0.00    -0.433 OA
BRANCH  11   9
ATOM      8  N   UNL     1      -1.626   2.799  25.175  0.00  0.00    -0.164 NA
ATOM      9  C   UNL     1      -0.854   2.652  24.919  0.00  0.00    +0.421 C 
ATOM     10  O   UNL     1      -0.504   3.149  24.361  0.00  0.00    -0.225 OA
BRANCH   8   7
ATOM      7  C   UNL     1      -2.045   3.442  24.873  0.00  0.00    +0.145 C 
BRANCH   7   6
ATOM      3  C   UNL     1      -4.470   3.661  25.323  0.00  0.00    +0.139 A 
ATOM      4  C   UNL     1      -4.210   3.352  24.603  0.00  0.00    +0.037 A 
ATOM      5  C   UNL     1      -3.402   3.279  24.453  0.00  0.00    +0.001 A 
ATOM      6  C   UNL     1      -2.853   3.515  25.023  0.00  0.00    -0.000 A 
ATOM     28  C   UNL     1      -3.113   3.823  25.742  0.00  0.00    +0.001 A 
ATOM     29  C   UNL     1      -3.921   3.896  25.893  0.00  0.00    +0.037 A 
BRANCH   3   2
ATOM      1  C   UNL     1      -5.715   3.073  25.703  0.00  0.00    +0.252 C 
ATOM      2  O   UNL     1      -5.277   3.733  25.472  0.00  0.00    -0.471 OA
ENDBRANCH   3   2
ENDBRANCH   7   6
ENDBRANCH   8   7
ENDBRANCH  11   9
ENDBRANCH  12  11
TORSDOF 5
ENDMDL
MODEL 3
REMARK VINA RESULT:     -11.4      1.984      3.444
REMARK  Name = 
REMARK  5 active torsions:
REMARK  status: ('A' for Active; 'I' for Inactive)
REMARK    1  A    between atoms: O_2  and  C_3
REMARK    2  A    between atoms: C_6  and  C_7
REMARK    3  A    between atoms: C_7  and  N_8
REMARK    4  A    between atoms: C_9  and  O_11
REMARK    5  A    between atoms: O_11  and  C_12
REMARK                            x       y       z     vdW  Elec       q    Type
REMARK                         _______ _______ _______ _____ _____    ______ ____
ROOT
ATOM     12  C   UNL     1      -1.190   3.147  24.498  0.00  0.00    +0.220 C 
ATOM     13  C   UNL     1      -0.721   3.795  24.702  0.00  0.00    +0.187 C 
ATOM     14  O   UNL     1      -0.940   4.485  25.098  0.00  0.00    -0.348 OA
ATOM     15  C   UNL     1      -1.682   4.698  25.386  0.00  0.00    +0.164 C 
ATOM     16  C   UNL     1      -2.389   4.274  25.351  0.00  0.00    +0.125 C 
ATOM     17  N   UNL     1      -2.528   3.532  25.019  0.00  0.00    -0.282 N 
ATOM     18  C   UNL     1      -1.994   3.031  24.639  0.00  0.00    +0.139 C 
ATOM     19  C   UNL     1      -3.303   3.255  25.073  0.00  0.00    +0.163 A 
ATOM     20  N   UNL     1      -3.936   3.651  25.425  0.00  0.00    -0.224 NA
ATOM     21  C   UNL     1      -4.605   3.174  25.354  0.00  0.00    +0.089 A 
ATOM     22  C   UNL     1      -5.386   3.278  25.598  0.00  0.00    +0.020 A 
ATOM     23  C   UNL     1      -5.947   2.694  25.448  0.00  0.00    +0.002 A 
ATOM     24  C   UNL     1      -5.728   2.003  25.053  0.00  0.00    +0.001 A 
ATOM     25  C   UNL     1      -4.948   1.898  24.808  0.00  0.00    +0.008 A 
ATOM     26  C   UNL     1      -4.386   2.484  24.959  0.00  0.00    +0.050 A 
ATOM     27  S   UNL     1      -3.581   2.534  24.785  0.00  0.00    -0.052 S 
ENDROOT
BRANCH  12  11
ATOM     11  O   UNL     1      -0.803   2.537  24.101  0.00  0.00    -0.433 OA
BRANCH  11   9
ATOM      8  N   UNL     1      -0.733   1.153  24.452  0.00  0.00    -0.164 NA
ATOM      9  C   UNL     1      -0.450   1.925  24.527  0.00  0.00    +0.421 C 
ATOM     10  O   UNL     1       0.185   2.085  25.029  0.00  0.00    -0.225 OA
BRANCH   8   7
ATOM      7  C   UNL     1      -0.381   0.542  24.879  0.00  0.00    +0.145 C 
BRANCH   7   6
ATOM      3  C   UNL     1      -1.351  -1.735  24.812  0.00  0.00    +0.139 A 
ATOM      4  C   UNL     1      -0.757  -1.524  24.280  0.00  0.00    +0.037 A 
ATOM      5  C   UNL     1      -0.434  -0.766  24.302  0.00  0.00    +0.001 A 
ATOM      6  C   UNL     1      -0.704  -0.217  24.857  0.00  0.00    -0.000 A 
ATOM     28  C   UNL     1      -1.298  -0.428  25.389  0.00  0.00    +0.001 A 
ATOM     29  C   UNL     1      -1.622  -1.187  25.367  0.00  0.00    +0.037 A 
BRANCH   3   2
ATOM      1  C   UNL     1      -2.459  -2.601  24.558  0.00  0.00    +0.252 C 
ATOM      2  O   UNL     1      -1.674  -2.493  24.789  0.00  0.00    -0.471 OA
ENDBRANCH   3   2
ENDBRANCH   7   6
ENDBRANCH   8   7
ENDBRANCH  11   9
ENDBRANCH  12  11
TORSDOF 5
ENDMDL
MODEL 4
REMARK VINA RESULT:     -10.7      1.679      4.270
REMARK  Name = 
REMARK  5 active torsions:
REMARK  status: ('A' for Active; 'I' for Inactive)
REMARK    1  A    between atoms: O_2  and  C_3
REMARK    2  A    between atoms: C_6  and  C_7
REMARK    3  A    between atoms: C_7  and  N_8
REMARK    4  A    between atoms: C_9  and  O_11
REMARK    5  A    between atoms: O_11  and  C_12
REMARK                            x       y       z     vdW  Elec       q    Type
REMARK                         _______ _______ _______ _____ _____    ______ ____
ROOT
ATOM     12  C   UNL     1      -4.530   3.287  25.235  0.00  0.00    +0.220 C 
ATOM     13  C   UNL     1      -5.163   3.601  25.662  0.00  0.00    +0.187 C 
ATOM     14  O   UNL     1      -5.815   3.207  25.979  0.00  0.00    -0.348 OA
ATOM     15  C   UNL     1      -5.995   2.403  25.948  0.00  0.00    +0.164 C 
ATOM     16  C   UNL     1      -5.568   1.794  25.593  0.00  0.00    +0.125 C 
ATOM     17  N   UNL     1      -4.855   1.838  25.180  0.00  0.00    -0.282 N 
ATOM     18  C   UNL     1      -4.394   2.503  25.021  0.00  0.00    +0.139 C 
ATOM     19  C   UNL     1      -4.566   1.123  24.887  0.00  0.00    +0.163 A 
ATOM     20  N   UNL     1      -4.924   0.384  24.972  0.00  0.00    -0.224 NA
ATOM     21  C   UNL     1      -4.447  -0.174  24.596  0.00  0.00    +0.089 A 
ATOM     22  C   UNL     1      -4.522  -0.990  24.501  0.00  0.00    +0.020 A 
ATOM     23  C   UNL     1      -3.946  -1.413  24.089  0.00  0.00    +0.002 A 
ATOM     24  C   UNL     1      -3.295  -1.019  23.772  0.00  0.00    +0.001 A 
ATOM     25  C   UNL     1      -3.218  -0.203  23.866  0.00  0.00    +0.008 A 
ATOM     26  C   UNL     1      -3.796   0.219  24.279  0.00  0.00    +0.050 A 
ATOM     27  S   UNL     1      -3.869   1.021  24.459  0.00  0.00    -0.052 S 
ENDROOT
BRANCH  12  11
ATOM     11  O   UNL     1      -3.959   3.830  24.991  0.00  0.00    -0.433 OA
BRANCH  11   9
ATOM      8  N   UNL     1      -2.538   3.716  25.096  0.00  0.00    -0.164 NA
ATOM      9  C   UNL     1      -3.266   3.924  25.427  0.00  0.00    +0.421 C 
ATOM     10  O   UNL     1      -3.298   4.225  26.195  0.00  0.00    -0.225 OA
BRANCH   8   7
ATOM      7  C   UNL     1      -1.845   3.809  25.532  0.00  0.00    +0.145 C 
BRANCH   7   6
ATOM      3  C   UNL     1       0.157   2.462  24.977  0.00  0.00    +0.139 A 
ATOM      4  C   UNL     1      -0.176   2.960  24.409  0.00  0.00    +0.037 A 
ATOM      5  C   UNL     1      -0.843   3.408  24.594  0.00  0.00    +0.001 A 
ATOM      6  C   UNL     1      -1.177   3.360  25.347  0.00  0.00    -0.000 A 
ATOM     28  C   UNL     1      -0.845   2.863  25.915  0.00  0.00    +0.001 A 
ATOM     29  C   UNL     1      -0.177   2.414  25.730  0.00  0.00    +0.037 A 
BRANCH   3   2
ATOM      1  C   UNL     1       0.795   1.467  24.174  0.00  0.00    +0.252 C 
ATOM      2  O   UNL     1       0.824   2.014  24.792  0.00  0.00    -0.471 OA
ENDBRANCH   3   2
ENDBRANCH   7   6
ENDBRANCH   8   7
ENDBRANCH  11   9
ENDBRANCH  12  11
TORSDOF 5
ENDMDL
MODEL 5
REMARK VINA RESULT:     -10.5      1.967      4.957
REMARK  Name = 
REMARK  5 active torsions:
REMARK  status: ('A' for Active; 'I' for Inactive)
REMARK    1  A    between atoms: O_2  and  C_3
REMARK    2  A    between atoms: C_6  and  C_7
REMARK    3  A    between atoms: C_7  and  N_8
REMARK    4  A    between atoms: C_9  and  O_11
REMARK    5  A    between atoms: O_11  and  C_12
REMARK                            x       y       z     vdW  Elec       q    Type
REMARK                         _______ _______ _______ _____ _____    ______ ____
ROOT
ATOM     12  C   UNL     1      -2.095  -0.683  24.539  0.00  0.00    +0.220 C 
ATOM     13  C   UNL     1      -2.042  -1.478  24.757  0.00  0.00    +0.187 C 
ATOM     14  O   UNL     1      -2.609  -1.948  25.129  0.00  0.00    -0.348 OA
ATOM     15  C   UNL     1      -3.368  -1.741  25.374  0.00  0.00    +0.164 C 
ATOM     16  C   UNL     1      -3.749  -1.013  25.308  0.00  0.00    +0.125 C 
ATOM     17  N   UNL     1      -3.465  -0.311  24.981  0.00  0.00    -0.282 N 
ATOM     18  C   UNL     1      -2.729  -0.165  24.638  0.00  0.00    +0.139 C 
ATOM     19  C   UNL     1      -3.985   0.329  24.998  0.00  0.00    +0.163 A 
ATOM     20  N   UNL     1      -4.750   0.324  25.309  0.00  0.00    -0.224 NA
ATOM     21  C   UNL     1      -5.069   1.078  25.210  0.00  0.00    +0.089 A 
ATOM     22  C   UNL     1      -5.803   1.397  25.411  0.00  0.00    +0.020 A 
ATOM     23  C   UNL     1      -5.971   2.186  25.240  0.00  0.00    +0.002 A 
ATOM     24  C   UNL     1      -5.404   2.657  24.868  0.00  0.00    +0.001 A 
ATOM     25  C   UNL     1      -4.670   2.339  24.667  0.00  0.00    +0.008 A 
ATOM     26  C   UNL     1      -4.503   1.548  24.839  0.00  0.00    +0.050 A 
ATOM     27  S   UNL     1      -3.833   1.086  24.707  0.00  0.00    -0.052 S 
ENDROOT
BRANCH  12  11
ATOM     11  O   UNL     1      -1.427  -0.367  24.173  0.00  0.00    -0.433 OA
BRANCH  11   9
ATOM      8  N   UNL     1      -0.814   0.894  24.447  0.00  0.00    -0.164 NA
ATOM      9  C   UNL     1      -0.895   0.088  24.607  0.00  0.00    +0.421 C 
ATOM     10  O   UNL     1      -0.443  -0.260  25.203  0.00  0.00    -0.225 OA
BRANCH   8   7
ATOM      7  C   UNL     1      -0.282   1.350  24.882  0.00  0.00    +0.145 C 
BRANCH   7   6
ATOM      3  C   UNL     1      -0.598   3.800  25.048  0.00  0.00    +0.139 A 
ATOM      4  C   UNL     1      -0.494   3.446  24.310  0.00  0.00    +0.037 A 
ATOM      5  C   UNL     1      -0.389   2.631  24.255  0.00  0.00    +0.001 A 
ATOM      6  C   UNL     1      -0.387   2.167  24.937  0.00  0.00    -0.000 A 
ATOM     28  C   UNL     1      -0.491   2.520  25.675  0.00  0.00    +0.001 A 
ATOM     29  C   UNL     1      -0.596   3.336  25.731  0.00  0.00    +0.037 A 
BRANCH   3   2
ATOM      1  C   UNL     1      -1.463   4.930  25.173  0.00  0.00    +0.252 C 
ATOM      2  O   UNL     1      -0.703   4.616  25.103  0.00  0.00    -0.471 OA
ENDBRANCH   3   2
ENDBRANCH   7   6
ENDBRANCH   8   7
ENDBRANCH  11   9
ENDBRANCH  12  11
TORSDOF 5
ENDMDL
MODEL 6
REMARK VINA RESULT:      -9.5      1.622      4.175
REMARK  Name = 
REMARK  5 active torsions:
REMARK  status: ('A' for Active; 'I' for Inactive)
REMARK    1  A    between atoms: O_2  and  C_3
REMARK    2  A    between atoms: C_6  and  C_7
REMARK    3  A    between atoms: C_7  and  N_8
REMARK    4  A    between atoms: C_9  and  O_11
REMARK    5  A    between atoms: O_11  and  C_12
REMARK                            x       y       z     vdW  Elec       q    Type
REMARK                         _______ _______ _______ _____ _____    ______ ____
ROOT
ATOM     12  C   UNL     1      -2.513  -0.652  24.431  0.00  0.00    +0.220 C 
ATOM     13  C   UNL     1      -2.329  -1.439  24.598  0.00  0.00    +0.187 C 
ATOM     14  O   UNL     1      -1.693  -1.738  25.031  0.00  0.00    -0.348 OA
ATOM     15  C   UNL     1      -1.085  -1.324  25.403  0.00  0.00    +0.164 C 
ATOM     16  C   UNL     1      -0.962  -0.509  25.435  0.00  0.00    +0.125 C 
ATOM     17  N   UNL     1      -1.416   0.093  25.102  0.00  0.00    -0.282 N 
ATOM     18  C   UNL     1      -2.106   0.030  24.655  0.00  0.00    +0.139 C 
ATOM     19  C   UNL     1      -1.144   0.861  25.233  0.00  0.00    +0.163 A 
ATOM     20  N   UNL     1      -0.470   1.070  25.661  0.00  0.00    -0.224 NA
ATOM     21  C   UNL     1      -0.408   1.892  25.652  0.00  0.00    +0.089 A 
ATOM     22  C   UNL     1       0.145   2.409  25.982  0.00  0.00    +0.020 A 
ATOM     23  C   UNL     1       0.063   3.222  25.879  0.00  0.00    +0.002 A 
ATOM     24  C   UNL     1      -0.572   3.521  25.446  0.00  0.00    +0.001 A 
ATOM     25  C   UNL     1      -1.126   3.007  25.116  0.00  0.00    +0.008 A 
ATOM     26  C   UNL     1      -1.043   2.192  25.219  0.00  0.00    +0.050 A 
ATOM     27  S   UNL     1      -1.498   1.554  24.960  0.00  0.00    -0.052 S 
ENDROOT
BRANCH  12  11
ATOM     11  O   UNL     1      -3.193  -0.532  23.980  0.00  0.00    -0.433 OA
BRANCH  11   9
ATOM      8  N   UNL     1      -4.232   0.356  24.400  0.00  0.00    -0.164 NA
ATOM      9  C   UNL     1      -3.918  -0.406  24.352  0.00  0.00    +0.421 C 
ATOM     10  O   UNL     1      -4.331  -1.043  24.677  0.00  0.00    -0.225 OA
BRANCH   8   7
ATOM      7  C   UNL     1      -4.957   0.481  24.772  0.00  0.00    +0.145 C 
BRANCH   7   6
ATOM      3  C   UNL     1      -5.607   2.763  25.481  0.00  0.00    +0.139 A 
ATOM      4  C   UNL     1      -5.189   2.652  24.777  0.00  0.00    +0.037 A 
ATOM      5  C   UNL     1      -4.972   1.892  24.542  0.00  0.00    +0.001 A 
ATOM      6  C   UNL     1      -5.174   1.241  25.008  0.00  0.00    -0.000 A 
ATOM     28  C   UNL     1      -5.592   1.352  25.710  0.00  0.00    +0.001 A 
ATOM     29  C   UNL     1      -5.808   2.112  25.947  0.00  0.00    +0.037 A 
BRANCH   3   2
ATOM      1  C   UNL     1      -5.339   4.165  25.532  0.00  0.00    +0.252 C 
ATOM      2  O   UNL     1      -5.823   3.522  25.716  0.00  0.00    -0.471 OA
ENDBRANCH   3   2
ENDBRANCH   7   6
ENDBRANCH   8   7
ENDBRANCH  11   9
ENDBRANCH  12  11
TORSDOF 5
ENDMDL
MODEL 7
REMARK VINA RESULT:      -9.3      1.950      4.744
REMARK  Name = 
REMARK  5 active torsions:
REMARK  status: ('A' for Active; 'I' for Inactive)
REMARK    1  A    between atoms: O_2  and  C_3
REMARK    2  A    between atoms: C_6  and  C_7
REMARK    3  A    between atoms: C_7  and  N_8
REMARK    4  A    between atoms: C_9  and  O_11
REMARK    5  A    between atoms: O_11  and  C_12
REMARK                            x       y       z     vdW  Elec       q    Type
REMARK                         _______ _______ _______ _____ _____    ______ ____
ROOT
ATOM     12  C   UNL     1      -3.939   0.304  24.799  0.00  0.00    +0.220 C 
ATOM     13  C   UNL     1      -4.395  -0.188  25.280  0.00  0.00    +0.187 C 
ATOM     14  O   UNL     1      -4.168  -0.877  25.674  0.00  0.00    -0.348 OA
ATOM     15  C   UNL     1      -3.429  -1.243  25.685  0.00  0.00    +0.164 C 
ATOM     16  C   UNL     1      -2.734  -1.011  25.305  0.00  0.00    +0.125 C 
ATOM     17  N   UNL     1      -2.607  -0.356  24.819  0.00  0.00    -0.282 N 
ATOM     18  C   UNL     1      -3.143   0.229  24.595  0.00  0.00    +0.139 C 
ATOM     19  C   UNL     1      -1.843  -0.276  24.519  0.00  0.00    +0.163 A 
ATOM     20  N   UNL     1      -1.210  -0.786  24.662  0.00  0.00    -0.224 NA
ATOM     21  C   UNL     1      -0.554  -0.498  24.255  0.00  0.00    +0.089 A 
ATOM     22  C   UNL     1       0.222  -0.772  24.192  0.00  0.00    +0.020 A 
ATOM     23  C   UNL     1       0.770  -0.359  23.735  0.00  0.00    +0.002 A 
ATOM     24  C   UNL     1       0.543   0.329  23.341  0.00  0.00    +0.001 A 
ATOM     25  C   UNL     1      -0.232   0.605  23.404  0.00  0.00    +0.008 A 
ATOM     26  C   UNL     1      -0.781   0.191  23.861  0.00  0.00    +0.050 A 
ATOM     27  S   UNL     1      -1.577   0.327  24.024  0.00  0.00    -0.052 S 
ENDROOT
BRANCH  12  11
ATOM     11  O   UNL     1      -4.330   0.957  24.482  0.00  0.00    -0.433 OA
BRANCH  11   9
ATOM      8  N   UNL     1      -3.934   2.292  24.803  0.00  0.00    -0.164 NA
ATOM      9  C   UNL     1      -4.425   1.641  24.933  0.00  0.00    +0.421 C 
ATOM     10  O   UNL     1      -5.010   1.675  25.514  0.00  0.00    -0.225 OA
BRANCH   8   7
ATOM      7  C   UNL     1      -4.029   2.976  25.254  0.00  0.00    +0.145 C 
BRANCH   7   6
ATOM      3  C   UNL     1      -2.215   4.658  25.349  0.00  0.00    +0.139 A 
ATOM      4  C   UNL     1      -2.497   4.316  26.045  0.00  0.00    +0.037 A 
ATOM      5  C   UNL     1      -3.101   3.756  26.013  0.00  0.00    +0.001 A 
ATOM      6  C   UNL     1      -3.424   3.537  25.286  0.00  0.00    -0.000 A 
ATOM     28  C   UNL     1      -3.142   3.879  24.590  0.00  0.00    +0.001 A 
ATOM     29  C   UNL     1      -2.538   4.440  24.622  0.00  0.00    +0.037 A 
BRANCH   3   2
ATOM      1  C   UNL     1      -0.907   5.091  24.968  0.00  0.00    +0.252 C 
ATOM      2  O   UNL     1      -1.611   5.219  25.381  0.00  0.00    -0.471 OA
ENDBRANCH   3   2
ENDBRANCH   7   6
ENDBRANCH   8   7
ENDBRANCH  11   9
ENDBRANCH  12  11
TORSDOF 5
ENDMDL
MODEL 8
REMARK VINA RESULT:      -8.9     16.546     18.938
REMARK  Name = 
REMARK  5 active torsions:
REMARK  status: ('A' for Active; 'I' for Inactive)
REMARK    1  A    between atoms: O_2  and  C_3
REMARK    2  A    between atoms: C_6  and  C_7
REMARK    3  A    between atoms: C_7  and  N_8
REMARK    4  A    between atoms: C_9  and  O_11
REMARK    5  A    between atoms: O_11  and  C_12
REMARK                            x       y       z     vdW  Elec       q    Type
REMARK                         _______ _______ _______ _____ _____    ______ ____
ROOT
ATOM     12  C   UNL     1      12.576   8.443  20.896  0.00  0.00    +0.220 C 
ATOM     13  C   UNL     1      12.105   8.252  21.546  0.00  0.00    +0.187 C 
ATOM     14  O   UNL     1      11.295   8.094  21.567  0.00  0.00    -0.348 OA
ATOM     15  C   UNL     1      10.757   8.088  20.942  0.00  0.00    +0.164 C 
ATOM     16  C   UNL     1      10.895   8.239  20.143  0.00  0.00    +0.125 C 
ATOM     17  N   UNL     1      11.605   8.433  19.771  0.00  0.00    -0.282 N 
ATOM     18  C   UNL     1      12.353   8.524  20.106  0.00  0.00    +0.139 C 
ATOM     19  C   UNL     1      11.562   8.552  18.956  0.00  0.00    +0.163 A 
ATOM     20  N   UNL     1      10.881   8.494  18.493  0.00  0.00    -0.224 NA
ATOM     21  C   UNL     1      11.089   8.655  17.712  0.00  0.00    +0.089 A 
ATOM     22  C   UNL     1      10.647   8.679  17.015  0.00  0.00    +0.020 A 
ATOM     23  C   UNL     1      11.014   8.861  16.299  0.00  0.00    +0.002 A 
ATOM     24  C   UNL     1      11.823   9.019  16.279  0.00  0.00    +0.001 A 
ATOM     25  C   UNL     1      12.266   8.995  16.975  0.00  0.00    +0.008 A 
ATOM     26  C   UNL     1      11.899   8.813  17.691  0.00  0.00    +0.050 A 
ATOM     27  S   UNL     1      12.190   8.749  18.460  0.00  0.00    -0.052 S 
ENDROOT
BRANCH  12  11
ATOM     11  O   UNL     1      13.374   8.571  21.058  0.00  0.00    -0.433 OA
BRANCH  11   9
ATOM      8  N   UNL     1      14.472   7.701  20.770  0.00  0.00    -0.164 NA
ATOM      9  C   UNL     1      13.859   7.938  21.271  0.00  0.00    +0.421 C 
ATOM     10  O   UNL     1      13.731   7.541  21.982  0.00  0.00    -0.225 OA
BRANCH   8   7
ATOM      7  C   UNL     1      14.956   7.068  20.982  0.00  0.00    +0.145 C 
BRANCH   7   6
ATOM      3  C   UNL     1      16.793   6.357  19.483  0.00  0.00    +0.139 A 
ATOM      4  C   UNL     1      16.942   6.493  20.284  0.00  0.00    +0.037 A 
ATOM      5  C   UNL     1      16.330   6.729  20.783  0.00  0.00    +0.001 A 
ATOM      6  C   UNL     1      15.568   6.831  20.483  0.00  0.00    -0.000 A 
ATOM     28  C   UNL     1      15.419   6.696  19.683  0.00  0.00    +0.001 A 
ATOM     29  C   UNL     1      16.031   6.459  19.183  0.00  0.00    +0.037 A 
BRANCH   3   2
ATOM      1  C   UNL     1      17.371   5.386  18.608  0.00  0.00    +0.252 C 
ATOM      2  O   UNL     1      17.405   6.120  18.984  0.00  0.00    -0.471 OA
ENDBRANCH   3   2
ENDBRANCH   7   6
ENDBRANCH   8   7
ENDBRANCH  11   9
ENDBRANCH  12  11
TORSDOF 5
ENDMDL
