MODEL 1
REMARK VINA RESULT:     -11.6      0.000      0.000
REMARK  Name = 
REMARK  11 active torsions:
REMARK  status: ('A' for Active; 'I' for Inactive)
REMARK    1  A    between atoms: N_2  and  C_3
REMARK    2  A    between atoms: N_2  and  C_11
REMARK    3  A    between atoms: C_3  and  C_4
REMARK    4  A    between atoms: C_4  and  C_5
REMARK    5  A    between atoms: C_12  and  C_13
REMARK    6  A    between atoms: C_13  and  N_14
REMARK    7  A    between atoms: N_14  and  C_15
REMARK    8  A    between atoms: N_14  and  C_23
REMARK    9  A    between atoms: C_15  and  C_16
REMARK   10  A    between atoms: C_23  and  C_24
REMARK   11  A    between atoms: C_32  and  C_33
REMARK                            x       y       z     vdW  Elec       q    Type
REMARK                         _______ _______ _______ _____ _____    ______ ____
ROOT
ATOM     11  C   UNL     1      -0.457   1.398  24.714  0.00  0.00    +0.120 C 
ATOM     12  C   UNL     1      -1.061   0.885  24.480  0.00  0.00    +0.148 C 
ATOM     31  O   UNL     1      -0.758   0.385  23.899  0.00  0.00    -0.350 OA
ATOM     32  C   UNL     1       0.032   0.588  23.773  0.00  0.00    +0.180 C 
ATOM     35  C   UNL     1       0.217   1.214  24.277  0.00  0.00    +0.198 C 
ATOM     36  O   UNL     1       0.949   1.591  24.333  0.00  0.00    -0.219 OA
ENDROOT
BRANCH  11   2
ATOM      1  C   UNL     1      -0.366   1.818  26.077  0.00  0.00    +0.090 C 
ATOM      2  N   UNL     1      -0.519   1.991  25.285  0.00  0.00    -0.268 NA
BRANCH   2   3
ATOM      3  C   UNL     1      -0.734   2.756  25.064  0.00  0.00    +0.079 C 
BRANCH   3   4
ATOM      4  C   UNL     1      -0.874   3.329  25.641  0.00  0.00    +0.063 C 
BRANCH   4   5
ATOM      5  C   UNL     1      -1.151   4.075  25.423  0.00  0.00    +0.060 A 
ATOM      6  N   UNL     1      -0.664   4.588  25.000  0.00  0.00    -0.248 NA
ATOM      7  C   UNL     1      -0.941   5.334  24.781  0.00  0.00    +0.098 A 
ATOM      8  C   UNL     1      -1.706   5.566  24.987  0.00  0.00    +0.021 A 
ATOM      9  C   UNL     1      -2.193   5.052  25.411  0.00  0.00    +0.003 A 
ATOM     10  C   UNL     1      -1.915   4.307  25.629  0.00  0.00    +0.015 A 
ENDBRANCH   4   5
ENDBRANCH   3   4
ENDBRANCH   2   3
ENDBRANCH  11   2
BRANCH  32  33
ATOM     33  C   UNL     1       0.546   0.228  23.237  0.00  0.00    +0.214 C 
ATOM     34  O   UNL     1       0.597  -0.594  23.204  0.00  0.00    -0.218 OA
ENDBRANCH  32  33
BRANCH  12  13
ATOM     13  C   UNL     1      -1.830   0.875  24.777  0.00  0.00    +0.104 C 
BRANCH  13  14
ATOM     14  N   UNL     1      -2.285   0.190  24.718  0.00  0.00    -0.263 NA
BRANCH  14  15
ATOM     15  C   UNL     1      -2.989   0.198  24.287  0.00  0.00    +0.099 C 
BRANCH  15  16
ATOM     16  C   UNL     1      -3.473   0.866  24.301  0.00  0.00    -0.006 A 
ATOM     17  C   UNL     1      -3.888   1.061  24.987  0.00  0.00    -0.001 A 
ATOM     18  C   UNL     1      -4.372   1.729  25.001  0.00  0.00    +0.029 A 
ATOM     19  C   UNL     1      -4.441   2.202  24.328  0.00  0.00    +0.140 A 
ATOM     20  F   UNL     1      -4.925   2.870  24.343  0.00  0.00    -0.204 F 
ATOM     21  C   UNL     1      -4.027   2.007  23.642  0.00  0.00    +0.029 A 
ATOM     22  C   UNL     1      -3.543   1.339  23.629  0.00  0.00    -0.001 A 
ENDBRANCH  15  16
ENDBRANCH  14  15
BRANCH  14  23
ATOM     23  C   UNL     1      -2.038  -0.504  25.089  0.00  0.00    +0.099 C 
BRANCH  23  24
ATOM     24  C   UNL     1      -2.496  -1.188  25.035  0.00  0.00    -0.006 A 
ATOM     25  C   UNL     1      -2.455  -1.659  24.359  0.00  0.00    -0.001 A 
ATOM     26  C   UNL     1      -2.913  -2.343  24.304  0.00  0.00    +0.029 A 
ATOM     27  C   UNL     1      -3.412  -2.555  24.926  0.00  0.00    +0.140 A 
ATOM     28  F   UNL     1      -3.871  -3.239  24.872  0.00  0.00    -0.204 F 
ATOM     29  C   UNL     1      -3.454  -2.084  25.601  0.00  0.00    +0.029 A 
ATOM     30  C   UNL     1      -2.995  -1.400  25.656  0.00  0.00    -0.001 A 
ENDBRANCH  23  24
ENDBRANCH  14  23
ENDBRANCH  13  14
ENDBRANCH  12  13
TORSDOF 11
ENDMDL
MODEL 2
REMARK VINA RESULT:     -11.6      0.010      2.711
REMARK  Name = 
REMARK  11 active torsions:
REMARK  status: ('A' for Active; 'I' for Inactive)
REMARK    1  A    between atoms: N_2  and  C_3
REMARK    2  A    between atoms: N_2  and  C_11
REMARK    3  A    between atoms: C_3  and  C_4
REMARK    4  A    between atoms: C_4  and  C_5
REMARK    5  A    between atoms: C_12  and  C_13
REMARK    6  A    between atoms: C_13  and  N_14
REMARK    7  A    between atoms: N_14  and  C_15
REMARK    8  A    between atoms: N_14  and  C_23
REMARK    9  A    between atoms: C_15  and  C_16
REMARK   10  A    between atoms: C_23  and  C_24
REMARK   11  A    between atoms: C_32  and  C_33
REMARK                            x       y       z     vdW  Elec       q    Type
REMARK                         _______ _______ _______ _____ _____    ______ ____
ROOT
ATOM     11  C   UNL     1      -0.458   1.401  24.716  0.00  0.00    +0.120 C 
ATOM     12  C   UNL     1      -1.061   0.887  24.486  0.00  0.00    +0.148 C 
ATOM     31  O   UNL     1      -0.760   0.386  23.904  0.00  0.00    -0.350 OA
ATOM     32  C   UNL     1       0.029   0.590  23.775  0.00  0.00    +0.180 C 
ATOM     35  C   UNL     1       0.215   1.217  24.277  0.00  0.00    +0.198 C 
ATOM     36  O   UNL     1       0.947   1.595  24.330  0.00  0.00    -0.219 OA
ENDROOT
BRANCH  11   2
ATOM      1  C   UNL     1      -0.357   1.825  26.077  0.00  0.00    +0.090 C 
ATOM      2  N   UNL     1      -0.518   1.995  25.286  0.00  0.00    -0.268 NA
BRANCH   2   3
ATOM      3  C   UNL     1      -0.741   2.758  25.065  0.00  0.00    +0.079 C 
BRANCH   3   4
ATOM      4  C   UNL     1      -0.858   3.337  25.641  0.00  0.00    +0.063 C 
BRANCH   4   5
ATOM      5  C   UNL     1      -1.142   4.081  25.425  0.00  0.00    +0.060 A 
ATOM      6  N   UNL     1      -0.660   4.601  25.004  0.00  0.00    -0.248 NA
ATOM      7  C   UNL     1      -0.944   5.345  24.789  0.00  0.00    +0.098 A 
ATOM      8  C   UNL     1      -1.711   5.568  24.995  0.00  0.00    +0.021 A 
ATOM      9  C   UNL     1      -2.194   5.048  25.416  0.00  0.00    +0.003 A 
ATOM     10  C   UNL     1      -1.909   4.304  25.631  0.00  0.00    +0.015 A 
ENDBRANCH   4   5
ENDBRANCH   3   4
ENDBRANCH   2   3
ENDBRANCH  11   2
BRANCH  32  33
ATOM     33  C   UNL     1       0.541   0.229  23.238  0.00  0.00    +0.214 C 
ATOM     34  O   UNL     1       0.615  -0.592  23.225  0.00  0.00    -0.218 OA
ENDBRANCH  32  33
BRANCH  12  13
ATOM     13  C   UNL     1      -1.830   0.876  24.784  0.00  0.00    +0.104 C 
BRANCH  13  14
ATOM     14  N   UNL     1      -2.286   0.191  24.725  0.00  0.00    -0.263 NA
BRANCH  14  15
ATOM     15  C   UNL     1      -2.040  -0.502  25.098  0.00  0.00    +0.099 C 
BRANCH  15  16
ATOM     16  C   UNL     1      -2.497  -1.187  25.038  0.00  0.00    -0.006 A 
ATOM     17  C   UNL     1      -2.453  -1.655  24.361  0.00  0.00    -0.001 A 
ATOM     18  C   UNL     1      -2.910  -2.339  24.302  0.00  0.00    +0.029 A 
ATOM     19  C   UNL     1      -3.411  -2.555  24.921  0.00  0.00    +0.140 A 
ATOM     20  F   UNL     1      -3.868  -3.239  24.861  0.00  0.00    -0.204 F 
ATOM     21  C   UNL     1      -3.456  -2.087  25.598  0.00  0.00    +0.029 A 
ATOM     22  C   UNL     1      -2.998  -1.403  25.657  0.00  0.00    -0.001 A 
ENDBRANCH  15  16
ENDBRANCH  14  15
BRANCH  14  23
ATOM     23  C   UNL     1      -2.988   0.199  24.292  0.00  0.00    +0.099 C 
BRANCH  23  24
ATOM     24  C   UNL     1      -3.475   0.865  24.307  0.00  0.00    -0.006 A 
ATOM     25  C   UNL     1      -3.887   1.059  24.995  0.00  0.00    -0.001 A 
ATOM     26  C   UNL     1      -4.374   1.725  25.011  0.00  0.00    +0.029 A 
ATOM     27  C   UNL     1      -4.449   2.196  24.338  0.00  0.00    +0.140 A 
ATOM     28  F   UNL     1      -4.936   2.862  24.353  0.00  0.00    -0.204 F 
ATOM     29  C   UNL     1      -4.038   2.003  23.650  0.00  0.00    +0.029 A 
ATOM     30  C   UNL     1      -3.550   1.336  23.634  0.00  0.00    -0.001 A 
ENDBRANCH  23  24
ENDBRANCH  14  23
ENDBRANCH  13  14
ENDBRANCH  12  13
TORSDOF 11
ENDMDL
MODEL 3
REMARK VINA RESULT:     -11.5      1.327      4.418
REMARK  Name = 
REMARK  11 active torsions:
REMARK  status: ('A' for Active; 'I' for Inactive)
REMARK    1  A    between atoms: N_2  and  C_3
REMARK    2  A    between atoms: N_2  and  C_11
REMARK    3  A    between atoms: C_3  and  C_4
REMARK    4  A    between atoms: C_4  and  C_5
REMARK    5  A    between atoms: C_12  and  C_13
REMARK    6  A    between atoms: C_13  and  N_14
REMARK    7  A    between atoms: N_14  and  C_15
REMARK    8  A    between atoms: N_14  and  C_23
REMARK    9  A    between atoms: C_15  and  C_16
REMARK   10  A    between atoms: C_23  and  C_24
REMARK   11  A    between atoms: C_32  and  C_33
REMARK                            x       y       z     vdW  Elec       q    Type
REMARK                         _______ _______ _______ _____ _____    ______ ____
ROOT
ATOM     11  C   UNL     1      -1.154   0.310  24.738  0.00  0.00    +0.120 C 
ATOM     12  C   UNL     1      -1.318   1.114  24.650  0.00  0.00    +0.148 C 
ATOM     31  O   UNL     1      -0.712   1.450  24.203  0.00  0.00    -0.350 OA
ATOM     32  C   UNL     1      -0.173   0.854  24.016  0.00  0.00    +0.180 C 
ATOM     35  C   UNL     1      -0.447   0.150  24.346  0.00  0.00    +0.198 C 
ATOM     36  O   UNL     1      -0.077  -0.586  24.294  0.00  0.00    -0.219 OA
ENDROOT
BRANCH  11   2
ATOM      1  C   UNL     1      -1.522  -0.331  25.962  0.00  0.00    +0.090 C 
ATOM      2  N   UNL     1      -1.617  -0.237  25.147  0.00  0.00    -0.268 NA
BRANCH   2   3
ATOM      3  C   UNL     1      -2.175  -0.690  24.743  0.00  0.00    +0.079 C 
BRANCH   3   4
ATOM      4  C   UNL     1      -2.694  -1.176  25.161  0.00  0.00    +0.063 C 
BRANCH   4   5
ATOM      5  C   UNL     1      -3.210  -1.675  24.753  0.00  0.00    +0.060 A 
ATOM      6  N   UNL     1      -3.079  -2.489  24.748  0.00  0.00    -0.248 NA
ATOM      7  C   UNL     1      -3.595  -2.987  24.340  0.00  0.00    +0.098 A 
ATOM      8  C   UNL     1      -4.242  -2.671  23.939  0.00  0.00    +0.021 A 
ATOM      9  C   UNL     1      -4.374  -1.856  23.944  0.00  0.00    +0.003 A 
ATOM     10  C   UNL     1      -3.857  -1.358  24.352  0.00  0.00    +0.015 A 
ENDBRANCH   4   5
ENDBRANCH   3   4
ENDBRANCH   2   3
ENDBRANCH  11   2
BRANCH  32  33
ATOM     33  C   UNL     1       0.518   0.947  23.574  0.00  0.00    +0.214 C 
ATOM     34  O   UNL     1       1.092   1.486  23.816  0.00  0.00    -0.218 OA
ENDBRANCH  32  33
BRANCH  12  13
ATOM     13  C   UNL     1      -1.973   1.512  24.955  0.00  0.00    +0.104 C 
BRANCH  13  14
ATOM     14  N   UNL     1      -1.997   2.336  24.944  0.00  0.00    -0.263 NA
BRANCH  14  15
ATOM     15  C   UNL     1      -1.484   2.770  25.423  0.00  0.00    +0.099 C 
BRANCH  15  16
ATOM     16  C   UNL     1      -1.419   3.586  25.324  0.00  0.00    -0.006 A 
ATOM     17  C   UNL     1      -0.881   3.895  24.781  0.00  0.00    -0.001 A 
ATOM     18  C   UNL     1      -0.817   4.712  24.682  0.00  0.00    +0.029 A 
ATOM     19  C   UNL     1      -1.291   5.220  25.127  0.00  0.00    +0.140 A 
ATOM     20  F   UNL     1      -1.226   6.036  25.028  0.00  0.00    -0.204 F 
ATOM     21  C   UNL     1      -1.829   4.911  25.671  0.00  0.00    +0.029 A 
ATOM     22  C   UNL     1      -1.893   4.094  25.769  0.00  0.00    -0.001 A 
ENDBRANCH  15  16
ENDBRANCH  14  15
BRANCH  14  23
ATOM     23  C   UNL     1      -2.534   2.727  24.455  0.00  0.00    +0.099 C 
BRANCH  23  24
ATOM     24  C   UNL     1      -3.330   2.510  24.458  0.00  0.00    -0.006 A 
ATOM     25  C   UNL     1      -3.719   2.361  23.746  0.00  0.00    -0.001 A 
ATOM     26  C   UNL     1      -4.515   2.144  23.748  0.00  0.00    +0.029 A 
ATOM     27  C   UNL     1      -4.921   2.075  24.463  0.00  0.00    +0.140 A 
ATOM     28  F   UNL     1      -5.717   1.857  24.466  0.00  0.00    -0.204 F 
ATOM     29  C   UNL     1      -4.532   2.223  25.175  0.00  0.00    +0.029 A 
ATOM     30  C   UNL     1      -3.736   2.441  25.173  0.00  0.00    -0.001 A 
ENDBRANCH  23  24
ENDBRANCH  14  23
ENDBRANCH  13  14
ENDBRANCH  12  13
TORSDOF 11
ENDMDL
MODEL 4
REMARK VINA RESULT:     -11.5      1.329      4.700
REMARK  Name = 
REMARK  11 active torsions:
REMARK  status: ('A' for Active; 'I' for Inactive)
REMARK    1  A    between atoms: N_2  and  C_3
REMARK    2  A    between atoms: N_2  and  C_11
REMARK    3  A    between atoms: C_3  and  C_4
REMARK    4  A    between atoms: C_4  and  C_5
REMARK    5  A    between atoms: C_12  and  C_13
REMARK    6  A    between atoms: C_13  and  N_14
REMARK    7  A    between atoms: N_14  and  C_15
REMARK    8  A    between atoms: N_14  and  C_23
REMARK    9  A    between atoms: C_15  and  C_16
REMARK   10  A    between atoms: C_23  and  C_24
REMARK   11  A    between atoms: C_32  and  C_33
REMARK                            x       y       z     vdW  Elec       q    Type
REMARK                         _______ _______ _______ _____ _____    ______ ____
ROOT
ATOM     11  C   UNL     1      -1.154   0.310  24.737  0.00  0.00    +0.120 C 
ATOM     12  C   UNL     1      -1.322   1.114  24.649  0.00  0.00    +0.148 C 
ATOM     31  O   UNL     1      -0.719   1.452  24.200  0.00  0.00    -0.350 OA
ATOM     32  C   UNL     1      -0.178   0.859  24.011  0.00  0.00    +0.180 C 
ATOM     35  C   UNL     1      -0.447   0.153  24.342  0.00  0.00    +0.198 C 
ATOM     36  O   UNL     1      -0.074  -0.581  24.289  0.00  0.00    -0.219 OA
ENDROOT
BRANCH  11   2
ATOM      1  C   UNL     1      -1.513  -0.335  25.961  0.00  0.00    +0.090 C 
ATOM      2  N   UNL     1      -1.613  -0.239  25.147  0.00  0.00    -0.268 NA
BRANCH   2   3
ATOM      3  C   UNL     1      -2.172  -0.693  24.744  0.00  0.00    +0.079 C 
BRANCH   3   4
ATOM      4  C   UNL     1      -2.682  -1.188  25.164  0.00  0.00    +0.063 C 
BRANCH   4   5
ATOM      5  C   UNL     1      -3.201  -1.684  24.757  0.00  0.00    +0.060 A 
ATOM      6  N   UNL     1      -3.078  -2.499  24.757  0.00  0.00    -0.248 NA
ATOM      7  C   UNL     1      -3.597  -2.995  24.350  0.00  0.00    +0.098 A 
ATOM      8  C   UNL     1      -4.240  -2.675  23.944  0.00  0.00    +0.021 A 
ATOM      9  C   UNL     1      -4.364  -1.859  23.945  0.00  0.00    +0.003 A 
ATOM     10  C   UNL     1      -3.844  -1.364  24.351  0.00  0.00    +0.015 A 
ENDBRANCH   4   5
ENDBRANCH   3   4
ENDBRANCH   2   3
ENDBRANCH  11   2
BRANCH  32  33
ATOM     33  C   UNL     1       0.512   0.955  23.568  0.00  0.00    +0.214 C 
ATOM     34  O   UNL     1       1.109   1.455  23.837  0.00  0.00    -0.218 OA
ENDBRANCH  32  33
BRANCH  12  13
ATOM     13  C   UNL     1      -1.978   1.508  24.956  0.00  0.00    +0.104 C 
BRANCH  13  14
ATOM     14  N   UNL     1      -2.005   2.332  24.947  0.00  0.00    -0.263 NA
BRANCH  14  15
ATOM     15  C   UNL     1      -2.540   2.723  24.455  0.00  0.00    +0.099 C 
BRANCH  15  16
ATOM     16  C   UNL     1      -3.336   2.508  24.459  0.00  0.00    -0.006 A 
ATOM     17  C   UNL     1      -3.742   2.441  25.174  0.00  0.00    -0.001 A 
ATOM     18  C   UNL     1      -4.539   2.227  25.178  0.00  0.00    +0.029 A 
ATOM     19  C   UNL     1      -4.930   2.078  24.466  0.00  0.00    +0.140 A 
ATOM     20  F   UNL     1      -5.726   1.864  24.471  0.00  0.00    -0.204 F 
ATOM     21  C   UNL     1      -4.524   2.145  23.751  0.00  0.00    +0.029 A 
ATOM     22  C   UNL     1      -3.727   2.360  23.748  0.00  0.00    -0.001 A 
ENDBRANCH  15  16
ENDBRANCH  14  15
BRANCH  14  23
ATOM     23  C   UNL     1      -1.497   2.767  25.430  0.00  0.00    +0.099 C 
BRANCH  23  24
ATOM     24  C   UNL     1      -1.427   3.582  25.328  0.00  0.00    -0.006 A 
ATOM     25  C   UNL     1      -1.907   4.095  25.761  0.00  0.00    -0.001 A 
ATOM     26  C   UNL     1      -1.837   4.911  25.659  0.00  0.00    +0.029 A 
ATOM     27  C   UNL     1      -1.287   5.214  25.124  0.00  0.00    +0.140 A 
ATOM     28  F   UNL     1      -1.217   6.029  25.022  0.00  0.00    -0.204 F 
ATOM     29  C   UNL     1      -0.807   4.701  24.691  0.00  0.00    +0.029 A 
ATOM     30  C   UNL     1      -0.877   3.885  24.793  0.00  0.00    -0.001 A 
ENDBRANCH  23  24
ENDBRANCH  14  23
ENDBRANCH  13  14
ENDBRANCH  12  13
TORSDOF 11
ENDMDL
MODEL 5
REMARK VINA RESULT:     -10.3      2.075      3.436
REMARK  Name = 
REMARK  11 active torsions:
REMARK  status: ('A' for Active; 'I' for Inactive)
REMARK    1  A    between atoms: N_2  and  C_3
REMARK    2  A    between atoms: N_2  and  C_11
REMARK    3  A    between atoms: C_3  and  C_4
REMARK    4  A    between atoms: C_4  and  C_5
REMARK    5  A    between atoms: C_12  and  C_13
REMARK    6  A    between atoms: C_13  and  N_14
REMARK    7  A    between atoms: N_14  and  C_15
REMARK    8  A    between atoms: N_14  and  C_23
REMARK    9  A    between atoms: C_15  and  C_16
REMARK   10  A    between atoms: C_23  and  C_24
REMARK   11  A    between atoms: C_32  and  C_33
REMARK                            x       y       z     vdW  Elec       q    Type
REMARK                         _______ _______ _______ _____ _____    ______ ____
ROOT
ATOM     11  C   UNL     1      -4.266   2.193  24.636  0.00  0.00    +0.120 C 
ATOM     12  C   UNL     1      -4.087   1.416  24.849  0.00  0.00    +0.148 C 
ATOM     31  O   UNL     1      -4.719   1.121  25.289  0.00  0.00    -0.350 OA
ATOM     32  C   UNL     1      -5.288   1.716  25.348  0.00  0.00    +0.180 C 
ATOM     35  C   UNL     1      -5.008   2.378  24.945  0.00  0.00    +0.198 C 
ATOM     36  O   UNL     1      -5.401   3.099  24.864  0.00  0.00    -0.219 OA
ENDROOT
BRANCH  11   2
ATOM      1  C   UNL     1      -3.845   2.703  23.368  0.00  0.00    +0.090 C 
ATOM      2  N   UNL     1      -3.786   2.696  24.192  0.00  0.00    -0.268 NA
BRANCH   2   3
ATOM      3  C   UNL     1      -3.247   3.193  24.570  0.00  0.00    +0.079 C 
BRANCH   3   4
ATOM      4  C   UNL     1      -2.780   3.709  24.127  0.00  0.00    +0.063 C 
BRANCH   4   5
ATOM      5  C   UNL     1      -2.145   4.099  24.483  0.00  0.00    +0.060 A 
ATOM      6  N   UNL     1      -1.372   3.904  24.274  0.00  0.00    -0.248 NA
ATOM      7  C   UNL     1      -0.737   4.293  24.630  0.00  0.00    +0.098 A 
ATOM      8  C   UNL     1      -0.877   4.878  25.195  0.00  0.00    +0.021 A 
ATOM      9  C   UNL     1      -1.652   5.073  25.404  0.00  0.00    +0.003 A 
ATOM     10  C   UNL     1      -2.285   4.683  25.048  0.00  0.00    +0.015 A 
ENDBRANCH   4   5
ENDBRANCH   3   4
ENDBRANCH   2   3
ENDBRANCH  11   2
BRANCH  32  33
ATOM     33  C   UNL     1      -6.011   1.658  25.743  0.00  0.00    +0.214 C 
ATOM     34  O   UNL     1      -6.028   1.512  26.554  0.00  0.00    -0.218 OA
ENDBRANCH  32  33
BRANCH  12  13
ATOM     13  C   UNL     1      -3.398   1.006  24.655  0.00  0.00    +0.104 C 
BRANCH  13  14
ATOM     14  N   UNL     1      -3.371   0.185  24.734  0.00  0.00    -0.263 NA
BRANCH  14  15
ATOM     15  C   UNL     1      -2.725  -0.173  25.102  0.00  0.00    +0.099 C 
BRANCH  15  16
ATOM     16  C   UNL     1      -1.966   0.131  24.988  0.00  0.00    -0.006 A 
ATOM     17  C   UNL     1      -1.634   0.140  24.233  0.00  0.00    -0.001 A 
ATOM     18  C   UNL     1      -0.875   0.443  24.120  0.00  0.00    +0.029 A 
ATOM     19  C   UNL     1      -0.448   0.738  24.762  0.00  0.00    +0.140 A 
ATOM     20  F   UNL     1       0.311   1.041  24.649  0.00  0.00    -0.204 F 
ATOM     21  C   UNL     1      -0.780   0.728  25.517  0.00  0.00    +0.029 A 
ATOM     22  C   UNL     1      -1.539   0.425  25.630  0.00  0.00    -0.001 A 
ENDBRANCH  15  16
ENDBRANCH  14  15
BRANCH  14  23
ATOM     23  C   UNL     1      -3.989  -0.278  24.445  0.00  0.00    +0.099 C 
BRANCH  23  24
ATOM     24  C   UNL     1      -3.927  -1.101  24.452  0.00  0.00    -0.006 A 
ATOM     25  C   UNL     1      -3.982  -1.525  23.747  0.00  0.00    -0.001 A 
ATOM     26  C   UNL     1      -3.920  -2.348  23.754  0.00  0.00    +0.029 A 
ATOM     27  C   UNL     1      -3.803  -2.746  24.467  0.00  0.00    +0.140 A 
ATOM     28  F   UNL     1      -3.741  -3.568  24.475  0.00  0.00    -0.204 F 
ATOM     29  C   UNL     1      -3.748  -2.322  25.172  0.00  0.00    +0.029 A 
ATOM     30  C   UNL     1      -3.810  -1.499  25.166  0.00  0.00    -0.001 A 
ENDBRANCH  23  24
ENDBRANCH  14  23
ENDBRANCH  13  14
ENDBRANCH  12  13
TORSDOF 11
ENDMDL
MODEL 6
REMARK VINA RESULT:     -10.3      2.074      3.844
REMARK  Name = 
REMARK  11 active torsions:
REMARK  status: ('A' for Active; 'I' for Inactive)
REMARK    1  A    between atoms: N_2  and  C_3
REMARK    2  A    between atoms: N_2  and  C_11
REMARK    3  A    between atoms: C_3  and  C_4
REMARK    4  A    between atoms: C_4  and  C_5
REMARK    5  A    between atoms: C_12  and  C_13
REMARK    6  A    between atoms: C_13  and  N_14
REMARK    7  A    between atoms: N_14  and  C_15
REMARK    8  A    between atoms: N_14  and  C_23
REMARK    9  A    between atoms: C_15  and  C_16
REMARK   10  A    between atoms: C_23  and  C_24
REMARK   11  A    between atoms: C_32  and  C_33
REMARK                            x       y       z     vdW  Elec       q    Type
REMARK                         _______ _______ _______ _____ _____    ______ ____
ROOT
ATOM     11  C   UNL     1      -4.260   2.190  24.639  0.00  0.00    +0.120 C 
ATOM     12  C   UNL     1      -4.081   1.416  24.863  0.00  0.00    +0.148 C 
ATOM     31  O   UNL     1      -4.716   1.125  25.302  0.00  0.00    -0.350 OA
ATOM     32  C   UNL     1      -5.287   1.720  25.349  0.00  0.00    +0.180 C 
ATOM     35  C   UNL     1      -5.004   2.377  24.940  0.00  0.00    +0.198 C 
ATOM     36  O   UNL     1      -5.398   3.097  24.847  0.00  0.00    -0.219 OA
ENDROOT
BRANCH  11   2
ATOM      1  C   UNL     1      -3.830   2.686  23.369  0.00  0.00    +0.090 C 
ATOM      2  N   UNL     1      -3.777   2.689  24.193  0.00  0.00    -0.268 NA
BRANCH   2   3
ATOM      3  C   UNL     1      -3.241   3.190  24.569  0.00  0.00    +0.079 C 
BRANCH   3   4
ATOM      4  C   UNL     1      -2.767   3.698  24.124  0.00  0.00    +0.063 C 
BRANCH   4   5
ATOM      5  C   UNL     1      -2.136   4.091  24.480  0.00  0.00    +0.060 A 
ATOM      6  N   UNL     1      -1.361   3.916  24.258  0.00  0.00    -0.248 NA
ATOM      7  C   UNL     1      -0.730   4.310  24.615  0.00  0.00    +0.098 A 
ATOM      8  C   UNL     1      -0.874   4.878  25.195  0.00  0.00    +0.021 A 
ATOM      9  C   UNL     1      -1.649   5.054  25.418  0.00  0.00    +0.003 A 
ATOM     10  C   UNL     1      -2.279   4.660  25.061  0.00  0.00    +0.015 A 
ENDBRANCH   4   5
ENDBRANCH   3   4
ENDBRANCH   2   3
ENDBRANCH  11   2
BRANCH  32  33
ATOM     33  C   UNL     1      -6.013   1.665  25.738  0.00  0.00    +0.214 C 
ATOM     34  O   UNL     1      -6.036   1.533  26.551  0.00  0.00    -0.218 OA
ENDBRANCH  32  33
BRANCH  12  13
ATOM     13  C   UNL     1      -3.390   1.005  24.680  0.00  0.00    +0.104 C 
BRANCH  13  14
ATOM     14  N   UNL     1      -3.365   0.184  24.759  0.00  0.00    -0.263 NA
BRANCH  14  15
ATOM     15  C   UNL     1      -3.992  -0.276  24.482  0.00  0.00    +0.099 C 
BRANCH  15  16
ATOM     16  C   UNL     1      -3.928  -1.098  24.475  0.00  0.00    -0.006 A 
ATOM     17  C   UNL     1      -3.806  -1.509  25.180  0.00  0.00    -0.001 A 
ATOM     18  C   UNL     1      -3.742  -2.332  25.172  0.00  0.00    +0.029 A 
ATOM     19  C   UNL     1      -3.799  -2.743  24.459  0.00  0.00    +0.140 A 
ATOM     20  F   UNL     1      -3.734  -3.566  24.452  0.00  0.00    -0.204 F 
ATOM     21  C   UNL     1      -3.920  -2.333  23.754  0.00  0.00    +0.029 A 
ATOM     22  C   UNL     1      -3.985  -1.510  23.762  0.00  0.00    -0.001 A 
ENDBRANCH  15  16
ENDBRANCH  14  15
BRANCH  14  23
ATOM     23  C   UNL     1      -2.714  -0.177  25.113  0.00  0.00    +0.099 C 
BRANCH  23  24
ATOM     24  C   UNL     1      -1.958   0.132  25.001  0.00  0.00    -0.006 A 
ATOM     25  C   UNL     1      -1.620   0.132  24.247  0.00  0.00    -0.001 A 
ATOM     26  C   UNL     1      -0.864   0.442  24.134  0.00  0.00    +0.029 A 
ATOM     27  C   UNL     1      -0.445   0.751  24.775  0.00  0.00    +0.140 A 
ATOM     28  F   UNL     1       0.311   1.061  24.662  0.00  0.00    -0.204 F 
ATOM     29  C   UNL     1      -0.782   0.752  25.527  0.00  0.00    +0.029 A 
ATOM     30  C   UNL     1      -1.539   0.442  25.641  0.00  0.00    -0.001 A 
ENDBRANCH  23  24
ENDBRANCH  14  23
ENDBRANCH  13  14
ENDBRANCH  12  13
TORSDOF 11
ENDMDL
MODEL 7
REMARK VINA RESULT:     -10.0      2.174      5.665
REMARK  Name = 
REMARK  11 active torsions:
REMARK  status: ('A' for Active; 'I' for Inactive)
REMARK    1  A    between atoms: N_2  and  C_3
REMARK    2  A    between atoms: N_2  and  C_11
REMARK    3  A    between atoms: C_3  and  C_4
REMARK    4  A    between atoms: C_4  and  C_5
REMARK    5  A    between atoms: C_12  and  C_13
REMARK    6  A    between atoms: C_13  and  N_14
REMARK    7  A    between atoms: N_14  and  C_15
REMARK    8  A    between atoms: N_14  and  C_23
REMARK    9  A    between atoms: C_15  and  C_16
REMARK   10  A    between atoms: C_23  and  C_24
REMARK   11  A    between atoms: C_32  and  C_33
REMARK                            x       y       z     vdW  Elec       q    Type
REMARK                         _______ _______ _______ _____ _____    ______ ____
ROOT
ATOM     11  C   UNL     1      -4.315   1.406  24.660  0.00  0.00    +0.120 C 
ATOM     12  C   UNL     1      -3.676   1.874  24.895  0.00  0.00    +0.148 C 
ATOM     31  O   UNL     1      -3.975   2.520  25.312  0.00  0.00    -0.350 OA
ATOM     32  C   UNL     1      -4.796   2.452  25.334  0.00  0.00    +0.180 C 
ATOM     35  C   UNL     1      -5.006   1.764  24.931  0.00  0.00    +0.198 C 
ATOM     36  O   UNL     1      -5.774   1.483  24.819  0.00  0.00    -0.219 OA
ENDROOT
BRANCH  11   2
ATOM      1  C   UNL     1      -4.268   0.726  23.403  0.00  0.00    +0.090 C 
ATOM      2  N   UNL     1      -4.268   0.704  24.229  0.00  0.00    -0.268 NA
BRANCH   2   3
ATOM      3  C   UNL     1      -4.222  -0.019  24.622  0.00  0.00    +0.079 C 
BRANCH   3   4
ATOM      4  C   UNL     1      -4.282  -0.724  24.197  0.00  0.00    +0.063 C 
BRANCH   4   5
ATOM      5  C   UNL     1      -3.945  -1.415  24.497  0.00  0.00    +0.060 A 
ATOM      6  N   UNL     1      -3.834  -1.502  25.309  0.00  0.00    -0.248 NA
ATOM      7  C   UNL     1      -3.497  -2.193  25.609  0.00  0.00    +0.098 A 
ATOM      8  C   UNL     1      -3.272  -2.798  25.095  0.00  0.00    +0.021 A 
ATOM      9  C   UNL     1      -3.383  -2.712  24.282  0.00  0.00    +0.003 A 
ATOM     10  C   UNL     1      -3.720  -2.020  23.983  0.00  0.00    +0.015 A 
ENDBRANCH   4   5
ENDBRANCH   3   4
ENDBRANCH   2   3
ENDBRANCH  11   2
BRANCH  32  33
ATOM     33  C   UNL     1      -5.317   2.980  25.696  0.00  0.00    +0.214 C 
ATOM     34  O   UNL     1      -5.156   3.265  26.453  0.00  0.00    -0.218 OA
ENDBRANCH  32  33
BRANCH  12  13
ATOM     13  C   UNL     1      -2.881   1.721  24.741  0.00  0.00    +0.104 C 
BRANCH  13  14
ATOM     14  N   UNL     1      -2.322   2.322  24.827  0.00  0.00    -0.263 NA
BRANCH  14  15
ATOM     15  C   UNL     1      -1.612   2.172  25.221  0.00  0.00    +0.099 C 
BRANCH  15  16
ATOM     16  C   UNL     1      -1.242   1.439  25.138  0.00  0.00    -0.006 A 
ATOM     17  C   UNL     1      -0.949   1.205  24.403  0.00  0.00    -0.001 A 
ATOM     18  C   UNL     1      -0.580   0.472  24.321  0.00  0.00    +0.029 A 
ATOM     19  C   UNL     1      -0.503  -0.027  24.974  0.00  0.00    +0.140 A 
ATOM     20  F   UNL     1      -0.133  -0.760  24.891  0.00  0.00    -0.204 F 
ATOM     21  C   UNL     1      -0.795   0.207  25.709  0.00  0.00    +0.029 A 
ATOM     22  C   UNL     1      -1.165   0.940  25.791  0.00  0.00    -0.001 A 
ENDBRANCH  15  16
ENDBRANCH  14  15
BRANCH  14  23
ATOM     23  C   UNL     1      -2.472   3.073  24.520  0.00  0.00    +0.099 C 
BRANCH  23  24
ATOM     24  C   UNL     1      -1.940   3.688  24.656  0.00  0.00    -0.006 A 
ATOM     25  C   UNL     1      -1.340   3.843  24.111  0.00  0.00    -0.001 A 
ATOM     26  C   UNL     1      -0.808   4.459  24.247  0.00  0.00    +0.029 A 
ATOM     27  C   UNL     1      -0.876   4.919  24.928  0.00  0.00    +0.140 A 
ATOM     28  F   UNL     1      -0.344   5.535  25.064  0.00  0.00    -0.204 F 
ATOM     29  C   UNL     1      -1.475   4.765  25.473  0.00  0.00    +0.029 A 
ATOM     30  C   UNL     1      -2.008   4.149  25.337  0.00  0.00    -0.001 A 
ENDBRANCH  23  24
ENDBRANCH  14  23
ENDBRANCH  13  14
ENDBRANCH  12  13
TORSDOF 11
ENDMDL
MODEL 8
REMARK VINA RESULT:      -9.9      2.175      5.045
REMARK  Name = 
REMARK  11 active torsions:
REMARK  status: ('A' for Active; 'I' for Inactive)
REMARK    1  A    between atoms: N_2  and  C_3
REMARK    2  A    between atoms: N_2  and  C_11
REMARK    3  A    between atoms: C_3  and  C_4
REMARK    4  A    between atoms: C_4  and  C_5
REMARK    5  A    between atoms: C_12  and  C_13
REMARK    6  A    between atoms: C_13  and  N_14
REMARK    7  A    between atoms: N_14  and  C_15
REMARK    8  A    between atoms: N_14  and  C_23
REMARK    9  A    between atoms: C_15  and  C_16
REMARK   10  A    between atoms: C_23  and  C_24
REMARK   11  A    between atoms: C_32  and  C_33
REMARK                            x       y       z     vdW  Elec       q    Type
REMARK                         _______ _______ _______ _____ _____    ______ ____
ROOT
ATOM     11  C   UNL     1      -4.319   1.385  24.654  0.00  0.00    +0.120 C 
ATOM     12  C   UNL     1      -3.682   1.857  24.884  0.00  0.00    +0.148 C 
ATOM     31  O   UNL     1      -3.980   2.501  25.303  0.00  0.00    -0.350 OA
ATOM     32  C   UNL     1      -4.802   2.428  25.332  0.00  0.00    +0.180 C 
ATOM     35  C   UNL     1      -5.011   1.738  24.931  0.00  0.00    +0.198 C 
ATOM     36  O   UNL     1      -5.778   1.452  24.825  0.00  0.00    -0.219 OA
ENDROOT
BRANCH  11   2
ATOM      1  C   UNL     1      -4.273   0.706  23.397  0.00  0.00    +0.090 C 
ATOM      2  N   UNL     1      -4.272   0.684  24.222  0.00  0.00    -0.268 NA
BRANCH   2   3
ATOM      3  C   UNL     1      -4.224  -0.040  24.615  0.00  0.00    +0.079 C 
BRANCH   3   4
ATOM      4  C   UNL     1      -4.287  -0.745  24.190  0.00  0.00    +0.063 C 
BRANCH   4   5
ATOM      5  C   UNL     1      -3.954  -1.438  24.491  0.00  0.00    +0.060 A 
ATOM      6  N   UNL     1      -3.824  -1.516  25.301  0.00  0.00    -0.248 NA
ATOM      7  C   UNL     1      -3.491  -2.209  25.601  0.00  0.00    +0.098 A 
ATOM      8  C   UNL     1      -3.288  -2.824  25.090  0.00  0.00    +0.021 A 
ATOM      9  C   UNL     1      -3.418  -2.746  24.278  0.00  0.00    +0.003 A 
ATOM     10  C   UNL     1      -3.751  -2.053  23.979  0.00  0.00    +0.015 A 
ENDBRANCH   4   5
ENDBRANCH   3   4
ENDBRANCH   2   3
ENDBRANCH  11   2
BRANCH  32  33
ATOM     33  C   UNL     1      -5.323   2.953  25.699  0.00  0.00    +0.214 C 
ATOM     34  O   UNL     1      -5.158   3.237  26.455  0.00  0.00    -0.218 OA
ENDBRANCH  32  33
BRANCH  12  13
ATOM     13  C   UNL     1      -2.887   1.709  24.723  0.00  0.00    +0.104 C 
BRANCH  13  14
ATOM     14  N   UNL     1      -2.329   2.309  24.817  0.00  0.00    -0.263 NA
BRANCH  14  15
ATOM     15  C   UNL     1      -2.478   3.062  24.512  0.00  0.00    +0.099 C 
BRANCH  15  16
ATOM     16  C   UNL     1      -1.943   3.675  24.650  0.00  0.00    -0.006 A 
ATOM     17  C   UNL     1      -1.349   3.835  24.101  0.00  0.00    -0.001 A 
ATOM     18  C   UNL     1      -0.814   4.449  24.239  0.00  0.00    +0.029 A 
ATOM     19  C   UNL     1      -0.875   4.902  24.927  0.00  0.00    +0.140 A 
ATOM     20  F   UNL     1      -0.340   5.515  25.064  0.00  0.00    -0.204 F 
ATOM     21  C   UNL     1      -1.469   4.741  25.476  0.00  0.00    +0.029 A 
ATOM     22  C   UNL     1      -2.003   4.128  25.337  0.00  0.00    -0.001 A 
ENDBRANCH  15  16
ENDBRANCH  14  15
BRANCH  14  23
ATOM     23  C   UNL     1      -1.622   2.158  25.214  0.00  0.00    +0.099 C 
BRANCH  23  24
ATOM     24  C   UNL     1      -1.250   1.427  25.131  0.00  0.00    -0.006 A 
ATOM     25  C   UNL     1      -1.168   0.929  25.784  0.00  0.00    -0.001 A 
ATOM     26  C   UNL     1      -0.796   0.197  25.701  0.00  0.00    +0.029 A 
ATOM     27  C   UNL     1      -0.506  -0.036  24.964  0.00  0.00    +0.140 A 
ATOM     28  F   UNL     1      -0.134  -0.768  24.881  0.00  0.00    -0.204 F 
ATOM     29  C   UNL     1      -0.588   0.461  24.312  0.00  0.00    +0.029 A 
ATOM     30  C   UNL     1      -0.960   1.193  24.394  0.00  0.00    -0.001 A 
ENDBRANCH  23  24
ENDBRANCH  14  23
ENDBRANCH  13  14
ENDBRANCH  12  13
TORSDOF 11
ENDMDL
MODEL 9
REMARK VINA RESULT:      -9.5      1.858      3.644
REMARK  Name = 
REMARK  11 active torsions:
REMARK  status: ('A' for Active; 'I' for Inactive)
REMARK    1  A    between atoms: N_2  and  C_3
REMARK    2  A    between atoms: N_2  and  C_11
REMARK    3  A    between atoms: C_3  and  C_4
REMARK    4  A    between atoms: C_4  and  C_5
REMARK    5  A    between atoms: C_12  and  C_13
REMARK    6  A    between atoms: C_13  and  N_14
REMARK    7  A    between atoms: N_14  and  C_15
REMARK    8  A    between atoms: N_14  and  C_23
REMARK    9  A    between atoms: C_15  and  C_16
REMARK   10  A    between atoms: C_23  and  C_24
REMARK   11  A    between atoms: C_32  and  C_33
REMARK                            x       y       z     vdW  Elec       q    Type
REMARK                         _______ _______ _______ _____ _____    ______ ____
ROOT
ATOM     11  C   UNL     1      -1.825   2.435  25.173  0.00  0.00    +0.120 C 
ATOM     12  C   UNL     1      -1.471   1.694  25.096  0.00  0.00    +0.148 C 
ATOM     31  O   UNL     1      -0.816   1.671  25.596  0.00  0.00    -0.350 OA
ATOM     32  C   UNL     1      -0.765   2.398  25.982  0.00  0.00    +0.180 C 
ATOM     35  C   UNL     1      -1.388   2.870  25.721  0.00  0.00    +0.198 C 
ATOM     36  O   UNL     1      -1.547   3.643  25.965  0.00  0.00    -0.219 OA
ENDROOT
BRANCH  11   2
ATOM      1  C   UNL     1      -2.425   3.052  24.031  0.00  0.00    +0.090 C 
ATOM      2  N   UNL     1      -2.498   2.696  24.772  0.00  0.00    -0.268 NA
BRANCH   2   3
ATOM      3  C   UNL     1      -3.243   2.600  25.112  0.00  0.00    +0.079 C 
BRANCH   3   4
ATOM      4  C   UNL     1      -3.918   2.839  24.702  0.00  0.00    +0.063 C 
BRANCH   4   5
ATOM      5  C   UNL     1      -4.666   2.658  24.998  0.00  0.00    +0.060 A 
ATOM      6  N   UNL     1      -4.964   3.069  25.647  0.00  0.00    -0.248 NA
ATOM      7  C   UNL     1      -5.713   2.887  25.943  0.00  0.00    +0.098 A 
ATOM      8  C   UNL     1      -6.163   2.294  25.589  0.00  0.00    +0.021 A 
ATOM      9  C   UNL     1      -5.865   1.882  24.938  0.00  0.00    +0.003 A 
ATOM     10  C   UNL     1      -5.117   2.065  24.643  0.00  0.00    +0.015 A 
ENDBRANCH   4   5
ENDBRANCH   3   4
ENDBRANCH   2   3
ENDBRANCH  11   2
BRANCH  32  33
ATOM     33  C   UNL     1      -0.190   2.615  26.533  0.00  0.00    +0.214 C 
ATOM     34  O   UNL     1       0.608   2.587  26.330  0.00  0.00    -0.218 OA
ENDBRANCH  32  33
BRANCH  12  13
ATOM     13  C   UNL     1      -1.728   1.083  24.605  0.00  0.00    +0.104 C 
BRANCH  13  14
ATOM     14  N   UNL     1      -1.250   0.421  24.486  0.00  0.00    -0.263 NA
BRANCH  14  15
ATOM     15  C   UNL     1      -0.430   0.487  24.551  0.00  0.00    +0.099 C 
BRANCH  15  16
ATOM     16  C   UNL     1       0.054   0.256  23.924  0.00  0.00    -0.006 A 
ATOM     17  C   UNL     1       0.071   0.701  23.230  0.00  0.00    -0.001 A 
ATOM     18  C   UNL     1       0.554   0.469  22.603  0.00  0.00    +0.029 A 
ATOM     19  C   UNL     1       1.021  -0.209  22.670  0.00  0.00    +0.140 A 
ATOM     20  F   UNL     1       1.504  -0.440  22.043  0.00  0.00    -0.204 F 
ATOM     21  C   UNL     1       1.003  -0.654  23.364  0.00  0.00    +0.029 A 
ATOM     22  C   UNL     1       0.520  -0.422  23.991  0.00  0.00    -0.001 A 
ENDBRANCH  15  16
ENDBRANCH  14  15
BRANCH  14  23
ATOM     23  C   UNL     1      -1.591  -0.307  24.302  0.00  0.00    +0.099 C 
BRANCH  23  24
ATOM     24  C   UNL     1      -2.180  -0.621  24.787  0.00  0.00    -0.006 A 
ATOM     25  C   UNL     1      -2.945  -0.723  24.494  0.00  0.00    -0.001 A 
ATOM     26  C   UNL     1      -3.533  -1.038  24.979  0.00  0.00    +0.029 A 
ATOM     27  C   UNL     1      -3.356  -1.251  25.757  0.00  0.00    +0.140 A 
ATOM     28  F   UNL     1      -3.945  -1.566  26.242  0.00  0.00    -0.204 F 
ATOM     29  C   UNL     1      -2.592  -1.149  26.049  0.00  0.00    +0.029 A 
ATOM     30  C   UNL     1      -2.003  -0.834  25.564  0.00  0.00    -0.001 A 
ENDBRANCH  23  24
ENDBRANCH  14  23
ENDBRANCH  13  14
ENDBRANCH  12  13
TORSDOF 11
ENDMDL
