MODEL 1
REMARK VINA RESULT:     -12.4      0.000      0.000
REMARK  Name = 
REMARK  6 active torsions:
REMARK  status: ('A' for Active; 'I' for Inactive)
REMARK    1  A    between atoms: O_2  and  C_3
REMARK    2  A    between atoms: C_7  and  C_9
REMARK    3  A    between atoms: N_13  and  C_14
REMARK    4  A    between atoms: C_18  and  N_22
REMARK    5  A    between atoms: C_23  and  C_25
REMARK    6  A    between atoms: C_30  and  C_31
REMARK                            x       y       z     vdW  Elec       q    Type
REMARK                         _______ _______ _______ _____ _____    ______ ____
ROOT
ATOM     14  C   UNL     1      -3.214   2.670  24.222  0.00  0.00    +0.167 C 
ATOM     15  C   UNL     1      -2.729   2.364  23.629  0.00  0.00    +0.169 C 
ATOM     16  O   UNL     1      -2.876   1.555  23.574  0.00  0.00    -0.350 OA
ATOM     17  C   UNL     1      -3.451   1.360  24.131  0.00  0.00    +0.167 C 
ATOM     18  C   UNL     1      -3.897   0.740  24.443  0.00  0.00    +0.155 C 
ATOM     19  C   UNL     1      -4.382   1.046  25.035  0.00  0.00    +0.166 C 
ATOM     20  O   UNL     1      -4.236   1.856  25.091  0.00  0.00    -0.350 OA
ATOM     21  C   UNL     1      -3.660   2.050  24.532  0.00  0.00    +0.169 C 
ENDROOT
BRANCH  14  13
ATOM      9  C   UNL     1      -2.624   3.895  24.781  0.00  0.00    +0.184 A 
ATOM     10  N   UNL     1      -2.901   4.656  24.942  0.00  0.00    -0.108 NA
ATOM     11  N   UNL     1      -3.696   4.690  24.722  0.00  0.00    -0.023 NA
ATOM     12  N   UNL     1      -3.910   3.950  24.426  0.00  0.00    -0.043 NA
ATOM     13  N   UNL     1      -3.247   3.459  24.462  0.00  0.00    -0.210 N 
BRANCH   9   7
ATOM      3  C   UNL     1      -0.892   3.026  25.784  0.00  0.00    +0.139 A 
ATOM      4  C   UNL     1      -0.327   3.069  25.185  0.00  0.00    +0.037 A 
ATOM      5  C   UNL     1      -0.527   3.388  24.450  0.00  0.00    +0.003 A 
ATOM      6  C   UNL     1      -1.293   3.664  24.316  0.00  0.00    +0.003 A 
ATOM      7  C   UNL     1      -1.858   3.620  24.916  0.00  0.00    +0.040 A 
ATOM      8  C   UNL     1      -1.658   3.302  25.649  0.00  0.00    +0.040 A 
BRANCH   3   2
ATOM      1  C   UNL     1       0.048   2.356  26.626  0.00  0.00    +0.252 C 
ATOM      2  O   UNL     1      -0.691   2.708  26.517  0.00  0.00    -0.471 OA
ENDBRANCH   3   2
ENDBRANCH   9   7
ENDBRANCH  14  13
BRANCH  18  22
ATOM     22  N   UNL     1      -3.864  -0.049  24.202  0.00  0.00    -0.198 NA
ATOM     23  C   UNL     1      -3.949  -0.653  24.757  0.00  0.00    +0.265 C 
ATOM     24  O   UNL     1      -4.067  -0.469  25.553  0.00  0.00    -0.268 OA
BRANCH  23  25
ATOM     25  C   UNL     1      -3.916  -1.442  24.517  0.00  0.00    +0.061 A 
ATOM     26  C   UNL     1      -4.386  -1.703  23.891  0.00  0.00    +0.005 A 
ATOM     27  C   UNL     1      -4.353  -2.491  23.651  0.00  0.00    +0.000 A 
ATOM     28  C   UNL     1      -3.849  -3.019  24.037  0.00  0.00    +0.000 A 
ATOM     29  C   UNL     1      -3.380  -2.758  24.662  0.00  0.00    +0.007 A 
ATOM     30  C   UNL     1      -3.412  -1.969  24.903  0.00  0.00    +0.084 A 
BRANCH  30  31
ATOM     31  C   UNL     1      -2.942  -1.709  25.529  0.00  0.00    +0.388 C 
ATOM     32  O   UNL     1      -2.162  -1.481  25.391  0.00  0.00    -0.241 OA
ATOM     33  O   UNL     1      -3.253  -1.676  26.292  0.00  0.00    -0.241 OA
ENDBRANCH  30  31
ENDBRANCH  23  25
ENDBRANCH  18  22
TORSDOF 6
ENDMDL
MODEL 2
REMARK VINA RESULT:     -12.2      1.449      2.413
REMARK  Name = 
REMARK  6 active torsions:
REMARK  status: ('A' for Active; 'I' for Inactive)
REMARK    1  A    between atoms: O_2  and  C_3
REMARK    2  A    between atoms: C_7  and  C_9
REMARK    3  A    between atoms: N_13  and  C_14
REMARK    4  A    between atoms: C_18  and  N_22
REMARK    5  A    between atoms: C_23  and  C_25
REMARK    6  A    between atoms: C_30  and  C_31
REMARK                            x       y       z     vdW  Elec       q    Type
REMARK                         _______ _______ _______ _____ _____    ______ ____
ROOT
ATOM     14  C   UNL     1      -1.704   2.602  24.514  0.00  0.00    +0.167 C 
ATOM     15  C   UNL     1      -2.044   2.390  23.793  0.00  0.00    +0.169 C 
ATOM     16  O   UNL     1      -2.094   1.567  23.766  0.00  0.00    -0.350 OA
ATOM     17  C   UNL     1      -1.785   1.270  24.470  0.00  0.00    +0.167 C 
ATOM     18  C   UNL     1      -1.624   0.578  24.890  0.00  0.00    +0.155 C 
ATOM     19  C   UNL     1      -1.284   0.790  25.611  0.00  0.00    +0.166 C 
ATOM     20  O   UNL     1      -1.234   1.613  25.638  0.00  0.00    -0.350 OA
ATOM     21  C   UNL     1      -1.544   1.910  24.932  0.00  0.00    +0.169 C 
ENDROOT
BRANCH  14  13
ATOM      9  C   UNL     1      -2.117   3.948  24.937  0.00  0.00    +0.184 A 
ATOM     10  N   UNL     1      -1.721   4.632  25.176  0.00  0.00    -0.108 NA
ATOM     11  N   UNL     1      -0.910   4.477  25.156  0.00  0.00    -0.023 NA
ATOM     12  N   UNL     1      -0.805   3.698  24.906  0.00  0.00    -0.043 NA
ATOM     13  N   UNL     1      -1.551   3.371  24.771  0.00  0.00    -0.210 N 
BRANCH   9   7
ATOM      3  C   UNL     1      -4.192   3.540  25.474  0.00  0.00    +0.139 A 
ATOM      4  C   UNL     1      -4.569   3.676  24.754  0.00  0.00    +0.037 A 
ATOM      5  C   UNL     1      -4.129   3.903  24.094  0.00  0.00    +0.003 A 
ATOM      6  C   UNL     1      -3.311   3.994  24.155  0.00  0.00    +0.003 A 
ATOM      7  C   UNL     1      -2.934   3.857  24.876  0.00  0.00    +0.040 A 
ATOM      8  C   UNL     1      -3.374   3.630  25.535  0.00  0.00    +0.040 A 
BRANCH   3   2
ATOM      1  C   UNL     1      -5.307   2.847  26.039  0.00  0.00    +0.252 C 
ATOM      2  O   UNL     1      -4.632   3.313  26.133  0.00  0.00    -0.471 OA
ENDBRANCH   3   2
ENDBRANCH   9   7
ENDBRANCH  14  13
BRANCH  18  22
ATOM     22  N   UNL     1      -1.777  -0.191  24.633  0.00  0.00    -0.198 NA
ATOM     23  C   UNL     1      -2.144  -0.729  25.139  0.00  0.00    +0.265 C 
ATOM     24  O   UNL     1      -2.358  -0.500  25.902  0.00  0.00    -0.268 OA
BRANCH  23  25
ATOM     25  C   UNL     1      -2.297  -1.499  24.882  0.00  0.00    +0.061 A 
ATOM     26  C   UNL     1      -1.680  -1.972  24.607  0.00  0.00    +0.005 A 
ATOM     27  C   UNL     1      -1.832  -2.741  24.350  0.00  0.00    +0.000 A 
ATOM     28  C   UNL     1      -2.603  -3.036  24.369  0.00  0.00    +0.000 A 
ATOM     29  C   UNL     1      -3.219  -2.563  24.643  0.00  0.00    +0.007 A 
ATOM     30  C   UNL     1      -3.067  -1.794  24.900  0.00  0.00    +0.084 A 
BRANCH  30  31
ATOM     31  C   UNL     1      -3.684  -1.320  25.175  0.00  0.00    +0.388 C 
ATOM     32  O   UNL     1      -4.169  -0.924  24.639  0.00  0.00    -0.241 OA
ATOM     33  O   UNL     1      -3.815  -1.243  25.986  0.00  0.00    -0.241 OA
ENDBRANCH  30  31
ENDBRANCH  23  25
ENDBRANCH  18  22
TORSDOF 6
ENDMDL
MODEL 3
REMARK VINA RESULT:     -12.2      1.946      5.585
REMARK  Name = 
REMARK  6 active torsions:
REMARK  status: ('A' for Active; 'I' for Inactive)
REMARK    1  A    between atoms: O_2  and  C_3
REMARK    2  A    between atoms: C_7  and  C_9
REMARK    3  A    between atoms: N_13  and  C_14
REMARK    4  A    between atoms: C_18  and  N_22
REMARK    5  A    between atoms: C_23  and  C_25
REMARK    6  A    between atoms: C_30  and  C_31
REMARK                            x       y       z     vdW  Elec       q    Type
REMARK                         _______ _______ _______ _____ _____    ______ ____
ROOT
ATOM     14  C   UNL     1      -1.121  -0.093  24.681  0.00  0.00    +0.167 C 
ATOM     15  C   UNL     1      -1.490   0.183  23.997  0.00  0.00    +0.169 C 
ATOM     16  O   UNL     1      -1.486   1.007  24.020  0.00  0.00    -0.350 OA
ATOM     17  C   UNL     1      -1.114   1.242  24.718  0.00  0.00    +0.167 C 
ATOM     18  C   UNL     1      -0.882   1.895  25.164  0.00  0.00    +0.155 C 
ATOM     19  C   UNL     1      -0.513   1.620  25.849  0.00  0.00    +0.166 C 
ATOM     20  O   UNL     1      -0.517   0.795  25.825  0.00  0.00    -0.350 OA
ATOM     21  C   UNL     1      -0.889   0.561  25.127  0.00  0.00    +0.169 C 
ENDROOT
BRANCH  14  13
ATOM      9  C   UNL     1      -1.596  -1.429  25.069  0.00  0.00    +0.184 A 
ATOM     10  N   UNL     1      -1.234  -2.151  25.237  0.00  0.00    -0.108 NA
ATOM     11  N   UNL     1      -0.418  -2.052  25.156  0.00  0.00    -0.023 NA
ATOM     12  N   UNL     1      -0.277  -1.269  24.938  0.00  0.00    -0.043 NA
ATOM     13  N   UNL     1      -1.005  -0.884  24.885  0.00  0.00    -0.210 N 
BRANCH   9   7
ATOM      3  C   UNL     1      -3.676  -1.273  24.429  0.00  0.00    +0.139 A 
ATOM      4  C   UNL     1      -4.028  -0.978  25.113  0.00  0.00    +0.037 A 
ATOM      5  C   UNL     1      -3.570  -0.832  25.784  0.00  0.00    +0.003 A 
ATOM      6  C   UNL     1      -2.759  -0.983  25.769  0.00  0.00    +0.003 A 
ATOM      7  C   UNL     1      -2.407  -1.278  25.084  0.00  0.00    +0.040 A 
ATOM      8  C   UNL     1      -2.865  -1.423  24.414  0.00  0.00    +0.040 A 
BRANCH   3   2
ATOM      1  C   UNL     1      -4.450  -2.170  23.629  0.00  0.00    +0.252 C 
ATOM      2  O   UNL     1      -4.134  -1.418  23.759  0.00  0.00    -0.471 OA
ENDBRANCH   3   2
ENDBRANCH   9   7
ENDBRANCH  14  13
BRANCH  18  22
ATOM     22  N   UNL     1      -0.998   2.687  24.961  0.00  0.00    -0.198 NA
ATOM     23  C   UNL     1      -1.223   3.232  25.538  0.00  0.00    +0.265 C 
ATOM     24  O   UNL     1      -1.331   2.986  26.318  0.00  0.00    -0.268 OA
BRANCH  23  25
ATOM     25  C   UNL     1      -1.339   4.023  25.335  0.00  0.00    +0.061 A 
ATOM     26  C   UNL     1      -0.719   4.461  25.011  0.00  0.00    +0.005 A 
ATOM     27  C   UNL     1      -0.835   5.253  24.808  0.00  0.00    +0.000 A 
ATOM     28  C   UNL     1      -1.572   5.605  24.930  0.00  0.00    +0.000 A 
ATOM     29  C   UNL     1      -2.190   5.167  25.253  0.00  0.00    +0.007 A 
ATOM     30  C   UNL     1      -2.075   4.376  25.457  0.00  0.00    +0.084 A 
BRANCH  30  31
ATOM     31  C   UNL     1      -2.694   3.938  25.781  0.00  0.00    +0.388 C 
ATOM     32  O   UNL     1      -2.784   3.895  26.599  0.00  0.00    -0.241 OA
ATOM     33  O   UNL     1      -3.223   3.543  25.285  0.00  0.00    -0.241 OA
ENDBRANCH  30  31
ENDBRANCH  23  25
ENDBRANCH  18  22
TORSDOF 6
ENDMDL
MODEL 4
REMARK VINA RESULT:     -11.7      2.290      4.631
REMARK  Name = 
REMARK  6 active torsions:
REMARK  status: ('A' for Active; 'I' for Inactive)
REMARK    1  A    between atoms: O_2  and  C_3
REMARK    2  A    between atoms: C_7  and  C_9
REMARK    3  A    between atoms: N_13  and  C_14
REMARK    4  A    between atoms: C_18  and  N_22
REMARK    5  A    between atoms: C_23  and  C_25
REMARK    6  A    between atoms: C_30  and  C_31
REMARK                            x       y       z     vdW  Elec       q    Type
REMARK                         _______ _______ _______ _____ _____    ______ ____
ROOT
ATOM     14  C   UNL     1      -0.807   0.758  24.377  0.00  0.00    +0.167 C 
ATOM     15  C   UNL     1      -0.856   0.846  25.196  0.00  0.00    +0.169 C 
ATOM     16  O   UNL     1      -1.512   1.318  25.362  0.00  0.00    -0.350 OA
ATOM     17  C   UNL     1      -1.868   1.521  24.647  0.00  0.00    +0.167 C 
ATOM     18  C   UNL     1      -2.494   1.938  24.307  0.00  0.00    +0.155 C 
ATOM     19  C   UNL     1      -2.445   1.851  23.488  0.00  0.00    +0.166 C 
ATOM     20  O   UNL     1      -1.789   1.379  23.322  0.00  0.00    -0.350 OA
ATOM     21  C   UNL     1      -1.432   1.175  24.038  0.00  0.00    +0.169 C 
ENDROOT
BRANCH  14  13
ATOM      9  C   UNL     1      -0.139  -0.491  23.985  0.00  0.00    +0.184 A 
ATOM     10  N   UNL     1       0.500  -0.684  23.499  0.00  0.00    -0.108 NA
ATOM     11  N   UNL     1       0.801   0.017  23.184  0.00  0.00    -0.023 NA
ATOM     12  N   UNL     1       0.348   0.642  23.474  0.00  0.00    -0.043 NA
ATOM     13  N   UNL     1      -0.233   0.328  23.969  0.00  0.00    -0.210 N 
BRANCH   9   7
ATOM      3  C   UNL     1      -1.717  -1.914  24.480  0.00  0.00    +0.139 A 
ATOM      4  C   UNL     1      -1.528  -2.091  25.262  0.00  0.00    +0.037 A 
ATOM      5  C   UNL     1      -0.876  -1.734  25.620  0.00  0.00    +0.003 A 
ATOM      6  C   UNL     1      -0.412  -1.201  25.194  0.00  0.00    +0.003 A 
ATOM      7  C   UNL     1      -0.602  -1.024  24.411  0.00  0.00    +0.040 A 
ATOM      8  C   UNL     1      -1.254  -1.381  24.054  0.00  0.00    +0.040 A 
BRANCH   3   2
ATOM      1  C   UNL     1      -3.121  -2.184  24.455  0.00  0.00    +0.252 C 
ATOM      2  O   UNL     1      -2.369  -2.271  24.122  0.00  0.00    -0.471 OA
ENDBRANCH   3   2
ENDBRANCH   9   7
ENDBRANCH  14  13
BRANCH  18  22
ATOM     22  N   UNL     1      -3.068   2.369  24.715  0.00  0.00    -0.198 NA
ATOM     23  C   UNL     1      -3.861   2.308  24.496  0.00  0.00    +0.265 C 
ATOM     24  O   UNL     1      -4.081   1.818  23.870  0.00  0.00    -0.268 OA
BRANCH  23  25
ATOM     25  C   UNL     1      -4.435   2.738  24.904  0.00  0.00    +0.061 A 
ATOM     26  C   UNL     1      -4.342   3.550  25.014  0.00  0.00    +0.005 A 
ATOM     27  C   UNL     1      -4.915   3.981  25.422  0.00  0.00    +0.000 A 
ATOM     28  C   UNL     1      -5.583   3.598  25.720  0.00  0.00    +0.000 A 
ATOM     29  C   UNL     1      -5.676   2.786  25.610  0.00  0.00    +0.007 A 
ATOM     30  C   UNL     1      -5.103   2.355  25.202  0.00  0.00    +0.084 A 
BRANCH  30  31
ATOM     31  C   UNL     1      -5.196   1.543  25.092  0.00  0.00    +0.388 C 
ATOM     32  O   UNL     1      -5.599   1.261  24.431  0.00  0.00    -0.241 OA
ATOM     33  O   UNL     1      -4.886   1.014  25.644  0.00  0.00    -0.241 OA
ENDBRANCH  30  31
ENDBRANCH  23  25
ENDBRANCH  18  22
TORSDOF 6
ENDMDL
MODEL 5
REMARK VINA RESULT:     -11.6      2.009      4.848
REMARK  Name = 
REMARK  6 active torsions:
REMARK  status: ('A' for Active; 'I' for Inactive)
REMARK    1  A    between atoms: O_2  and  C_3
REMARK    2  A    between atoms: C_7  and  C_9
REMARK    3  A    between atoms: N_13  and  C_14
REMARK    4  A    between atoms: C_18  and  N_22
REMARK    5  A    between atoms: C_23  and  C_25
REMARK    6  A    between atoms: C_30  and  C_31
REMARK                            x       y       z     vdW  Elec       q    Type
REMARK                         _______ _______ _______ _____ _____    ______ ____
ROOT
ATOM     14  C   UNL     1      -3.354  -1.465  24.996  0.00  0.00    +0.167 C 
ATOM     15  C   UNL     1      -3.277  -1.244  25.787  0.00  0.00    +0.169 C 
ATOM     16  O   UNL     1      -3.628  -0.503  25.879  0.00  0.00    -0.350 OA
ATOM     17  C   UNL     1      -3.921  -0.266  25.146  0.00  0.00    +0.167 C 
ATOM     18  C   UNL     1      -4.319   0.337  24.748  0.00  0.00    +0.155 C 
ATOM     19  C   UNL     1      -4.396   0.116  23.958  0.00  0.00    +0.166 C 
ATOM     20  O   UNL     1      -4.045  -0.625  23.866  0.00  0.00    -0.350 OA
ATOM     21  C   UNL     1      -3.752  -0.861  24.600  0.00  0.00    +0.169 C 
ENDROOT
BRANCH  14  13
ATOM      9  C   UNL     1      -2.291  -2.365  24.525  0.00  0.00    +0.184 A 
ATOM     10  N   UNL     1      -2.271  -3.115  24.182  0.00  0.00    -0.108 NA
ATOM     11  N   UNL     1      -3.049  -3.382  24.106  0.00  0.00    -0.023 NA
ATOM     12  N   UNL     1      -3.549  -2.796  24.402  0.00  0.00    -0.043 NA
ATOM     13  N   UNL     1      -3.081  -2.168  24.661  0.00  0.00    -0.210 N 
BRANCH   9   7
ATOM      3  C   UNL     1      -0.670  -0.921  24.302  0.00  0.00    +0.139 A 
ATOM      4  C   UNL     1      -0.328  -0.954  25.051  0.00  0.00    +0.037 A 
ATOM      5  C   UNL     1      -0.640  -1.458  25.626  0.00  0.00    +0.003 A 
ATOM      6  C   UNL     1      -1.294  -1.928  25.451  0.00  0.00    +0.003 A 
ATOM      7  C   UNL     1      -1.637  -1.894  24.700  0.00  0.00    +0.040 A 
ATOM      8  C   UNL     1      -1.325  -1.391  24.127  0.00  0.00    +0.040 A 
BRANCH   3   2
ATOM      1  C   UNL     1      -0.300   0.392  23.878  0.00  0.00    +0.252 C 
ATOM      2  O   UNL     1      -0.359  -0.418  23.728  0.00  0.00    -0.471 OA
ENDBRANCH   3   2
ENDBRANCH   9   7
ENDBRANCH  14  13
BRANCH  18  22
ATOM     22  N   UNL     1      -4.593   1.040  25.084  0.00  0.00    -0.198 NA
ATOM     23  C   UNL     1      -4.495   1.754  24.683  0.00  0.00    +0.265 C 
ATOM     24  O   UNL     1      -4.124   1.767  23.946  0.00  0.00    -0.268 OA
BRANCH  23  25
ATOM     25  C   UNL     1      -4.768   2.457  25.018  0.00  0.00    +0.061 A 
ATOM     26  C   UNL     1      -5.546   2.510  25.287  0.00  0.00    +0.005 A 
ATOM     27  C   UNL     1      -5.821   3.212  25.623  0.00  0.00    +0.000 A 
ATOM     28  C   UNL     1      -5.315   3.862  25.689  0.00  0.00    +0.000 A 
ATOM     29  C   UNL     1      -4.538   3.808  25.420  0.00  0.00    +0.007 A 
ATOM     30  C   UNL     1      -4.263   3.106  25.084  0.00  0.00    +0.084 A 
BRANCH  30  31
ATOM     31  C   UNL     1      -3.485   3.053  24.815  0.00  0.00    +0.388 C 
ATOM     32  O   UNL     1      -2.885   2.825  25.332  0.00  0.00    -0.241 OA
ATOM     33  O   UNL     1      -3.309   3.228  24.028  0.00  0.00    -0.241 OA
ENDBRANCH  30  31
ENDBRANCH  23  25
ENDBRANCH  18  22
TORSDOF 6
ENDMDL
MODEL 6
REMARK VINA RESULT:     -11.1      1.315      5.035
REMARK  Name = 
REMARK  6 active torsions:
REMARK  status: ('A' for Active; 'I' for Inactive)
REMARK    1  A    between atoms: O_2  and  C_3
REMARK    2  A    between atoms: C_7  and  C_9
REMARK    3  A    between atoms: N_13  and  C_14
REMARK    4  A    between atoms: C_18  and  N_22
REMARK    5  A    between atoms: C_23  and  C_25
REMARK    6  A    between atoms: C_30  and  C_31
REMARK                            x       y       z     vdW  Elec       q    Type
REMARK                         _______ _______ _______ _____ _____    ______ ____
ROOT
ATOM     14  C   UNL     1      -3.806  -0.346  24.598  0.00  0.00    +0.167 C 
ATOM     15  C   UNL     1      -3.770  -0.170  25.403  0.00  0.00    +0.169 C 
ATOM     16  O   UNL     1      -3.542   0.619  25.482  0.00  0.00    -0.350 OA
ATOM     17  C   UNL     1      -3.437   0.931  24.726  0.00  0.00    +0.167 C 
ATOM     18  C   UNL     1      -3.232   1.610  24.306  0.00  0.00    +0.155 C 
ATOM     19  C   UNL     1      -3.267   1.435  23.501  0.00  0.00    +0.166 C 
ATOM     20  O   UNL     1      -3.495   0.646  23.423  0.00  0.00    -0.350 OA
ATOM     21  C   UNL     1      -3.600   0.334  24.180  0.00  0.00    +0.169 C 
ENDROOT
BRANCH  14  13
ATOM      9  C   UNL     1      -3.551  -1.758  24.281  0.00  0.00    +0.184 A 
ATOM     10  N   UNL     1      -3.968  -2.353  23.890  0.00  0.00    -0.108 NA
ATOM     11  N   UNL     1      -4.688  -2.037  23.638  0.00  0.00    -0.023 NA
ATOM     12  N   UNL     1      -4.714  -1.246  23.872  0.00  0.00    -0.043 NA
ATOM     13  N   UNL     1      -4.011  -1.074  24.270  0.00  0.00    -0.210 N 
BRANCH   9   7
ATOM      3  C   UNL     1      -1.381  -1.761  24.515  0.00  0.00    +0.139 A 
ATOM      4  C   UNL     1      -1.310  -1.987  25.305  0.00  0.00    +0.037 A 
ATOM      5  C   UNL     1      -1.986  -2.137  25.754  0.00  0.00    +0.003 A 
ATOM      6  C   UNL     1      -2.733  -2.061  25.413  0.00  0.00    +0.003 A 
ATOM      7  C   UNL     1      -2.804  -1.834  24.622  0.00  0.00    +0.040 A 
ATOM      8  C   UNL     1      -2.128  -1.685  24.174  0.00  0.00    +0.040 A 
BRANCH   3   2
ATOM      1  C   UNL     1      -0.223  -0.967  24.251  0.00  0.00    +0.252 C 
ATOM      2  O   UNL     1      -0.706  -1.611  24.067  0.00  0.00    -0.471 OA
ENDBRANCH   3   2
ENDBRANCH   9   7
ENDBRANCH  14  13
BRANCH  18  22
ATOM     22  N   UNL     1      -3.026   2.339  24.635  0.00  0.00    -0.198 NA
ATOM     23  C   UNL     1      -2.339   2.724  24.388  0.00  0.00    +0.265 C 
ATOM     24  O   UNL     1      -1.858   2.381  23.812  0.00  0.00    -0.268 OA
BRANCH  23  25
ATOM     25  C   UNL     1      -2.134   3.453  24.717  0.00  0.00    +0.061 A 
ATOM     26  C   UNL     1      -2.691   4.060  24.755  0.00  0.00    +0.005 A 
ATOM     27  C   UNL     1      -2.486   4.788  25.084  0.00  0.00    +0.000 A 
ATOM     28  C   UNL     1      -1.722   4.909  25.374  0.00  0.00    +0.000 A 
ATOM     29  C   UNL     1      -1.166   4.302  25.335  0.00  0.00    +0.007 A 
ATOM     30  C   UNL     1      -1.371   3.573  25.006  0.00  0.00    +0.084 A 
BRANCH  30  31
ATOM     31  C   UNL     1      -0.814   2.966  24.968  0.00  0.00    +0.388 C 
ATOM     32  O   UNL     1      -0.726   2.447  25.602  0.00  0.00    -0.241 OA
ATOM     33  O   UNL     1      -0.345   2.879  24.294  0.00  0.00    -0.241 OA
ENDBRANCH  30  31
ENDBRANCH  23  25
ENDBRANCH  18  22
TORSDOF 6
ENDMDL
