MODEL 1
REMARK VINA RESULT:     -10.0      0.000      0.000
REMARK  Name = 
REMARK  6 active torsions:
REMARK  status: ('A' for Active; 'I' for Inactive)
REMARK    1  A    between atoms: N_2  and  C_4
REMARK    2  A    between atoms: C_8  and  O_9
REMARK    3  A    between atoms: O_9  and  C_10
REMARK    4  A    between atoms: N_14  and  C_15
REMARK    5  A    between atoms: C_19  and  N_23
REMARK    6  A    between atoms: N_26  and  C_27
REMARK                            x       y       z     vdW  Elec       q    Type
REMARK                         _______ _______ _______ _____ _____    ______ ____
ROOT
ATOM     15  C   UNL     1       0.555  -0.093  23.088  0.00  0.00    +0.170 C 
ATOM     16  C   UNL     1       0.485  -0.574  23.755  0.00  0.00    +0.169 C 
ATOM     17  O   UNL     1      -0.123  -0.271  24.224  0.00  0.00    -0.350 OA
ATOM     18  C   UNL     1      -0.427   0.396  23.848  0.00  0.00    +0.167 C 
ATOM     19  C   UNL     1      -0.991   0.996  23.905  0.00  0.00    +0.156 C 
ATOM     20  C   UNL     1      -0.920   1.478  23.238  0.00  0.00    +0.166 C 
ATOM     21  O   UNL     1      -0.313   1.175  22.769  0.00  0.00    -0.350 OA
ATOM     22  C   UNL     1      -0.008   0.506  23.146  0.00  0.00    +0.169 C 
ENDROOT
BRANCH  15  14
ATOM     10  C   UNL     1       1.901  -0.020  22.501  0.00  0.00    +0.343 A 
ATOM     11  N   UNL     1       2.228  -0.206  21.767  0.00  0.00    -0.071 NA
ATOM     12  N   UNL     1       1.625  -0.496  21.285  0.00  0.00    -0.020 NA
ATOM     13  N   UNL     1       0.925  -0.489  21.722  0.00  0.00    -0.040 NA
ATOM     14  N   UNL     1       1.095  -0.195  22.473  0.00  0.00    -0.180 N 
BRANCH  10   9
ATOM      9  O   UNL     1       2.308   0.288  23.150  0.00  0.00    -0.421 OA
BRANCH   9   8
ATOM      4  C   UNL     1       4.449  -0.037  23.428  0.00  0.00    +0.051 A 
ATOM      5  C   UNL     1       4.758   0.618  23.032  0.00  0.00    +0.015 A 
ATOM      6  C   UNL     1       4.251   1.162  22.675  0.00  0.00    +0.004 A 
ATOM      7  C   UNL     1       3.434   1.052  22.715  0.00  0.00    +0.038 A 
ATOM      8  C   UNL     1       3.125   0.397  23.111  0.00  0.00    +0.150 A 
ATOM     37  C   UNL     1       3.632  -0.147  23.467  0.00  0.00    +0.052 A 
BRANCH   4   2
ATOM      1  C   UNL     1       5.674  -0.330  24.101  0.00  0.00    +0.112 C 
ATOM      2  N   UNL     1       4.956  -0.581  23.784  0.00  0.00    -0.304 N 
ATOM      3  C   UNL     1       4.744  -1.378  23.823  0.00  0.00    +0.112 C 
ENDBRANCH   4   2
ENDBRANCH   9   8
ENDBRANCH  10   9
ENDBRANCH  15  14
BRANCH  19  23
ATOM     23  N   UNL     1      -1.531   1.098  24.522  0.00  0.00    -0.184 NA
ATOM     24  C   UNL     1      -2.094   1.697  24.482  0.00  0.00    +0.344 C 
ATOM     25  O   UNL     1      -2.120   2.197  23.825  0.00  0.00    -0.249 OA
ATOM     26  N   UNL     1      -2.634   1.799  25.097  0.00  0.00    -0.161 NA
BRANCH  26  27
ATOM     27  C   UNL     1      -3.198   2.399  25.057  0.00  0.00    +0.075 A 
ATOM     28  C   UNL     1      -2.960   3.183  24.965  0.00  0.00    +0.017 A 
ATOM     29  C   UNL     1      -3.525   3.784  24.924  0.00  0.00    +0.001 A 
ATOM     30  C   UNL     1      -4.327   3.600  24.977  0.00  0.00    +0.000 A 
ATOM     31  C   UNL     1      -4.565   2.816  25.070  0.00  0.00    +0.001 A 
ATOM     32  C   UNL     1      -5.368   2.631  25.122  0.00  0.00    +0.000 A 
ATOM     33  C   UNL     1      -5.606   1.848  25.215  0.00  0.00    +0.000 A 
ATOM     34  C   UNL     1      -5.041   1.247  25.255  0.00  0.00    +0.000 A 
ATOM     35  C   UNL     1      -4.239   1.431  25.202  0.00  0.00    +0.001 A 
ATOM     36  C   UNL     1      -4.000   2.215  25.110  0.00  0.00    +0.015 A 
ENDBRANCH  26  27
ENDBRANCH  19  23
TORSDOF 6
ENDMDL
MODEL 2
REMARK VINA RESULT:     -10.0      1.764      6.996
REMARK  Name = 
REMARK  6 active torsions:
REMARK  status: ('A' for Active; 'I' for Inactive)
REMARK    1  A    between atoms: N_2  and  C_4
REMARK    2  A    between atoms: C_8  and  O_9
REMARK    3  A    between atoms: O_9  and  C_10
REMARK    4  A    between atoms: N_14  and  C_15
REMARK    5  A    between atoms: C_19  and  N_23
REMARK    6  A    between atoms: N_26  and  C_27
REMARK                            x       y       z     vdW  Elec       q    Type
REMARK                         _______ _______ _______ _____ _____    ______ ____
ROOT
ATOM     15  C   UNL     1      -1.861   3.588  25.299  0.00  0.00    +0.170 C 
ATOM     16  C   UNL     1      -1.589   4.017  24.650  0.00  0.00    +0.169 C 
ATOM     17  O   UNL     1      -0.859   3.705  24.425  0.00  0.00    -0.350 OA
ATOM     18  C   UNL     1      -0.680   3.083  24.936  0.00  0.00    +0.167 C 
ATOM     19  C   UNL     1      -0.118   2.505  25.113  0.00  0.00    +0.156 C 
ATOM     20  C   UNL     1      -0.390   2.075  25.764  0.00  0.00    +0.166 C 
ATOM     21  O   UNL     1      -1.120   2.388  25.988  0.00  0.00    -0.350 OA
ATOM     22  C   UNL     1      -1.299   3.011  25.476  0.00  0.00    +0.169 C 
ENDROOT
BRANCH  15  14
ATOM     10  C   UNL     1      -3.317   3.462  25.457  0.00  0.00    +0.343 A 
ATOM     11  N   UNL     1      -3.866   3.708  26.022  0.00  0.00    -0.071 NA
ATOM     12  N   UNL     1      -3.459   4.112  26.615  0.00  0.00    -0.020 NA
ATOM     13  N   UNL     1      -2.658   4.116  26.416  0.00  0.00    -0.040 NA
ATOM     14  N   UNL     1      -2.570   3.715  25.701  0.00  0.00    -0.180 N 
BRANCH  10   9
ATOM      9  O   UNL     1      -3.485   3.039  24.769  0.00  0.00    -0.421 OA
BRANCH   9   8
ATOM      4  C   UNL     1      -4.473   1.092  24.756  0.00  0.00    +0.051 A 
ATOM      5  C   UNL     1      -5.266   1.320  24.777  0.00  0.00    +0.015 A 
ATOM      6  C   UNL     1      -5.465   2.120  24.796  0.00  0.00    +0.004 A 
ATOM      7  C   UNL     1      -4.871   2.693  24.793  0.00  0.00    +0.038 A 
ATOM      8  C   UNL     1      -4.078   2.465  24.772  0.00  0.00    +0.150 A 
ATOM     37  C   UNL     1      -3.879   1.665  24.753  0.00  0.00    +0.052 A 
BRANCH   4   2
ATOM      1  C   UNL     1      -4.325  -0.162  25.424  0.00  0.00    +0.112 C 
ATOM      2  N   UNL     1      -4.274   0.292  24.737  0.00  0.00    -0.304 N 
ATOM      3  C   UNL     1      -4.023  -0.055  24.031  0.00  0.00    +0.112 C 
ENDBRANCH   4   2
ENDBRANCH   9   8
ENDBRANCH  10   9
ENDBRANCH  15  14
BRANCH  19  23
ATOM     23  N   UNL     1       0.591   2.379  24.711  0.00  0.00    -0.184 NA
ATOM     24  C   UNL     1       0.687   1.705  24.246  0.00  0.00    +0.344 C 
ATOM     25  O   UNL     1       0.074   1.156  24.183  0.00  0.00    -0.249 OA
ATOM     26  N   UNL     1       1.396   1.578  23.844  0.00  0.00    -0.161 NA
BRANCH  26  27
ATOM     27  C   UNL     1       1.492   0.904  23.379  0.00  0.00    +0.075 A 
ATOM     28  C   UNL     1       0.857   0.393  23.257  0.00  0.00    +0.017 A 
ATOM     29  C   UNL     1       0.953  -0.282  22.791  0.00  0.00    +0.001 A 
ATOM     30  C   UNL     1       1.684  -0.446  22.448  0.00  0.00    +0.000 A 
ATOM     31  C   UNL     1       2.320   0.065  22.570  0.00  0.00    +0.001 A 
ATOM     32  C   UNL     1       3.053  -0.098  22.227  0.00  0.00    +0.000 A 
ATOM     33  C   UNL     1       3.688   0.413  22.349  0.00  0.00    +0.000 A 
ATOM     34  C   UNL     1       3.592   1.088  22.814  0.00  0.00    +0.000 A 
ATOM     35  C   UNL     1       2.861   1.251  23.157  0.00  0.00    +0.001 A 
ATOM     36  C   UNL     1       2.224   0.740  23.036  0.00  0.00    +0.015 A 
ENDBRANCH  26  27
ENDBRANCH  19  23
TORSDOF 6
ENDMDL
MODEL 3
REMARK VINA RESULT:      -9.7      1.427      6.674
REMARK  Name = 
REMARK  6 active torsions:
REMARK  status: ('A' for Active; 'I' for Inactive)
REMARK    1  A    between atoms: N_2  and  C_4
REMARK    2  A    between atoms: C_8  and  O_9
REMARK    3  A    between atoms: O_9  and  C_10
REMARK    4  A    between atoms: N_14  and  C_15
REMARK    5  A    between atoms: C_19  and  N_23
REMARK    6  A    between atoms: N_26  and  C_27
REMARK                            x       y       z     vdW  Elec       q    Type
REMARK                         _______ _______ _______ _____ _____    ______ ____
ROOT
ATOM     15  C   UNL     1      -1.304   0.359  24.356  0.00  0.00    +0.170 C 
ATOM     16  C   UNL     1      -0.998  -0.132  24.944  0.00  0.00    +0.169 C 
ATOM     17  O   UNL     1      -0.255  -0.393  24.697  0.00  0.00    -0.350 OA
ATOM     18  C   UNL     1      -0.103  -0.064  23.956  0.00  0.00    +0.167 C 
ATOM     19  C   UNL     1       0.449  -0.021  23.345  0.00  0.00    +0.156 C 
ATOM     20  C   UNL     1       0.142   0.470  22.756  0.00  0.00    +0.166 C 
ATOM     21  O   UNL     1      -0.600   0.730  23.004  0.00  0.00    -0.350 OA
ATOM     22  C   UNL     1      -0.752   0.401  23.746  0.00  0.00    +0.169 C 
ENDROOT
BRANCH  15  14
ATOM     10  C   UNL     1      -2.208   1.438  24.783  0.00  0.00    +0.343 A 
ATOM     11  N   UNL     1      -3.002   1.619  24.652  0.00  0.00    -0.071 NA
ATOM     12  N   UNL     1      -3.321   1.034  24.166  0.00  0.00    -0.020 NA
ATOM     13  N   UNL     1      -2.723   0.491  23.996  0.00  0.00    -0.040 NA
ATOM     14  N   UNL     1      -2.036   0.740  24.377  0.00  0.00    -0.180 N 
BRANCH  10   9
ATOM      9  O   UNL     1      -1.678   1.876  25.239  0.00  0.00    -0.421 OA
BRANCH   9   8
ATOM      4  C   UNL     1      -1.544   4.054  25.277  0.00  0.00    +0.051 A 
ATOM      5  C   UNL     1      -2.173   4.241  25.779  0.00  0.00    +0.015 A 
ATOM      6  C   UNL     1      -2.636   3.639  26.100  0.00  0.00    +0.004 A 
ATOM      7  C   UNL     1      -2.471   2.850  25.920  0.00  0.00    +0.038 A 
ATOM      8  C   UNL     1      -1.843   2.664  25.418  0.00  0.00    +0.150 A 
ATOM     37  C   UNL     1      -1.379   3.266  25.097  0.00  0.00    +0.052 A 
BRANCH   4   2
ATOM      1  C   UNL     1      -1.336   5.440  24.995  0.00  0.00    +0.112 C 
ATOM      2  N   UNL     1      -1.081   4.656  24.956  0.00  0.00    -0.304 N 
ATOM      3  C   UNL     1      -0.361   4.475  24.595  0.00  0.00    +0.112 C 
ENDBRANCH   4   2
ENDBRANCH   9   8
ENDBRANCH  10   9
ENDBRANCH  15  14
BRANCH  19  23
ATOM     23  N   UNL     1       1.181  -0.403  23.325  0.00  0.00    -0.184 NA
ATOM     24  C   UNL     1       1.869   0.032  23.196  0.00  0.00    +0.344 C 
ATOM     25  O   UNL     1       1.827   0.849  23.087  0.00  0.00    -0.249 OA
ATOM     26  N   UNL     1       2.601  -0.349  23.177  0.00  0.00    -0.161 NA
BRANCH  26  27
ATOM     27  C   UNL     1       3.290   0.087  23.048  0.00  0.00    +0.075 A 
ATOM     28  C   UNL     1       3.253   0.807  22.649  0.00  0.00    +0.017 A 
ATOM     29  C   UNL     1       3.943   1.243  22.520  0.00  0.00    +0.001 A 
ATOM     30  C   UNL     1       4.668   0.957  22.790  0.00  0.00    +0.000 A 
ATOM     31  C   UNL     1       4.704   0.236  23.188  0.00  0.00    +0.001 A 
ATOM     32  C   UNL     1       5.429  -0.051  23.458  0.00  0.00    +0.000 A 
ATOM     33  C   UNL     1       5.466  -0.771  23.857  0.00  0.00    +0.000 A 
ATOM     34  C   UNL     1       4.776  -1.207  23.986  0.00  0.00    +0.000 A 
ATOM     35  C   UNL     1       4.051  -0.921  23.716  0.00  0.00    +0.001 A 
ATOM     36  C   UNL     1       4.014  -0.200  23.317  0.00  0.00    +0.015 A 
ENDBRANCH  26  27
ENDBRANCH  19  23
TORSDOF 6
ENDMDL
MODEL 4
REMARK VINA RESULT:      -9.5      3.214      5.308
REMARK  Name = 
REMARK  6 active torsions:
REMARK  status: ('A' for Active; 'I' for Inactive)
REMARK    1  A    between atoms: N_2  and  C_4
REMARK    2  A    between atoms: C_8  and  O_9
REMARK    3  A    between atoms: O_9  and  C_10
REMARK    4  A    between atoms: N_14  and  C_15
REMARK    5  A    between atoms: C_19  and  N_23
REMARK    6  A    between atoms: N_26  and  C_27
REMARK                            x       y       z     vdW  Elec       q    Type
REMARK                         _______ _______ _______ _____ _____    ______ ____
ROOT
ATOM     15  C   UNL     1      -0.986  -1.049  25.132  0.00  0.00    +0.170 C 
ATOM     16  C   UNL     1      -0.952  -0.918  25.945  0.00  0.00    +0.169 C 
ATOM     17  O   UNL     1      -0.797  -0.117  26.068  0.00  0.00    -0.350 OA
ATOM     18  C   UNL     1      -0.734   0.246  25.331  0.00  0.00    +0.167 C 
ATOM     19  C   UNL     1      -0.599   0.966  24.950  0.00  0.00    +0.156 C 
ATOM     20  C   UNL     1      -0.632   0.835  24.136  0.00  0.00    +0.166 C 
ATOM     21  O   UNL     1      -0.788   0.034  24.014  0.00  0.00    -0.350 OA
ATOM     22  C   UNL     1      -0.851  -0.330  24.752  0.00  0.00    +0.169 C 
ENDROOT
BRANCH  15  14
ATOM     10  C   UNL     1      -1.835  -2.200  24.793  0.00  0.00    +0.343 A 
ATOM     11  N   UNL     1      -1.734  -2.888  24.349  0.00  0.00    -0.071 NA
ATOM     12  N   UNL     1      -0.967  -2.887  24.045  0.00  0.00    -0.020 NA
ATOM     13  N   UNL     1      -0.594  -2.197  24.302  0.00  0.00    -0.040 NA
ATOM     14  N   UNL     1      -1.129  -1.773  24.763  0.00  0.00    -0.180 N 
BRANCH  10   9
ATOM      9  O   UNL     1      -2.520  -1.978  25.196  0.00  0.00    -0.421 OA
BRANCH   9   8
ATOM      4  C   UNL     1      -4.231  -0.953  24.310  0.00  0.00    +0.051 A 
ATOM      5  C   UNL     1      -4.618  -1.583  23.944  0.00  0.00    +0.015 A 
ATOM      6  C   UNL     1      -4.306  -2.345  23.996  0.00  0.00    +0.004 A 
ATOM      7  C   UNL     1      -3.606  -2.476  24.413  0.00  0.00    +0.038 A 
ATOM      8  C   UNL     1      -3.219  -1.846  24.779  0.00  0.00    +0.150 A 
ATOM     37  C   UNL     1      -3.531  -1.084  24.727  0.00  0.00    +0.052 A 
BRANCH   4   2
ATOM      1  C   UNL     1      -5.073   0.078  24.831  0.00  0.00    +0.112 C 
ATOM      2  N   UNL     1      -4.543  -0.191  24.259  0.00  0.00    -0.304 N 
ATOM      3  C   UNL     1      -4.325   0.303  23.635  0.00  0.00    +0.112 C 
ENDBRANCH   4   2
ENDBRANCH   9   8
ENDBRANCH  10   9
ENDBRANCH  15  14
BRANCH  19  23
ATOM     23  N   UNL     1      -0.455   1.691  25.319  0.00  0.00    -0.184 NA
ATOM     24  C   UNL     1      -1.040   2.271  25.330  0.00  0.00    +0.344 C 
ATOM     25  O   UNL     1      -1.770   2.128  24.971  0.00  0.00    -0.249 OA
ATOM     26  N   UNL     1      -0.898   2.995  25.699  0.00  0.00    -0.161 NA
BRANCH  26  27
ATOM     27  C   UNL     1      -1.483   3.576  25.709  0.00  0.00    +0.075 A 
ATOM     28  C   UNL     1      -2.215   3.416  26.053  0.00  0.00    +0.017 A 
ATOM     29  C   UNL     1      -2.802   3.998  26.064  0.00  0.00    +0.001 A 
ATOM     30  C   UNL     1      -2.655   4.737  25.730  0.00  0.00    +0.000 A 
ATOM     31  C   UNL     1      -1.923   4.897  25.386  0.00  0.00    +0.001 A 
ATOM     32  C   UNL     1      -1.775   5.637  25.052  0.00  0.00    +0.000 A 
ATOM     33  C   UNL     1      -1.043   5.796  24.708  0.00  0.00    +0.000 A 
ATOM     34  C   UNL     1      -0.457   5.214  24.698  0.00  0.00    +0.000 A 
ATOM     35  C   UNL     1      -0.604   4.475  25.031  0.00  0.00    +0.001 A 
ATOM     36  C   UNL     1      -1.336   4.315  25.376  0.00  0.00    +0.015 A 
ENDBRANCH  26  27
ENDBRANCH  19  23
TORSDOF 6
ENDMDL
MODEL 5
REMARK VINA RESULT:      -9.5      3.636      5.707
REMARK  Name = 
REMARK  6 active torsions:
REMARK  status: ('A' for Active; 'I' for Inactive)
REMARK    1  A    between atoms: N_2  and  C_4
REMARK    2  A    between atoms: C_8  and  O_9
REMARK    3  A    between atoms: O_9  and  C_10
REMARK    4  A    between atoms: N_14  and  C_15
REMARK    5  A    between atoms: C_19  and  N_23
REMARK    6  A    between atoms: N_26  and  C_27
REMARK                            x       y       z     vdW  Elec       q    Type
REMARK                         _______ _______ _______ _____ _____    ______ ____
ROOT
ATOM     15  C   UNL     1      -4.155   3.354  24.795  0.00  0.00    +0.170 C 
ATOM     16  C   UNL     1      -4.577   3.175  25.481  0.00  0.00    +0.169 C 
ATOM     17  O   UNL     1      -4.741   2.367  25.476  0.00  0.00    -0.350 OA
ATOM     18  C   UNL     1      -4.420   2.046  24.787  0.00  0.00    +0.167 C 
ATOM     19  C   UNL     1      -4.323   1.348  24.358  0.00  0.00    +0.156 C 
ATOM     20  C   UNL     1      -3.901   1.527  23.672  0.00  0.00    +0.166 C 
ATOM     21  O   UNL     1      -3.738   2.335  23.677  0.00  0.00    -0.350 OA
ATOM     22  C   UNL     1      -4.059   2.656  24.367  0.00  0.00    +0.169 C 
ENDROOT
BRANCH  15  14
ATOM     10  C   UNL     1      -3.210   4.477  24.881  0.00  0.00    +0.343 A 
ATOM     11  N   UNL     1      -3.141   5.210  24.509  0.00  0.00    -0.071 NA
ATOM     12  N   UNL     1      -3.765   5.287  23.975  0.00  0.00    -0.020 NA
ATOM     13  N   UNL     1      -4.221   4.600  24.018  0.00  0.00    -0.040 NA
ATOM     14  N   UNL     1      -3.879   4.100  24.577  0.00  0.00    -0.180 N 
BRANCH  10   9
ATOM      9  O   UNL     1      -2.702   4.175  25.456  0.00  0.00    -0.421 OA
BRANCH   9   8
ATOM      4  C   UNL     1      -0.627   3.523  25.274  0.00  0.00    +0.051 A 
ATOM      5  C   UNL     1      -0.253   4.239  25.100  0.00  0.00    +0.015 A 
ATOM      6  C   UNL     1      -0.696   4.933  25.046  0.00  0.00    +0.004 A 
ATOM      7  C   UNL     1      -1.513   4.911  25.164  0.00  0.00    +0.038 A 
ATOM      8  C   UNL     1      -1.886   4.195  25.337  0.00  0.00    +0.150 A 
ATOM     37  C   UNL     1      -1.443   3.502  25.392  0.00  0.00    +0.052 A 
BRANCH   4   2
ATOM      1  C   UNL     1       0.099   2.577  26.061  0.00  0.00    +0.112 C 
ATOM      2  N   UNL     1      -0.184   2.830  25.328  0.00  0.00    -0.304 N 
ATOM      3  C   UNL     1      -0.023   2.388  24.650  0.00  0.00    +0.112 C 
ENDBRANCH   4   2
ENDBRANCH   9   8
ENDBRANCH  10   9
ENDBRANCH  15  14
BRANCH  19  23
ATOM     23  N   UNL     1      -4.600   0.602  24.577  0.00  0.00    -0.184 NA
ATOM     24  C   UNL     1      -4.066   0.000  24.757  0.00  0.00    +0.344 C 
ATOM     25  O   UNL     1      -3.254   0.144  24.719  0.00  0.00    -0.249 OA
ATOM     26  N   UNL     1      -4.342  -0.745  24.976  0.00  0.00    -0.161 NA
BRANCH  26  27
ATOM     27  C   UNL     1      -3.808  -1.347  25.156  0.00  0.00    +0.075 A 
ATOM     28  C   UNL     1      -3.281  -1.256  25.784  0.00  0.00    +0.017 A 
ATOM     29  C   UNL     1      -2.745  -1.859  25.964  0.00  0.00    +0.001 A 
ATOM     30  C   UNL     1      -2.738  -2.551  25.517  0.00  0.00    +0.000 A 
ATOM     31  C   UNL     1      -3.265  -2.642  24.889  0.00  0.00    +0.001 A 
ATOM     32  C   UNL     1      -3.258  -3.335  24.441  0.00  0.00    +0.000 A 
ATOM     33  C   UNL     1      -3.785  -3.426  23.814  0.00  0.00    +0.000 A 
ATOM     34  C   UNL     1      -4.320  -2.824  23.633  0.00  0.00    +0.000 A 
ATOM     35  C   UNL     1      -4.327  -2.131  24.081  0.00  0.00    +0.001 A 
ATOM     36  C   UNL     1      -3.800  -2.040  24.709  0.00  0.00    +0.015 A 
ENDBRANCH  26  27
ENDBRANCH  19  23
TORSDOF 6
ENDMDL
MODEL 6
REMARK VINA RESULT:      -9.0      1.217      7.296
REMARK  Name = 
REMARK  6 active torsions:
REMARK  status: ('A' for Active; 'I' for Inactive)
REMARK    1  A    between atoms: N_2  and  C_4
REMARK    2  A    between atoms: C_8  and  O_9
REMARK    3  A    between atoms: O_9  and  C_10
REMARK    4  A    between atoms: N_14  and  C_15
REMARK    5  A    between atoms: C_19  and  N_23
REMARK    6  A    between atoms: N_26  and  C_27
REMARK                            x       y       z     vdW  Elec       q    Type
REMARK                         _______ _______ _______ _____ _____    ______ ____
ROOT
ATOM     15  C   UNL     1      -0.779   1.746  25.097  0.00  0.00    +0.170 C 
ATOM     16  C   UNL     1      -0.797   0.945  25.292  0.00  0.00    +0.169 C 
ATOM     17  O   UNL     1      -0.222   0.559  24.843  0.00  0.00    -0.350 OA
ATOM     18  C   UNL     1       0.152   1.123  24.371  0.00  0.00    +0.167 C 
ATOM     19  C   UNL     1       0.739   1.234  23.802  0.00  0.00    +0.156 C 
ATOM     20  C   UNL     1       0.758   2.036  23.607  0.00  0.00    +0.166 C 
ATOM     21  O   UNL     1       0.182   2.420  24.056  0.00  0.00    -0.350 OA
ATOM     22  C   UNL     1      -0.192   1.856  24.528  0.00  0.00    +0.169 C 
ENDROOT
BRANCH  15  14
ATOM     10  C   UNL     1      -2.054   2.466  25.222  0.00  0.00    +0.343 A 
ATOM     11  N   UNL     1      -2.321   3.105  25.671  0.00  0.00    -0.071 NA
ATOM     12  N   UNL     1      -1.696   3.367  26.141  0.00  0.00    -0.020 NA
ATOM     13  N   UNL     1      -1.042   2.889  25.983  0.00  0.00    -0.040 NA
ATOM     14  N   UNL     1      -1.263   2.333  25.416  0.00  0.00    -0.180 N 
BRANCH  10   9
ATOM      9  O   UNL     1      -2.499   2.036  24.677  0.00  0.00    -0.421 OA
BRANCH   9   8
ATOM      4  C   UNL     1      -4.679   2.089  24.771  0.00  0.00    +0.051 A 
ATOM      5  C   UNL     1      -4.845   2.676  24.215  0.00  0.00    +0.015 A 
ATOM      6  C   UNL     1      -4.229   3.049  23.812  0.00  0.00    +0.004 A 
ATOM      7  C   UNL     1      -3.447   2.835  23.967  0.00  0.00    +0.038 A 
ATOM      8  C   UNL     1      -3.281   2.249  24.523  0.00  0.00    +0.150 A 
ATOM     37  C   UNL     1      -3.897   1.876  24.926  0.00  0.00    +0.052 A 
BRANCH   4   2
ATOM      1  C   UNL     1      -5.792   2.154  25.666  0.00  0.00    +0.112 C 
ATOM      2  N   UNL     1      -5.295   1.716  25.174  0.00  0.00    -0.304 N 
ATOM      3  C   UNL     1      -5.416   0.905  25.084  0.00  0.00    +0.112 C 
ENDBRANCH   4   2
ENDBRANCH   9   8
ENDBRANCH  10   9
ENDBRANCH  15  14
BRANCH  19  23
ATOM     23  N   UNL     1       1.223   0.646  23.483  0.00  0.00    -0.184 NA
ATOM     24  C   UNL     1       2.032   0.779  23.398  0.00  0.00    +0.344 C 
ATOM     25  O   UNL     1       2.359   1.500  23.632  0.00  0.00    -0.249 OA
ATOM     26  N   UNL     1       2.516   0.191  23.080  0.00  0.00    -0.161 NA
BRANCH  26  27
ATOM     27  C   UNL     1       3.326   0.324  22.995  0.00  0.00    +0.075 A 
ATOM     28  C   UNL     1       3.594   1.014  22.633  0.00  0.00    +0.017 A 
ATOM     29  C   UNL     1       4.405   1.148  22.548  0.00  0.00    +0.001 A 
ATOM     30  C   UNL     1       4.945   0.590  22.825  0.00  0.00    +0.000 A 
ATOM     31  C   UNL     1       4.677  -0.100  23.187  0.00  0.00    +0.001 A 
ATOM     32  C   UNL     1       5.217  -0.658  23.465  0.00  0.00    +0.000 A 
ATOM     33  C   UNL     1       4.949  -1.348  23.827  0.00  0.00    +0.000 A 
ATOM     34  C   UNL     1       4.138  -1.481  23.912  0.00  0.00    +0.000 A 
ATOM     35  C   UNL     1       3.598  -0.924  23.635  0.00  0.00    +0.001 A 
ATOM     36  C   UNL     1       3.866  -0.233  23.273  0.00  0.00    +0.015 A 
ENDBRANCH  26  27
ENDBRANCH  19  23
TORSDOF 6
ENDMDL
MODEL 7
REMARK VINA RESULT:      -8.9      1.753      7.034
REMARK  Name = 
REMARK  6 active torsions:
REMARK  status: ('A' for Active; 'I' for Inactive)
REMARK    1  A    between atoms: N_2  and  C_4
REMARK    2  A    between atoms: C_8  and  O_9
REMARK    3  A    between atoms: O_9  and  C_10
REMARK    4  A    between atoms: N_14  and  C_15
REMARK    5  A    between atoms: C_19  and  N_23
REMARK    6  A    between atoms: N_26  and  C_27
REMARK                            x       y       z     vdW  Elec       q    Type
REMARK                         _______ _______ _______ _____ _____    ______ ____
ROOT
ATOM     15  C   UNL     1      -0.899   0.334  24.568  0.00  0.00    +0.170 C 
ATOM     16  C   UNL     1      -0.635  -0.392  24.856  0.00  0.00    +0.169 C 
ATOM     17  O   UNL     1       0.057  -0.590  24.453  0.00  0.00    -0.350 OA
ATOM     18  C   UNL     1       0.220   0.014  23.916  0.00  0.00    +0.167 C 
ATOM     19  C   UNL     1       0.749   0.265  23.334  0.00  0.00    +0.156 C 
ATOM     20  C   UNL     1       0.485   0.992  23.046  0.00  0.00    +0.166 C 
ATOM     21  O   UNL     1      -0.207   1.190  23.449  0.00  0.00    -0.350 OA
ATOM     22  C   UNL     1      -0.371   0.585  23.987  0.00  0.00    +0.169 C 
ENDROOT
BRANCH  15  14
ATOM     10  C   UNL     1      -2.343   0.609  24.548  0.00  0.00    +0.343 A 
ATOM     11  N   UNL     1      -2.843   1.133  24.944  0.00  0.00    -0.071 NA
ATOM     12  N   UNL     1      -2.383   1.585  25.458  0.00  0.00    -0.020 NA
ATOM     13  N   UNL     1      -1.599   1.341  25.380  0.00  0.00    -0.040 NA
ATOM     14  N   UNL     1      -1.574   0.738  24.818  0.00  0.00    -0.180 N 
BRANCH  10   9
ATOM      9  O   UNL     1      -2.572   0.055  23.981  0.00  0.00    -0.421 OA
BRANCH   9   8
ATOM      4  C   UNL     1      -3.923  -1.632  24.291  0.00  0.00    +0.051 A 
ATOM      5  C   UNL     1      -4.653  -1.248  24.295  0.00  0.00    +0.015 A 
ATOM      6  C   UNL     1      -4.690  -0.430  24.194  0.00  0.00    +0.004 A 
ATOM      7  C   UNL     1      -3.996   0.004  24.090  0.00  0.00    +0.038 A 
ATOM      8  C   UNL     1      -3.265  -0.380  24.086  0.00  0.00    +0.150 A 
ATOM     37  C   UNL     1      -3.229  -1.198  24.187  0.00  0.00    +0.052 A 
BRANCH   4   2
ATOM      1  C   UNL     1      -3.516  -2.768  25.057  0.00  0.00    +0.112 C 
ATOM      2  N   UNL     1      -3.886  -2.450  24.392  0.00  0.00    -0.304 N 
ATOM      3  C   UNL     1      -4.220  -2.950  23.827  0.00  0.00    +0.112 C 
ENDBRANCH   4   2
ENDBRANCH   9   8
ENDBRANCH  10   9
ENDBRANCH  15  14
BRANCH  19  23
ATOM     23  N   UNL     1       1.424  -0.139  23.085  0.00  0.00    -0.184 NA
ATOM     24  C   UNL     1       2.163   0.224  23.129  0.00  0.00    +0.344 C 
ATOM     25  O   UNL     1       2.228   0.993  23.423  0.00  0.00    -0.249 OA
ATOM     26  N   UNL     1       2.837  -0.180  22.880  0.00  0.00    -0.161 NA
BRANCH  26  27
ATOM     27  C   UNL     1       3.576   0.184  22.924  0.00  0.00    +0.075 A 
ATOM     28  C   UNL     1       3.683   0.939  22.611  0.00  0.00    +0.017 A 
ATOM     29  C   UNL     1       4.424   1.303  22.655  0.00  0.00    +0.001 A 
ATOM     30  C   UNL     1       5.055   0.911  23.012  0.00  0.00    +0.000 A 
ATOM     31  C   UNL     1       4.948   0.156  23.326  0.00  0.00    +0.001 A 
ATOM     32  C   UNL     1       5.579  -0.236  23.684  0.00  0.00    +0.000 A 
ATOM     33  C   UNL     1       5.472  -0.991  23.997  0.00  0.00    +0.000 A 
ATOM     34  C   UNL     1       4.732  -1.355  23.953  0.00  0.00    +0.000 A 
ATOM     35  C   UNL     1       4.101  -0.964  23.596  0.00  0.00    +0.001 A 
ATOM     36  C   UNL     1       4.208  -0.208  23.282  0.00  0.00    +0.015 A 
ENDBRANCH  26  27
ENDBRANCH  19  23
TORSDOF 6
ENDMDL
MODEL 8
REMARK VINA RESULT:      -8.9      3.384      6.210
REMARK  Name = 
REMARK  6 active torsions:
REMARK  status: ('A' for Active; 'I' for Inactive)
REMARK    1  A    between atoms: N_2  and  C_4
REMARK    2  A    between atoms: C_8  and  O_9
REMARK    3  A    between atoms: O_9  and  C_10
REMARK    4  A    between atoms: N_14  and  C_15
REMARK    5  A    between atoms: C_19  and  N_23
REMARK    6  A    between atoms: N_26  and  C_27
REMARK                            x       y       z     vdW  Elec       q    Type
REMARK                         _______ _______ _______ _____ _____    ______ ____
ROOT
ATOM     15  C   UNL     1      -0.829   3.025  25.398  0.00  0.00    +0.170 C 
ATOM     16  C   UNL     1      -0.674   2.704  26.141  0.00  0.00    +0.169 C 
ATOM     17  O   UNL     1      -0.681   1.882  26.071  0.00  0.00    -0.350 OA
ATOM     18  C   UNL     1      -0.840   1.696  25.284  0.00  0.00    +0.167 C 
ATOM     19  C   UNL     1      -0.943   1.072  24.752  0.00  0.00    +0.156 C 
ATOM     20  C   UNL     1      -1.098   1.394  24.008  0.00  0.00    +0.166 C 
ATOM     21  O   UNL     1      -1.091   2.216  24.079  0.00  0.00    -0.350 OA
ATOM     22  C   UNL     1      -0.931   2.402  24.868  0.00  0.00    +0.169 C 
ENDROOT
BRANCH  15  14
ATOM     10  C   UNL     1      -1.494   4.336  25.411  0.00  0.00    +0.343 A 
ATOM     11  N   UNL     1      -1.309   5.087  25.125  0.00  0.00    -0.071 NA
ATOM     12  N   UNL     1      -0.573   5.045  24.754  0.00  0.00    -0.020 NA
ATOM     13  N   UNL     1      -0.304   4.267  24.811  0.00  0.00    -0.040 NA
ATOM     14  N   UNL     1      -0.872   3.829  25.217  0.00  0.00    -0.180 N 
BRANCH  10   9
ATOM      9  O   UNL     1      -2.180   4.128  25.819  0.00  0.00    -0.421 OA
BRANCH   9   8
ATOM      4  C   UNL     1      -4.224   3.712  25.174  0.00  0.00    +0.051 A 
ATOM      5  C   UNL     1      -4.392   4.393  24.740  0.00  0.00    +0.015 A 
ATOM      6  C   UNL     1      -3.823   4.986  24.666  0.00  0.00    +0.004 A 
ATOM      7  C   UNL     1      -3.086   4.897  25.026  0.00  0.00    +0.038 A 
ATOM      8  C   UNL     1      -2.918   4.216  25.460  0.00  0.00    +0.150 A 
ATOM     37  C   UNL     1      -3.486   3.623  25.534  0.00  0.00    +0.052 A 
BRANCH   4   2
ATOM      1  C   UNL     1      -5.391   3.189  25.812  0.00  0.00    +0.112 C 
ATOM      2  N   UNL     1      -4.792   3.119  25.248  0.00  0.00    -0.304 N 
ATOM      3  C   UNL     1      -4.763   2.455  24.759  0.00  0.00    +0.112 C 
ENDBRANCH   4   2
ENDBRANCH   9   8
ENDBRANCH  10   9
ENDBRANCH  15  14
BRANCH  19  23
ATOM     23  N   UNL     1      -0.899   0.268  24.934  0.00  0.00    -0.184 NA
ATOM     24  C   UNL     1      -1.589  -0.178  24.999  0.00  0.00    +0.344 C 
ATOM     25  O   UNL     1      -2.324   0.179  24.882  0.00  0.00    -0.249 OA
ATOM     26  N   UNL     1      -1.545  -0.982  25.180  0.00  0.00    -0.161 NA
BRANCH  26  27
ATOM     27  C   UNL     1      -2.236  -1.429  25.245  0.00  0.00    +0.075 A 
ATOM     28  C   UNL     1      -2.836  -1.188  25.757  0.00  0.00    +0.017 A 
ATOM     29  C   UNL     1      -3.527  -1.636  25.822  0.00  0.00    +0.001 A 
ATOM     30  C   UNL     1      -3.617  -2.322  25.374  0.00  0.00    +0.000 A 
ATOM     31  C   UNL     1      -3.017  -2.563  24.862  0.00  0.00    +0.001 A 
ATOM     32  C   UNL     1      -3.106  -3.250  24.414  0.00  0.00    +0.000 A 
ATOM     33  C   UNL     1      -2.507  -3.490  23.902  0.00  0.00    +0.000 A 
ATOM     34  C   UNL     1      -1.815  -3.042  23.837  0.00  0.00    +0.000 A 
ATOM     35  C   UNL     1      -1.725  -2.356  24.285  0.00  0.00    +0.001 A 
ATOM     36  C   UNL     1      -2.326  -2.115  24.797  0.00  0.00    +0.015 A 
ENDBRANCH  26  27
ENDBRANCH  19  23
TORSDOF 6
ENDMDL
MODEL 9
REMARK VINA RESULT:      -8.6      3.141      5.534
REMARK  Name = 
REMARK  6 active torsions:
REMARK  status: ('A' for Active; 'I' for Inactive)
REMARK    1  A    between atoms: N_2  and  C_4
REMARK    2  A    between atoms: C_8  and  O_9
REMARK    3  A    between atoms: O_9  and  C_10
REMARK    4  A    between atoms: N_14  and  C_15
REMARK    5  A    between atoms: C_19  and  N_23
REMARK    6  A    between atoms: N_26  and  C_27
REMARK                            x       y       z     vdW  Elec       q    Type
REMARK                         _______ _______ _______ _____ _____    ______ ____
ROOT
ATOM     15  C   UNL     1       0.013   1.755  25.227  0.00  0.00    +0.170 C 
ATOM     16  C   UNL     1       0.198   1.561  24.447  0.00  0.00    +0.169 C 
ATOM     17  O   UNL     1      -0.163   0.841  24.270  0.00  0.00    -0.350 OA
ATOM     18  C   UNL     1      -0.571   0.589  24.941  0.00  0.00    +0.167 C 
ATOM     19  C   UNL     1      -1.046  -0.012  25.248  0.00  0.00    +0.156 C 
ATOM     20  C   UNL     1      -1.231   0.182  26.029  0.00  0.00    +0.166 C 
ATOM     21  O   UNL     1      -0.870   0.902  26.204  0.00  0.00    -0.350 OA
ATOM     22  C   UNL     1      -0.462   1.154  25.532  0.00  0.00    +0.169 C 
ENDROOT
BRANCH  15  14
ATOM     10  C   UNL     1       0.026   3.205  25.466  0.00  0.00    +0.343 A 
ATOM     11  N   UNL     1       0.406   3.705  26.001  0.00  0.00    -0.071 NA
ATOM     12  N   UNL     1       0.875   3.240  26.496  0.00  0.00    -0.020 NA
ATOM     13  N   UNL     1       0.784   2.452  26.266  0.00  0.00    -0.040 NA
ATOM     14  N   UNL     1       0.260   2.431  25.630  0.00  0.00    -0.180 N 
BRANCH  10   9
ATOM      9  O   UNL     1      -0.496   3.439  24.871  0.00  0.00    -0.421 OA
BRANCH   9   8
ATOM      4  C   UNL     1      -2.381   4.386  25.429  0.00  0.00    +0.051 A 
ATOM      5  C   UNL     1      -2.193   5.183  25.326  0.00  0.00    +0.015 A 
ATOM      6  C   UNL     1      -1.438   5.398  25.071  0.00  0.00    +0.004 A 
ATOM      7  C   UNL     1      -0.873   4.816  24.919  0.00  0.00    +0.038 A 
ATOM      8  C   UNL     1      -1.062   4.020  25.023  0.00  0.00    +0.150 A 
ATOM     37  C   UNL     1      -1.816   3.804  25.277  0.00  0.00    +0.052 A 
BRANCH   4   2
ATOM      1  C   UNL     1      -3.718   3.976  25.133  0.00  0.00    +0.112 C 
ATOM      2  N   UNL     1      -3.136   4.170  25.684  0.00  0.00    -0.304 N 
ATOM      3  C   UNL     1      -3.309   4.150  26.491  0.00  0.00    +0.112 C 
ENDBRANCH   4   2
ENDBRANCH   9   8
ENDBRANCH  10   9
ENDBRANCH  15  14
BRANCH  19  23
ATOM     23  N   UNL     1      -1.293  -0.688  24.844  0.00  0.00    -0.184 NA
ATOM     24  C   UNL     1      -2.092  -0.798  24.674  0.00  0.00    +0.344 C 
ATOM     25  O   UNL     1      -2.646  -0.231  24.907  0.00  0.00    -0.249 OA
ATOM     26  N   UNL     1      -2.339  -1.474  24.270  0.00  0.00    -0.161 NA
BRANCH  26  27
ATOM     27  C   UNL     1      -3.139  -1.583  24.100  0.00  0.00    +0.075 A 
ATOM     28  C   UNL     1      -3.618  -0.933  23.934  0.00  0.00    +0.017 A 
ATOM     29  C   UNL     1      -4.419  -1.043  23.764  0.00  0.00    +0.001 A 
ATOM     30  C   UNL     1      -4.738  -1.802  23.758  0.00  0.00    +0.000 A 
ATOM     31  C   UNL     1      -4.260  -2.453  23.924  0.00  0.00    +0.001 A 
ATOM     32  C   UNL     1      -4.579  -3.213  23.919  0.00  0.00    +0.000 A 
ATOM     33  C   UNL     1      -4.100  -3.864  24.084  0.00  0.00    +0.000 A 
ATOM     34  C   UNL     1      -3.300  -3.754  24.255  0.00  0.00    +0.000 A 
ATOM     35  C   UNL     1      -2.980  -2.994  24.260  0.00  0.00    +0.001 A 
ATOM     36  C   UNL     1      -3.459  -2.343  24.095  0.00  0.00    +0.015 A 
ENDBRANCH  26  27
ENDBRANCH  19  23
TORSDOF 6
ENDMDL
MODEL 10
REMARK VINA RESULT:      -8.5      3.234      4.987
REMARK  Name = 
REMARK  6 active torsions:
REMARK  status: ('A' for Active; 'I' for Inactive)
REMARK    1  A    between atoms: N_2  and  C_4
REMARK    2  A    between atoms: C_8  and  O_9
REMARK    3  A    between atoms: O_9  and  C_10
REMARK    4  A    between atoms: N_14  and  C_15
REMARK    5  A    between atoms: C_19  and  N_23
REMARK    6  A    between atoms: N_26  and  C_27
REMARK                            x       y       z     vdW  Elec       q    Type
REMARK                         _______ _______ _______ _____ _____    ______ ____
ROOT
ATOM     15  C   UNL     1      -4.218  -0.484  24.616  0.00  0.00    +0.170 C 
ATOM     16  C   UNL     1      -4.402  -0.257  25.387  0.00  0.00    +0.169 C 
ATOM     17  O   UNL     1      -4.202   0.539  25.473  0.00  0.00    -0.350 OA
ATOM     18  C   UNL     1      -3.896   0.804  24.755  0.00  0.00    +0.167 C 
ATOM     19  C   UNL     1      -3.583   1.459  24.363  0.00  0.00    +0.156 C 
ATOM     20  C   UNL     1      -3.399   1.232  23.591  0.00  0.00    +0.166 C 
ATOM     21  O   UNL     1      -3.598   0.436  23.506  0.00  0.00    -0.350 OA
ATOM     22  C   UNL     1      -3.906   0.171  24.226  0.00  0.00    +0.169 C 
ENDROOT
BRANCH  15  14
ATOM     10  C   UNL     1      -3.900  -1.914  24.488  0.00  0.00    +0.343 A 
ATOM     11  N   UNL     1      -4.193  -2.538  24.035  0.00  0.00    -0.071 NA
ATOM     12  N   UNL     1      -4.801  -2.246  23.560  0.00  0.00    -0.020 NA
ATOM     13  N   UNL     1      -4.885  -1.440  23.721  0.00  0.00    -0.040 NA
ATOM     14  N   UNL     1      -4.328  -1.235  24.293  0.00  0.00    -0.180 N 
BRANCH  10   9
ATOM      9  O   UNL     1      -3.287  -1.959  25.038  0.00  0.00    -0.421 OA
BRANCH   9   8
ATOM      4  C   UNL     1      -1.131  -2.031  24.708  0.00  0.00    +0.051 A 
ATOM      5  C   UNL     1      -1.054  -2.766  24.340  0.00  0.00    +0.015 A 
ATOM      6  C   UNL     1      -1.721  -3.232  24.206  0.00  0.00    +0.004 A 
ATOM      7  C   UNL     1      -2.466  -2.963  24.438  0.00  0.00    +0.038 A 
ATOM      8  C   UNL     1      -2.543  -2.228  24.806  0.00  0.00    +0.150 A 
ATOM     37  C   UNL     1      -1.875  -1.762  24.941  0.00  0.00    +0.052 A 
BRANCH   4   2
ATOM      1  C   UNL     1       0.056  -1.755  25.455  0.00  0.00    +0.112 C 
ATOM      2  N   UNL     1      -0.464  -1.565  24.843  0.00  0.00    -0.304 N 
ATOM      3  C   UNL     1      -0.315  -0.909  24.365  0.00  0.00    +0.112 C 
ENDBRANCH   4   2
ENDBRANCH   9   8
ENDBRANCH  10   9
ENDBRANCH  15  14
BRANCH  19  23
ATOM     23  N   UNL     1      -3.473   2.211  24.687  0.00  0.00    -0.184 NA
ATOM     24  C   UNL     1      -2.715   2.529  24.742  0.00  0.00    +0.344 C 
ATOM     25  O   UNL     1      -2.065   2.096  24.474  0.00  0.00    -0.249 OA
ATOM     26  N   UNL     1      -2.604   3.280  25.066  0.00  0.00    -0.161 NA
BRANCH  26  27
ATOM     27  C   UNL     1      -1.845   3.598  25.121  0.00  0.00    +0.075 A 
ATOM     28  C   UNL     1      -1.199   3.102  25.248  0.00  0.00    +0.017 A 
ATOM     29  C   UNL     1      -0.439   3.421  25.303  0.00  0.00    +0.001 A 
ATOM     30  C   UNL     1      -0.327   4.235  25.232  0.00  0.00    +0.000 A 
ATOM     31  C   UNL     1      -0.973   4.730  25.105  0.00  0.00    +0.001 A 
ATOM     32  C   UNL     1      -0.862   5.545  25.034  0.00  0.00    +0.000 A 
ATOM     33  C   UNL     1      -1.509   6.040  24.907  0.00  0.00    +0.000 A 
ATOM     34  C   UNL     1      -2.269   5.722  24.852  0.00  0.00    +0.000 A 
ATOM     35  C   UNL     1      -2.380   4.908  24.923  0.00  0.00    +0.001 A 
ATOM     36  C   UNL     1      -1.733   4.412  25.050  0.00  0.00    +0.015 A 
ENDBRANCH  26  27
ENDBRANCH  19  23
TORSDOF 6
ENDMDL
