MODEL 1
REMARK VINA RESULT:      -7.7      0.000      0.000
REMARK  Name = 
REMARK  5 active torsions:
REMARK  status: ('A' for Active; 'I' for Inactive)
REMARK    1  A    between atoms: C_3  and  N_17
REMARK    2  A    between atoms: C_6  and  C_7
REMARK    3  A    between atoms: C_7  and  N_8
REMARK    4  A    between atoms: N_17  and  C_18
REMARK    5  A    between atoms: C_18  and  C_19
REMARK                            x       y       z     vdW  Elec       q    Type
REMARK                         _______ _______ _______ _____ _____    ______ ____
ROOT
ATOM      1  O   UNL     1      -2.602   1.849  23.371  0.00  0.00    -0.219 OA
ATOM      2  C   UNL     1      -3.049   1.899  24.062  0.00  0.00    +0.199 C 
ATOM      3  C   UNL     1      -3.048   2.527  24.597  0.00  0.00    +0.135 C 
ATOM      4  C   UNL     1      -3.575   2.346  25.204  0.00  0.00    +0.162 C 
ATOM      5  O   UNL     1      -3.903   1.606  25.045  0.00  0.00    -0.350 OA
ATOM      6  C   UNL     1      -3.578   1.330  24.339  0.00  0.00    +0.169 C 
ENDROOT
BRANCH   6   7
ATOM      7  C   UNL     1      -3.752   0.611  23.975  0.00  0.00    +0.149 C 
BRANCH   7   8
ATOM      8  N   UNL     1      -3.641  -0.097  24.384  0.00  0.00    -0.186 NA
ATOM      9  C   UNL     1      -3.814  -0.816  24.019  0.00  0.00    +0.323 C 
ATOM     10  O   UNL     1      -4.097  -0.828  23.244  0.00  0.00    -0.251 OA
ATOM     11  N   UNL     1      -3.703  -1.524  24.429  0.00  0.00    -0.258 N 
ATOM     12  C   UNL     1      -3.420  -1.512  25.203  0.00  0.00    +0.127 C 
ATOM     13  C   UNL     1      -3.309  -2.220  25.613  0.00  0.00    +0.164 C 
ATOM     14  O   UNL     1      -3.482  -2.938  25.248  0.00  0.00    -0.350 OA
ATOM     15  C   UNL     1      -3.765  -2.951  24.473  0.00  0.00    +0.164 C 
ATOM     16  C   UNL     1      -3.876  -2.244  24.064  0.00  0.00    +0.127 C 
ENDBRANCH   7   8
ENDBRANCH   6   7
BRANCH   3  17
ATOM     17  N   UNL     1      -2.597   3.216  24.534  0.00  0.00    -0.208 NA
BRANCH  17  18
ATOM     18  C   UNL     1      -2.242   3.538  25.206  0.00  0.00    +0.136 C 
BRANCH  18  19
ATOM     19  C   UNL     1      -1.752   4.199  25.136  0.00  0.00    +0.097 A 
ATOM     20  C   UNL     1      -1.979   4.985  25.247  0.00  0.00    +0.117 A 
ATOM     21  N   UNL     1      -1.318   5.461  25.123  0.00  0.00    -0.221 NA
ATOM     22  C   UNL     1      -0.681   4.970  24.935  0.00  0.00    +0.199 A 
ATOM     23  N   UNL     1      -0.950   4.190  24.943  0.00  0.00    -0.225 NA
ENDBRANCH  18  19
ENDBRANCH  17  18
ENDBRANCH   3  17
TORSDOF 5
ENDMDL
MODEL 2
REMARK VINA RESULT:      -7.7      1.224      5.659
REMARK  Name = 
REMARK  5 active torsions:
REMARK  status: ('A' for Active; 'I' for Inactive)
REMARK    1  A    between atoms: C_3  and  N_17
REMARK    2  A    between atoms: C_6  and  C_7
REMARK    3  A    between atoms: C_7  and  N_8
REMARK    4  A    between atoms: N_17  and  C_18
REMARK    5  A    between atoms: C_18  and  C_19
REMARK                            x       y       z     vdW  Elec       q    Type
REMARK                         _______ _______ _______ _____ _____    ______ ____
ROOT
ATOM      1  O   UNL     1      -4.252   0.945  25.377  0.00  0.00    -0.219 OA
ATOM      2  C   UNL     1      -3.872   0.992  24.646  0.00  0.00    +0.199 C 
ATOM      3  C   UNL     1      -3.744   0.365  24.126  0.00  0.00    +0.135 C 
ATOM      4  C   UNL     1      -3.346   0.658  23.466  0.00  0.00    +0.162 C 
ATOM      5  O   UNL     1      -3.229   1.467  23.578  0.00  0.00    -0.350 OA
ATOM      6  C   UNL     1      -3.554   1.674  24.307  0.00  0.00    +0.169 C 
ENDROOT
BRANCH   6   7
ATOM      7  C   UNL     1      -3.561   2.428  24.639  0.00  0.00    +0.149 C 
BRANCH   7   8
ATOM      8  N   UNL     1      -2.861   2.862  24.690  0.00  0.00    -0.186 NA
ATOM      9  C   UNL     1      -2.882   3.654  24.921  0.00  0.00    +0.323 C 
ATOM     10  O   UNL     1      -3.604   4.012  25.099  0.00  0.00    -0.251 OA
ATOM     11  N   UNL     1      -2.182   4.088  24.972  0.00  0.00    -0.258 N 
ATOM     12  C   UNL     1      -1.461   3.730  24.794  0.00  0.00    +0.127 C 
ATOM     13  C   UNL     1      -0.761   4.164  24.845  0.00  0.00    +0.164 C 
ATOM     14  O   UNL     1      -0.783   4.955  25.075  0.00  0.00    -0.350 OA
ATOM     15  C   UNL     1      -1.504   5.314  25.254  0.00  0.00    +0.164 C 
ATOM     16  C   UNL     1      -2.204   4.880  25.202  0.00  0.00    +0.127 C 
ENDBRANCH   7   8
ENDBRANCH   6   7
BRANCH   3  17
ATOM     17  N   UNL     1      -3.972  -0.419  24.246  0.00  0.00    -0.208 NA
BRANCH  17  18
ATOM     18  C   UNL     1      -3.604  -1.025  23.823  0.00  0.00    +0.136 C 
BRANCH  18  19
ATOM     19  C   UNL     1      -3.672  -1.807  24.079  0.00  0.00    +0.097 A 
ATOM     20  C   UNL     1      -4.203  -2.368  23.788  0.00  0.00    +0.117 A 
ATOM     21  N   UNL     1      -4.080  -3.072  24.200  0.00  0.00    -0.221 NA
ATOM     22  C   UNL     1      -3.473  -2.946  24.746  0.00  0.00    +0.199 A 
ATOM     23  N   UNL     1      -3.222  -2.163  24.671  0.00  0.00    -0.225 NA
ENDBRANCH  18  19
ENDBRANCH  17  18
ENDBRANCH   3  17
TORSDOF 5
ENDMDL
MODEL 3
REMARK VINA RESULT:      -7.5      1.767      1.915
REMARK  Name = 
REMARK  5 active torsions:
REMARK  status: ('A' for Active; 'I' for Inactive)
REMARK    1  A    between atoms: C_3  and  N_17
REMARK    2  A    between atoms: C_6  and  C_7
REMARK    3  A    between atoms: C_7  and  N_8
REMARK    4  A    between atoms: N_17  and  C_18
REMARK    5  A    between atoms: C_18  and  C_19
REMARK                            x       y       z     vdW  Elec       q    Type
REMARK                         _______ _______ _______ _____ _____    ______ ____
ROOT
ATOM      1  O   UNL     1      -1.027   1.501  23.733  0.00  0.00    -0.219 OA
ATOM      2  C   UNL     1      -0.896   1.421  24.543  0.00  0.00    +0.199 C 
ATOM      3  C   UNL     1      -0.790   2.038  25.081  0.00  0.00    +0.135 C 
ATOM      4  C   UNL     1      -0.677   1.708  25.828  0.00  0.00    +0.162 C 
ATOM      5  O   UNL     1      -0.713   0.887  25.752  0.00  0.00    -0.350 OA
ATOM      6  C   UNL     1      -0.848   0.710  24.959  0.00  0.00    +0.169 C 
ENDROOT
BRANCH   6   7
ATOM      7  C   UNL     1      -0.922  -0.046  24.637  0.00  0.00    +0.149 C 
BRANCH   7   8
ATOM      8  N   UNL     1      -1.588  -0.502  24.805  0.00  0.00    -0.186 NA
ATOM      9  C   UNL     1      -1.626  -1.287  24.552  0.00  0.00    +0.323 C 
ATOM     10  O   UNL     1      -0.997  -1.614  24.130  0.00  0.00    -0.251 OA
ATOM     11  N   UNL     1      -2.292  -1.743  24.721  0.00  0.00    -0.258 N 
ATOM     12  C   UNL     1      -2.921  -1.416  25.143  0.00  0.00    +0.127 C 
ATOM     13  C   UNL     1      -3.587  -1.873  25.311  0.00  0.00    +0.164 C 
ATOM     14  O   UNL     1      -3.624  -2.656  25.058  0.00  0.00    -0.350 OA
ATOM     15  C   UNL     1      -2.995  -2.984  24.636  0.00  0.00    +0.164 C 
ATOM     16  C   UNL     1      -2.329  -2.528  24.467  0.00  0.00    +0.127 C 
ENDBRANCH   7   8
ENDBRANCH   6   7
BRANCH   3  17
ATOM     17  N   UNL     1      -0.797   2.844  24.902  0.00  0.00    -0.208 NA
BRANCH  17  18
ATOM     18  C   UNL     1      -1.001   3.393  25.483  0.00  0.00    +0.136 C 
BRANCH  18  19
ATOM     19  C   UNL     1      -1.128   4.182  25.277  0.00  0.00    +0.097 A 
ATOM     20  C   UNL     1      -1.816   4.615  25.417  0.00  0.00    +0.117 A 
ATOM     21  N   UNL     1      -1.702   5.378  25.123  0.00  0.00    -0.221 NA
ATOM     22  C   UNL     1      -0.943   5.415  24.800  0.00  0.00    +0.199 A 
ATOM     23  N   UNL     1      -0.588   4.676  24.896  0.00  0.00    -0.225 NA
ENDBRANCH  18  19
ENDBRANCH  17  18
ENDBRANCH   3  17
TORSDOF 5
ENDMDL
MODEL 4
REMARK VINA RESULT:      -7.5      1.845      5.770
REMARK  Name = 
REMARK  5 active torsions:
REMARK  status: ('A' for Active; 'I' for Inactive)
REMARK    1  A    between atoms: C_3  and  N_17
REMARK    2  A    between atoms: C_6  and  C_7
REMARK    3  A    between atoms: C_7  and  N_8
REMARK    4  A    between atoms: N_17  and  C_18
REMARK    5  A    between atoms: C_18  and  C_19
REMARK                            x       y       z     vdW  Elec       q    Type
REMARK                         _______ _______ _______ _____ _____    ______ ____
ROOT
ATOM      1  O   UNL     1      -1.515   0.444  23.629  0.00  0.00    -0.219 OA
ATOM      2  C   UNL     1      -1.457   0.347  24.446  0.00  0.00    +0.199 C 
ATOM      3  C   UNL     1      -1.754  -0.286  24.882  0.00  0.00    +0.135 C 
ATOM      4  C   UNL     1      -1.571  -0.158  25.676  0.00  0.00    +0.162 C 
ATOM      5  O   UNL     1      -1.161   0.556  25.731  0.00  0.00    -0.350 OA
ATOM      6  C   UNL     1      -1.089   0.868  24.971  0.00  0.00    +0.169 C 
ENDROOT
BRANCH   6   7
ATOM      7  C   UNL     1      -0.717   1.576  24.771  0.00  0.00    +0.149 C 
BRANCH   7   8
ATOM      8  N   UNL     1      -1.064   2.296  24.974  0.00  0.00    -0.186 NA
ATOM      9  C   UNL     1      -0.690   3.005  24.777  0.00  0.00    +0.323 C 
ATOM     10  O   UNL     1       0.031   2.992  24.376  0.00  0.00    -0.251 OA
ATOM     11  N   UNL     1      -1.037   3.725  24.980  0.00  0.00    -0.258 N 
ATOM     12  C   UNL     1      -1.758   3.737  25.381  0.00  0.00    +0.127 C 
ATOM     13  C   UNL     1      -2.104   4.458  25.585  0.00  0.00    +0.164 C 
ATOM     14  O   UNL     1      -1.731   5.165  25.388  0.00  0.00    -0.350 OA
ATOM     15  C   UNL     1      -1.010   5.154  24.986  0.00  0.00    +0.164 C 
ATOM     16  C   UNL     1      -0.663   4.434  24.783  0.00  0.00    +0.127 C 
ENDBRANCH   7   8
ENDBRANCH   6   7
BRANCH   3  17
ATOM     17  N   UNL     1      -2.163  -0.935  24.578  0.00  0.00    -0.208 NA
BRANCH  17  18
ATOM     18  C   UNL     1      -2.800  -1.254  24.994  0.00  0.00    +0.136 C 
BRANCH  18  19
ATOM     19  C   UNL     1      -3.271  -1.835  24.646  0.00  0.00    +0.097 A 
ATOM     20  C   UNL     1      -3.154  -2.650  24.697  0.00  0.00    +0.117 A 
ATOM     21  N   UNL     1      -3.753  -3.021  24.269  0.00  0.00    -0.221 NA
ATOM     22  C   UNL     1      -4.241  -2.436  23.952  0.00  0.00    +0.199 A 
ATOM     23  N   UNL     1      -3.943  -1.702  24.186  0.00  0.00    -0.225 NA
ENDBRANCH  18  19
ENDBRANCH  17  18
ENDBRANCH   3  17
TORSDOF 5
ENDMDL
MODEL 5
REMARK VINA RESULT:      -7.1      3.134      4.552
REMARK  Name = 
REMARK  5 active torsions:
REMARK  status: ('A' for Active; 'I' for Inactive)
REMARK    1  A    between atoms: C_3  and  N_17
REMARK    2  A    between atoms: C_6  and  C_7
REMARK    3  A    between atoms: C_7  and  N_8
REMARK    4  A    between atoms: N_17  and  C_18
REMARK    5  A    between atoms: C_18  and  C_19
REMARK                            x       y       z     vdW  Elec       q    Type
REMARK                         _______ _______ _______ _____ _____    ______ ____
ROOT
ATOM      1  O   UNL     1      -0.479   2.607  24.142  0.00  0.00    -0.219 OA
ATOM      2  C   UNL     1      -0.836   1.877  24.286  0.00  0.00    +0.199 C 
ATOM      3  C   UNL     1      -0.517   1.137  24.107  0.00  0.00    +0.135 C 
ATOM      4  C   UNL     1      -1.058   0.562  24.344  0.00  0.00    +0.162 C 
ATOM      5  O   UNL     1      -1.712   0.946  24.671  0.00  0.00    -0.350 OA
ATOM      6  C   UNL     1      -1.575   1.758  24.635  0.00  0.00    +0.169 C 
ENDROOT
BRANCH   6   7
ATOM      7  C   UNL     1      -2.086   2.348  24.900  0.00  0.00    +0.149 C 
BRANCH   7   8
ATOM      8  N   UNL     1      -2.900   2.217  24.904  0.00  0.00    -0.186 NA
ATOM      9  C   UNL     1      -3.409   2.792  25.208  0.00  0.00    +0.323 C 
ATOM     10  O   UNL     1      -3.103   3.497  25.507  0.00  0.00    -0.251 OA
ATOM     11  N   UNL     1      -4.223   2.660  25.212  0.00  0.00    -0.258 N 
ATOM     12  C   UNL     1      -4.530   1.955  24.913  0.00  0.00    +0.127 C 
ATOM     13  C   UNL     1      -5.344   1.824  24.917  0.00  0.00    +0.164 C 
ATOM     14  O   UNL     1      -5.852   2.398  25.221  0.00  0.00    -0.350 OA
ATOM     15  C   UNL     1      -5.547   3.104  25.521  0.00  0.00    +0.164 C 
ATOM     16  C   UNL     1      -4.732   3.235  25.516  0.00  0.00    +0.127 C 
ENDBRANCH   7   8
ENDBRANCH   6   7
BRANCH   3  17
ATOM     17  N   UNL     1       0.215   0.998  23.752  0.00  0.00    -0.208 NA
BRANCH  17  18
ATOM     18  C   UNL     1       0.390   0.252  23.448  0.00  0.00    +0.136 C 
BRANCH  18  19
ATOM     19  C   UNL     1       1.085   0.134  23.019  0.00  0.00    +0.097 A 
ATOM     20  C   UNL     1       1.148  -0.262  22.297  0.00  0.00    +0.117 A 
ATOM     21  N   UNL     1       1.940  -0.249  22.068  0.00  0.00    -0.221 NA
ATOM     22  C   UNL     1       2.367   0.155  22.648  0.00  0.00    +0.199 A 
ATOM     23  N   UNL     1       1.838   0.392  23.235  0.00  0.00    -0.225 NA
ENDBRANCH  18  19
ENDBRANCH  17  18
ENDBRANCH   3  17
TORSDOF 5
ENDMDL
MODEL 6
REMARK VINA RESULT:      -6.3      3.105      4.374
REMARK  Name = 
REMARK  5 active torsions:
REMARK  status: ('A' for Active; 'I' for Inactive)
REMARK    1  A    between atoms: C_3  and  N_17
REMARK    2  A    between atoms: C_6  and  C_7
REMARK    3  A    between atoms: C_7  and  N_8
REMARK    4  A    between atoms: N_17  and  C_18
REMARK    5  A    between atoms: C_18  and  C_19
REMARK                            x       y       z     vdW  Elec       q    Type
REMARK                         _______ _______ _______ _____ _____    ______ ____
ROOT
ATOM      1  O   UNL     1      -1.777   2.494  25.726  0.00  0.00    -0.219 OA
ATOM      2  C   UNL     1      -2.008   2.266  24.968  0.00  0.00    +0.199 C 
ATOM      3  C   UNL     1      -2.783   2.228  24.689  0.00  0.00    +0.135 C 
ATOM      4  C   UNL     1      -2.759   1.974  23.905  0.00  0.00    +0.162 C 
ATOM      5  O   UNL     1      -1.969   1.854  23.700  0.00  0.00    -0.350 OA
ATOM      6  C   UNL     1      -1.505   2.034  24.357  0.00  0.00    +0.169 C 
ENDROOT
BRANCH   6   7
ATOM      7  C   UNL     1      -0.682   1.991  24.396  0.00  0.00    +0.149 C 
BRANCH   7   8
ATOM      8  N   UNL     1      -0.280   1.405  23.978  0.00  0.00    -0.186 NA
ATOM      9  C   UNL     1       0.541   1.443  23.900  0.00  0.00    +0.323 C 
ATOM     10  O   UNL     1       0.958   2.068  24.240  0.00  0.00    -0.251 OA
ATOM     11  N   UNL     1       0.943   0.856  23.483  0.00  0.00    -0.258 N 
ATOM     12  C   UNL     1       0.526   0.231  23.143  0.00  0.00    +0.127 C 
ATOM     13  C   UNL     1       0.928  -0.356  22.726  0.00  0.00    +0.164 C 
ATOM     14  O   UNL     1       1.748  -0.317  22.648  0.00  0.00    -0.350 OA
ATOM     15  C   UNL     1       2.167   0.308  22.988  0.00  0.00    +0.164 C 
ATOM     16  C   UNL     1       1.764   0.894  23.405  0.00  0.00    +0.127 C 
ENDBRANCH   7   8
ENDBRANCH   6   7
BRANCH   3  17
ATOM     17  N   UNL     1      -3.463   2.413  25.118  0.00  0.00    -0.208 NA
BRANCH  17  18
ATOM     18  C   UNL     1      -4.198   2.421  24.743  0.00  0.00    +0.136 C 
BRANCH  18  19
ATOM     19  C   UNL     1      -4.887   2.514  25.188  0.00  0.00    +0.097 A 
ATOM     20  C   UNL     1      -5.173   3.223  25.498  0.00  0.00    +0.117 A 
ATOM     21  N   UNL     1      -5.873   3.061  25.903  0.00  0.00    -0.221 NA
ATOM     22  C   UNL     1      -6.021   2.251  25.842  0.00  0.00    +0.199 A 
ATOM     23  N   UNL     1      -5.411   1.913  25.400  0.00  0.00    -0.225 NA
ENDBRANCH  18  19
ENDBRANCH  17  18
ENDBRANCH   3  17
TORSDOF 5
ENDMDL
MODEL 7
REMARK VINA RESULT:      -6.2      4.165      4.614
REMARK  Name = 
REMARK  5 active torsions:
REMARK  status: ('A' for Active; 'I' for Inactive)
REMARK    1  A    between atoms: C_3  and  N_17
REMARK    2  A    between atoms: C_6  and  C_7
REMARK    3  A    between atoms: C_7  and  N_8
REMARK    4  A    between atoms: N_17  and  C_18
REMARK    5  A    between atoms: C_18  and  C_19
REMARK                            x       y       z     vdW  Elec       q    Type
REMARK                         _______ _______ _______ _____ _____    ______ ____
ROOT
ATOM      1  O   UNL     1       0.689   1.607  24.102  0.00  0.00    -0.219 OA
ATOM      2  C   UNL     1       0.583   0.874  23.736  0.00  0.00    +0.199 C 
ATOM      3  C   UNL     1       1.161   0.447  23.332  0.00  0.00    +0.135 C 
ATOM      4  C   UNL     1       0.816  -0.250  23.057  0.00  0.00    +0.162 C 
ATOM      5  O   UNL     1       0.025  -0.254  23.293  0.00  0.00    -0.350 OA
ATOM      6  C   UNL     1      -0.119   0.441  23.712  0.00  0.00    +0.169 C 
ENDROOT
BRANCH   6   7
ATOM      7  C   UNL     1      -0.838   0.664  24.049  0.00  0.00    +0.149 C 
BRANCH   7   8
ATOM      8  N   UNL     1      -1.366   0.088  24.313  0.00  0.00    -0.186 NA
ATOM      9  C   UNL     1      -2.117   0.306  24.577  0.00  0.00    +0.323 C 
ATOM     10  O   UNL     1      -2.339   1.100  24.576  0.00  0.00    -0.251 OA
ATOM     11  N   UNL     1      -2.644  -0.271  24.841  0.00  0.00    -0.258 N 
ATOM     12  C   UNL     1      -2.422  -1.065  24.842  0.00  0.00    +0.127 C 
ATOM     13  C   UNL     1      -2.950  -1.641  25.106  0.00  0.00    +0.164 C 
ATOM     14  O   UNL     1      -3.700  -1.423  25.370  0.00  0.00    -0.350 OA
ATOM     15  C   UNL     1      -3.923  -0.629  25.369  0.00  0.00    +0.164 C 
ATOM     16  C   UNL     1      -3.396  -0.053  25.105  0.00  0.00    +0.127 C 
ENDBRANCH   7   8
ENDBRANCH   6   7
BRANCH   3  17
ATOM     17  N   UNL     1       1.945   0.677  23.220  0.00  0.00    -0.208 NA
BRANCH  17  18
ATOM     18  C   UNL     1       2.461   0.192  22.797  0.00  0.00    +0.136 C 
BRANCH  18  19
ATOM     19  C   UNL     1       3.274   0.333  22.821  0.00  0.00    +0.097 A 
ATOM     20  C   UNL     1       3.661   0.990  22.506  0.00  0.00    +0.117 A 
ATOM     21  N   UNL     1       4.468   0.906  22.654  0.00  0.00    -0.221 NA
ATOM     22  C   UNL     1       4.580   0.196  23.060  0.00  0.00    +0.199 A 
ATOM     23  N   UNL     1       3.841  -0.158  23.163  0.00  0.00    -0.225 NA
ENDBRANCH  18  19
ENDBRANCH  17  18
ENDBRANCH   3  17
TORSDOF 5
ENDMDL
MODEL 8
REMARK VINA RESULT:      -6.0      2.178      2.972
REMARK  Name = 
REMARK  5 active torsions:
REMARK  status: ('A' for Active; 'I' for Inactive)
REMARK    1  A    between atoms: C_3  and  N_17
REMARK    2  A    between atoms: C_6  and  C_7
REMARK    3  A    between atoms: C_7  and  N_8
REMARK    4  A    between atoms: N_17  and  C_18
REMARK    5  A    between atoms: C_18  and  C_19
REMARK                            x       y       z     vdW  Elec       q    Type
REMARK                         _______ _______ _______ _____ _____    ______ ____
ROOT
ATOM      1  O   UNL     1      -2.191   2.165  25.301  0.00  0.00    -0.219 OA
ATOM      2  C   UNL     1      -2.465   1.996  24.542  0.00  0.00    +0.199 C 
ATOM      3  C   UNL     1      -3.126   2.329  24.178  0.00  0.00    +0.135 C 
ATOM      4  C   UNL     1      -3.194   2.002  23.424  0.00  0.00    +0.162 C 
ATOM      5  O   UNL     1      -2.575   1.467  23.321  0.00  0.00    -0.350 OA
ATOM      6  C   UNL     1      -2.124   1.462  24.011  0.00  0.00    +0.169 C 
ENDROOT
BRANCH   6   7
ATOM      7  C   UNL     1      -1.451   1.006  24.148  0.00  0.00    +0.149 C 
BRANCH   7   8
ATOM      8  N   UNL     1      -1.526   0.200  24.310  0.00  0.00    -0.186 NA
ATOM      9  C   UNL     1      -0.862  -0.240  24.526  0.00  0.00    +0.323 C 
ATOM     10  O   UNL     1      -0.125   0.125  24.580  0.00  0.00    -0.251 OA
ATOM     11  N   UNL     1      -0.937  -1.046  24.687  0.00  0.00    -0.258 N 
ATOM     12  C   UNL     1      -1.674  -1.412  24.633  0.00  0.00    +0.127 C 
ATOM     13  C   UNL     1      -1.748  -2.217  24.794  0.00  0.00    +0.164 C 
ATOM     14  O   UNL     1      -1.085  -2.657  25.010  0.00  0.00    -0.350 OA
ATOM     15  C   UNL     1      -0.347  -2.292  25.064  0.00  0.00    +0.164 C 
ATOM     16  C   UNL     1      -0.273  -1.487  24.903  0.00  0.00    +0.127 C 
ENDBRANCH   7   8
ENDBRANCH   6   7
BRANCH   3  17
ATOM     17  N   UNL     1      -3.630   2.891  24.511  0.00  0.00    -0.208 NA
BRANCH  17  18
ATOM     18  C   UNL     1      -4.447   2.813  24.427  0.00  0.00    +0.136 C 
BRANCH  18  19
ATOM     19  C   UNL     1      -4.954   3.184  24.962  0.00  0.00    +0.097 A 
ATOM     20  C   UNL     1      -5.527   2.813  25.426  0.00  0.00    +0.117 A 
ATOM     21  N   UNL     1      -5.904   3.392  25.877  0.00  0.00    -0.221 NA
ATOM     22  C   UNL     1      -5.564   4.121  25.693  0.00  0.00    +0.199 A 
ATOM     23  N   UNL     1      -4.976   3.992  25.127  0.00  0.00    -0.225 NA
ENDBRANCH  18  19
ENDBRANCH  17  18
ENDBRANCH   3  17
TORSDOF 5
ENDMDL
MODEL 9
REMARK VINA RESULT:      -6.0     14.178     14.874
REMARK  Name = 
REMARK  5 active torsions:
REMARK  status: ('A' for Active; 'I' for Inactive)
REMARK    1  A    between atoms: C_3  and  N_17
REMARK    2  A    between atoms: C_6  and  C_7
REMARK    3  A    between atoms: C_7  and  N_8
REMARK    4  A    between atoms: N_17  and  C_18
REMARK    5  A    between atoms: C_18  and  C_19
REMARK                            x       y       z     vdW  Elec       q    Type
REMARK                         _______ _______ _______ _____ _____    ______ ____
ROOT
ATOM      1  O   UNL     1      -6.039 -10.308  17.804  0.00  0.00    -0.219 OA
ATOM      2  C   UNL     1      -6.024 -10.159  16.993  0.00  0.00    +0.199 C 
ATOM      3  C   UNL     1      -6.663  -9.912  16.534  0.00  0.00    +0.135 C 
ATOM      4  C   UNL     1      -6.402  -9.831  15.756  0.00  0.00    +0.162 C 
ATOM      5  O   UNL     1      -5.601 -10.028  15.734  0.00  0.00    -0.350 OA
ATOM      6  C   UNL     1      -5.368 -10.230  16.498  0.00  0.00    +0.169 C 
ENDROOT
BRANCH   6   7
ATOM      7  C   UNL     1      -4.611 -10.464  16.728  0.00  0.00    +0.149 C 
BRANCH   7   8
ATOM      8  N   UNL     1      -3.995 -10.464  16.179  0.00  0.00    -0.186 NA
ATOM      9  C   UNL     1      -3.223 -10.622  16.425  0.00  0.00    +0.323 C 
ATOM     10  O   UNL     1      -3.068 -10.781  17.220  0.00  0.00    -0.251 OA
ATOM     11  N   UNL     1      -2.607 -10.622  15.876  0.00  0.00    -0.258 N 
ATOM     12  C   UNL     1      -2.762 -10.464  15.082  0.00  0.00    +0.127 C 
ATOM     13  C   UNL     1      -2.146 -10.464  14.533  0.00  0.00    +0.164 C 
ATOM     14  O   UNL     1      -1.375 -10.622  14.779  0.00  0.00    -0.350 OA
ATOM     15  C   UNL     1      -1.220 -10.781  15.574  0.00  0.00    +0.164 C 
ATOM     16  C   UNL     1      -1.836 -10.781  16.122  0.00  0.00    +0.127 C 
ENDBRANCH   7   8
ENDBRANCH   6   7
BRANCH   3  17
ATOM     17  N   UNL     1      -7.430  -9.770  16.805  0.00  0.00    -0.208 NA
BRANCH  17  18
ATOM     18  C   UNL     1      -7.995  -9.450  16.297  0.00  0.00    +0.136 C 
BRANCH  18  19
ATOM     19  C   UNL     1      -8.740  -9.243  16.586  0.00  0.00    +0.097 A 
ATOM     20  C   UNL     1      -9.396  -9.741  16.638  0.00  0.00    +0.117 A 
ATOM     21  N   UNL     1     -10.020  -9.307  16.958  0.00  0.00    -0.221 NA
ATOM     22  C   UNL     1      -9.750  -8.541  17.103  0.00  0.00    +0.199 A 
ATOM     23  N   UNL     1      -8.959  -8.501  16.873  0.00  0.00    -0.225 NA
ENDBRANCH  18  19
ENDBRANCH  17  18
ENDBRANCH   3  17
TORSDOF 5
ENDMDL
MODEL 10
REMARK VINA RESULT:      -5.9      2.104      5.119
REMARK  Name = 
REMARK  5 active torsions:
REMARK  status: ('A' for Active; 'I' for Inactive)
REMARK    1  A    between atoms: C_3  and  N_17
REMARK    2  A    between atoms: C_6  and  C_7
REMARK    3  A    between atoms: C_7  and  N_8
REMARK    4  A    between atoms: N_17  and  C_18
REMARK    5  A    between atoms: C_18  and  C_19
REMARK                            x       y       z     vdW  Elec       q    Type
REMARK                         _______ _______ _______ _____ _____    ______ ____
ROOT
ATOM      1  O   UNL     1      -2.647   0.896  23.660  0.00  0.00    -0.219 OA
ATOM      2  C   UNL     1      -2.204   1.015  24.346  0.00  0.00    +0.199 C 
ATOM      3  C   UNL     1      -1.713   0.460  24.708  0.00  0.00    +0.135 C 
ATOM      4  C   UNL     1      -1.379   0.811  25.375  0.00  0.00    +0.162 C 
ATOM      5  O   UNL     1      -1.664   1.584  25.425  0.00  0.00    -0.350 OA
ATOM      6  C   UNL     1      -2.173   1.710  24.789  0.00  0.00    +0.169 C 
ENDROOT
BRANCH   6   7
ATOM      7  C   UNL     1      -2.581   2.408  24.625  0.00  0.00    +0.149 C 
BRANCH   7   8
ATOM      8  N   UNL     1      -3.342   2.520  24.922  0.00  0.00    -0.186 NA
ATOM      9  C   UNL     1      -3.677   3.274  24.925  0.00  0.00    +0.323 C 
ATOM     10  O   UNL     1      -3.250   3.916  24.632  0.00  0.00    -0.251 OA
ATOM     11  N   UNL     1      -4.439   3.386  25.222  0.00  0.00    -0.258 N 
ATOM     12  C   UNL     1      -4.866   2.745  25.515  0.00  0.00    +0.127 C 
ATOM     13  C   UNL     1      -5.628   2.857  25.811  0.00  0.00    +0.164 C 
ATOM     14  O   UNL     1      -5.962   3.610  25.815  0.00  0.00    -0.350 OA
ATOM     15  C   UNL     1      -5.535   4.253  25.521  0.00  0.00    +0.164 C 
ATOM     16  C   UNL     1      -4.774   4.141  25.225  0.00  0.00    +0.127 C 
ENDBRANCH   7   8
ENDBRANCH   6   7
BRANCH   3  17
ATOM     17  N   UNL     1      -1.579  -0.312  24.448  0.00  0.00    -0.208 NA
BRANCH  17  18
ATOM     18  C   UNL     1      -1.587  -0.936  24.988  0.00  0.00    +0.136 C 
BRANCH  18  19
ATOM     19  C   UNL     1      -1.749  -1.703  24.729  0.00  0.00    +0.097 A 
ATOM     20  C   UNL     1      -1.252  -2.176  24.272  0.00  0.00    +0.117 A 
ATOM     21  N   UNL     1      -1.633  -2.896  24.143  0.00  0.00    -0.221 NA
ATOM     22  C   UNL     1      -2.366  -2.868  24.521  0.00  0.00    +0.199 A 
ATOM     23  N   UNL     1      -2.438  -2.130  24.883  0.00  0.00    -0.225 NA
ENDBRANCH  18  19
ENDBRANCH  17  18
ENDBRANCH   3  17
TORSDOF 5
ENDMDL
