MODEL 1
REMARK VINA RESULT:     -11.2      0.000      0.000
REMARK  Name = 
REMARK  7 active torsions:
REMARK  status: ('A' for Active; 'I' for Inactive)
REMARK    1  A    between atoms: N_2  and  C_3
REMARK    2  A    between atoms: N_2  and  C_22
REMARK    3  A    between atoms: C_3  and  C_4
REMARK    4  A    between atoms: C_11  and  C_12
REMARK    5  A    between atoms: C_12  and  N_13
REMARK    6  A    between atoms: N_13  and  S_14
REMARK    7  A    between atoms: S_14  and  C_17
REMARK                            x       y       z     vdW  Elec       q    Type
REMARK                         _______ _______ _______ _____ _____    ______ ____
ROOT
ATOM      4  C   UNL     1      -4.001   0.797  24.656  0.00  0.00    +0.036 C 
ATOM      5  C   UNL     1      -3.323   1.047  24.366  0.00  0.00    +0.074 C 
ATOM      6  N   UNL     1      -3.905   1.515  24.718  0.00  0.00    -0.272 NA
ATOM      7  C   UNL     1      -4.687   0.877  25.000  0.00  0.00    +0.072 C 
ATOM      8  C   UNL     1      -5.275   0.784  25.270  0.00  0.00    +0.017 C 
ATOM      9  C   UNL     1      -4.566   1.263  25.000  0.00  0.00    +0.006 C 
ATOM     10  C   UNL     1      -4.606   2.127  25.150  0.00  0.00    +0.018 C 
ATOM     11  C   UNL     1      -3.952   2.412  24.877  0.00  0.00    +0.077 C 
ENDROOT
BRANCH   4   3
ATOM      3  C   UNL     1      -4.157  -0.013  24.609  0.00  0.00    +0.092 C 
BRANCH   3   2
ATOM      1  C   UNL     1      -2.958  -0.210  23.857  0.00  0.00    +0.112 C 
ATOM      2  N   UNL     1      -3.604  -0.520  24.267  0.00  0.00    -0.306 N 
BRANCH   2  22
ATOM     22  C   UNL     1      -3.696  -1.336  24.336  0.00  0.00    +0.048 A 
ATOM     23  C   UNL     1      -3.313  -1.746  24.940  0.00  0.00    +0.015 A 
ATOM     24  C   UNL     1      -3.405  -2.563  25.008  0.00  0.00    +0.001 A 
ATOM     25  C   UNL     1      -3.881  -2.971  24.472  0.00  0.00    +0.000 A 
ATOM     26  C   UNL     1      -4.264  -2.561  23.867  0.00  0.00    +0.001 A 
ATOM     27  C   UNL     1      -4.172  -1.744  23.799  0.00  0.00    +0.015 A 
ENDBRANCH   2  22
ENDBRANCH   3   2
ENDBRANCH   4   3
BRANCH  11  12
ATOM     12  C   UNL     1      -3.535   3.117  24.782  0.00  0.00    +0.131 C 
BRANCH  12  13
ATOM     13  N   UNL     1      -3.146   3.457  25.425  0.00  0.00    -0.076 NA
BRANCH  13  14
ATOM     14  S   UNL     1      -2.499   3.952  25.300  0.00  0.00    +0.083 S 
ATOM     15  O   UNL     1      -2.113   3.613  25.945  0.00  0.00    -0.151 OA
ATOM     16  O   UNL     1      -2.885   4.292  24.655  0.00  0.00    -0.151 OA
BRANCH  14  17
ATOM     17  C   UNL     1      -1.852   4.449  25.174  0.00  0.00    +0.153 A 
ATOM     18  C   UNL     1      -1.866   5.273  25.171  0.00  0.00    +0.027 A 
ATOM     19  C   UNL     1      -1.100   5.541  25.025  0.00  0.00    +0.009 A 
ATOM     20  C   UNL     1      -0.611   4.883  24.936  0.00  0.00    +0.037 A 
ATOM     21  S   UNL     1      -1.076   4.207  25.029  0.00  0.00    -0.067 S 
ENDBRANCH  14  17
ENDBRANCH  13  14
ENDBRANCH  12  13
ENDBRANCH  11  12
TORSDOF 7
ENDMDL
MODEL 2
REMARK VINA RESULT:     -11.0      2.204      5.525
REMARK  Name = 
REMARK  7 active torsions:
REMARK  status: ('A' for Active; 'I' for Inactive)
REMARK    1  A    between atoms: N_2  and  C_3
REMARK    2  A    between atoms: N_2  and  C_22
REMARK    3  A    between atoms: C_3  and  C_4
REMARK    4  A    between atoms: C_11  and  C_12
REMARK    5  A    between atoms: C_12  and  N_13
REMARK    6  A    between atoms: N_13  and  S_14
REMARK    7  A    between atoms: S_14  and  C_17
REMARK                            x       y       z     vdW  Elec       q    Type
REMARK                         _______ _______ _______ _____ _____    ______ ____
ROOT
ATOM      4  C   UNL     1      -3.107   2.597  24.907  0.00  0.00    +0.036 C 
ATOM      5  C   UNL     1      -2.562   2.048  24.825  0.00  0.00    +0.074 C 
ATOM      6  N   UNL     1      -3.373   1.951  24.710  0.00  0.00    -0.272 NA
ATOM      7  C   UNL     1      -3.826   2.877  24.900  0.00  0.00    +0.072 C 
ATOM      8  C   UNL     1      -4.360   3.251  24.937  0.00  0.00    +0.017 C 
ATOM      9  C   UNL     1      -3.901   2.494  24.792  0.00  0.00    +0.006 C 
ATOM     10  C   UNL     1      -4.376   1.794  24.558  0.00  0.00    +0.018 C 
ATOM     11  C   UNL     1      -3.873   1.227  24.466  0.00  0.00    +0.077 C 
ENDROOT
BRANCH   4   3
ATOM      3  C   UNL     1      -2.852   3.351  25.131  0.00  0.00    +0.092 C 
BRANCH   3   2
ATOM      1  C   UNL     1      -1.733   2.892  25.892  0.00  0.00    +0.112 C 
ATOM      2  N   UNL     1      -2.084   3.461  25.407  0.00  0.00    -0.306 N 
BRANCH   2  22
ATOM     22  C   UNL     1      -1.665   4.140  25.200  0.00  0.00    +0.048 A 
ATOM     23  C   UNL     1      -1.994   4.885  25.331  0.00  0.00    +0.015 A 
ATOM     24  C   UNL     1      -1.575   5.565  25.124  0.00  0.00    +0.001 A 
ATOM     25  C   UNL     1      -0.826   5.500  24.784  0.00  0.00    +0.000 A 
ATOM     26  C   UNL     1      -0.497   4.755  24.652  0.00  0.00    +0.001 A 
ATOM     27  C   UNL     1      -0.916   4.076  24.860  0.00  0.00    +0.015 A 
ENDBRANCH   2  22
ENDBRANCH   3   2
ENDBRANCH   4   3
BRANCH  11  12
ATOM     12  C   UNL     1      -3.816   0.429  24.266  0.00  0.00    +0.131 C 
BRANCH  12  13
ATOM     13  N   UNL     1      -4.213  -0.139  24.713  0.00  0.00    -0.076 NA
BRANCH  13  14
ATOM     14  S   UNL     1      -4.031  -0.938  24.621  0.00  0.00    +0.083 S 
ATOM     15  O   UNL     1      -4.186  -0.881  23.813  0.00  0.00    -0.151 OA
ATOM     16  O   UNL     1      -3.875  -0.995  25.429  0.00  0.00    -0.151 OA
BRANCH  14  17
ATOM     17  C   UNL     1      -3.848  -1.737  24.529  0.00  0.00    +0.153 A 
ATOM     18  C   UNL     1      -4.125  -2.233  23.931  0.00  0.00    +0.027 A 
ATOM     19  C   UNL     1      -3.804  -2.982  24.052  0.00  0.00    +0.009 A 
ATOM     20  C   UNL     1      -3.327  -2.951  24.725  0.00  0.00    +0.037 A 
ATOM     21  S   UNL     1      -3.354  -2.181  25.020  0.00  0.00    -0.067 S 
ENDBRANCH  14  17
ENDBRANCH  13  14
ENDBRANCH  12  13
ENDBRANCH  11  12
TORSDOF 7
ENDMDL
MODEL 3
REMARK VINA RESULT:     -10.9      1.710      2.364
REMARK  Name = 
REMARK  7 active torsions:
REMARK  status: ('A' for Active; 'I' for Inactive)
REMARK    1  A    between atoms: N_2  and  C_3
REMARK    2  A    between atoms: N_2  and  C_22
REMARK    3  A    between atoms: C_3  and  C_4
REMARK    4  A    between atoms: C_11  and  C_12
REMARK    5  A    between atoms: C_12  and  N_13
REMARK    6  A    between atoms: N_13  and  S_14
REMARK    7  A    between atoms: S_14  and  C_17
REMARK                            x       y       z     vdW  Elec       q    Type
REMARK                         _______ _______ _______ _____ _____    ______ ____
ROOT
ATOM      4  C   UNL     1      -1.829  -0.302  25.157  0.00  0.00    +0.036 C 
ATOM      5  C   UNL     1      -2.332   0.247  25.384  0.00  0.00    +0.074 C 
ATOM      6  N   UNL     1      -1.526   0.353  25.243  0.00  0.00    -0.272 NA
ATOM      7  C   UNL     1      -1.136  -0.576  24.954  0.00  0.00    +0.072 C 
ATOM      8  C   UNL     1      -0.632  -0.947  24.767  0.00  0.00    +0.017 C 
ATOM      9  C   UNL     1      -1.038  -0.189  25.021  0.00  0.00    +0.006 C 
ATOM     10  C   UNL     1      -0.528   0.523  25.077  0.00  0.00    +0.018 C 
ATOM     11  C   UNL     1      -0.989   1.089  25.300  0.00  0.00    +0.077 C 
ENDROOT
BRANCH   4   3
ATOM      3  C   UNL     1      -2.125  -1.065  25.045  0.00  0.00    +0.092 C 
BRANCH   3   2
ATOM      1  C   UNL     1      -3.251  -0.888  25.908  0.00  0.00    +0.112 C 
ATOM      2  N   UNL     1      -2.907  -1.236  25.243  0.00  0.00    -0.306 N 
BRANCH   2  22
ATOM     22  C   UNL     1      -3.346  -1.754  24.776  0.00  0.00    +0.048 A 
ATOM     23  C   UNL     1      -3.912  -1.461  24.252  0.00  0.00    +0.015 A 
ATOM     24  C   UNL     1      -4.351  -1.979  23.784  0.00  0.00    +0.001 A 
ATOM     25  C   UNL     1      -4.225  -2.793  23.840  0.00  0.00    +0.000 A 
ATOM     26  C   UNL     1      -3.659  -3.086  24.364  0.00  0.00    +0.001 A 
ATOM     27  C   UNL     1      -3.220  -2.568  24.831  0.00  0.00    +0.015 A 
ENDBRANCH   2  22
ENDBRANCH   3   2
ENDBRANCH   4   3
BRANCH  11  12
ATOM     12  C   UNL     1      -0.996   1.893  25.483  0.00  0.00    +0.131 C 
BRANCH  12  13
ATOM     13  N   UNL     1      -0.695   2.442  24.946  0.00  0.00    -0.076 NA
BRANCH  13  14
ATOM     14  S   UNL     1      -0.914   3.235  25.000  0.00  0.00    +0.083 S 
ATOM     15  O   UNL     1      -0.658   3.253  25.784  0.00  0.00    -0.151 OA
ATOM     16  O   UNL     1      -1.171   3.217  24.216  0.00  0.00    -0.151 OA
BRANCH  14  17
ATOM     17  C   UNL     1      -1.134   4.028  25.054  0.00  0.00    +0.153 A 
ATOM     18  C   UNL     1      -0.666   4.676  24.851  0.00  0.00    +0.027 A 
ATOM     19  C   UNL     1      -1.104   5.361  24.992  0.00  0.00    +0.009 A 
ATOM     20  C   UNL     1      -1.842   5.137  25.283  0.00  0.00    +0.037 A 
ATOM     21  S   UNL     1      -1.861   4.313  25.322  0.00  0.00    -0.067 S 
ENDBRANCH  14  17
ENDBRANCH  13  14
ENDBRANCH  12  13
ENDBRANCH  11  12
TORSDOF 7
ENDMDL
MODEL 4
REMARK VINA RESULT:     -10.0      2.727      5.843
REMARK  Name = 
REMARK  7 active torsions:
REMARK  status: ('A' for Active; 'I' for Inactive)
REMARK    1  A    between atoms: N_2  and  C_3
REMARK    2  A    between atoms: N_2  and  C_22
REMARK    3  A    between atoms: C_3  and  C_4
REMARK    4  A    between atoms: C_11  and  C_12
REMARK    5  A    between atoms: C_12  and  N_13
REMARK    6  A    between atoms: N_13  and  S_14
REMARK    7  A    between atoms: S_14  and  C_17
REMARK                            x       y       z     vdW  Elec       q    Type
REMARK                         _______ _______ _______ _____ _____    ______ ____
ROOT
ATOM      4  C   UNL     1      -1.324   1.834  25.110  0.00  0.00    +0.036 C 
ATOM      5  C   UNL     1      -1.860   1.627  24.585  0.00  0.00    +0.074 C 
ATOM      6  N   UNL     1      -1.414   1.115  25.055  0.00  0.00    -0.272 NA
ATOM      7  C   UNL     1      -0.788   1.708  25.651  0.00  0.00    +0.072 C 
ATOM      8  C   UNL     1      -0.326   1.764  26.109  0.00  0.00    +0.017 C 
ATOM      9  C   UNL     1      -0.890   1.326  25.567  0.00  0.00    +0.006 C 
ATOM     10  C   UNL     1      -0.877   0.450  25.622  0.00  0.00    +0.018 C 
ATOM     11  C   UNL     1      -1.394   0.205  25.117  0.00  0.00    +0.077 C 
ENDROOT
BRANCH   4   3
ATOM      3  C   UNL     1      -1.186   2.643  25.209  0.00  0.00    +0.092 C 
BRANCH   3   2
ATOM      1  C   UNL     1      -2.245   2.936  24.296  0.00  0.00    +0.112 C 
ATOM      2  N   UNL     1      -1.640   3.192  24.796  0.00  0.00    -0.306 N 
BRANCH   2  22
ATOM     22  C   UNL     1      -1.491   3.999  24.883  0.00  0.00    +0.048 A 
ATOM     23  C   UNL     1      -2.031   4.479  25.281  0.00  0.00    +0.015 A 
ATOM     24  C   UNL     1      -1.881   5.285  25.367  0.00  0.00    +0.001 A 
ATOM     25  C   UNL     1      -1.191   5.613  25.055  0.00  0.00    +0.000 A 
ATOM     26  C   UNL     1      -0.651   5.133  24.657  0.00  0.00    +0.001 A 
ATOM     27  C   UNL     1      -0.801   4.326  24.571  0.00  0.00    +0.015 A 
ENDBRANCH   2  22
ENDBRANCH   3   2
ENDBRANCH   4   3
BRANCH  11  12
ATOM     12  C   UNL     1      -1.735  -0.480  24.810  0.00  0.00    +0.131 C 
BRANCH  12  13
ATOM     13  N   UNL     1      -2.216  -0.952  25.286  0.00  0.00    -0.076 NA
BRANCH  13  14
ATOM     14  S   UNL     1      -2.750  -1.477  24.940  0.00  0.00    +0.083 S 
ATOM     15  O   UNL     1      -2.157  -1.750  24.437  0.00  0.00    -0.151 OA
ATOM     16  O   UNL     1      -3.344  -1.203  25.444  0.00  0.00    -0.151 OA
BRANCH  14  17
ATOM     17  C   UNL     1      -3.285  -2.002  24.595  0.00  0.00    +0.153 A 
ATOM     18  C   UNL     1      -3.909  -1.800  24.095  0.00  0.00    +0.027 A 
ATOM     19  C   UNL     1      -4.299  -2.494  23.880  0.00  0.00    +0.009 A 
ATOM     20  C   UNL     1      -3.916  -3.126  24.247  0.00  0.00    +0.037 A 
ATOM     21  S   UNL     1      -3.289  -2.822  24.689  0.00  0.00    -0.067 S 
ENDBRANCH  14  17
ENDBRANCH  13  14
ENDBRANCH  12  13
ENDBRANCH  11  12
TORSDOF 7
ENDMDL
MODEL 5
REMARK VINA RESULT:      -8.8      3.042      4.517
REMARK  Name = 
REMARK  7 active torsions:
REMARK  status: ('A' for Active; 'I' for Inactive)
REMARK    1  A    between atoms: N_2  and  C_3
REMARK    2  A    between atoms: N_2  and  C_22
REMARK    3  A    between atoms: C_3  and  C_4
REMARK    4  A    between atoms: C_11  and  C_12
REMARK    5  A    between atoms: C_12  and  N_13
REMARK    6  A    between atoms: N_13  and  S_14
REMARK    7  A    between atoms: S_14  and  C_17
REMARK                            x       y       z     vdW  Elec       q    Type
REMARK                         _______ _______ _______ _____ _____    ______ ____
ROOT
ATOM      4  C   UNL     1      -2.871   1.053  24.441  0.00  0.00    +0.036 C 
ATOM      5  C   UNL     1      -2.508   1.571  23.988  0.00  0.00    +0.074 C 
ATOM      6  N   UNL     1      -2.200   0.851  24.249  0.00  0.00    -0.272 NA
ATOM      7  C   UNL     1      -2.937   0.394  24.837  0.00  0.00    +0.072 C 
ATOM      8  C   UNL     1      -3.140  -0.105  25.207  0.00  0.00    +0.017 C 
ATOM      9  C   UNL     1      -2.562   0.348  24.692  0.00  0.00    +0.006 C 
ATOM     10  C   UNL     1      -1.786  -0.037  24.553  0.00  0.00    +0.018 C 
ATOM     11  C   UNL     1      -1.395   0.445  24.108  0.00  0.00    +0.077 C 
ENDROOT
BRANCH   4   3
ATOM      3  C   UNL     1      -3.638   1.238  24.687  0.00  0.00    +0.092 C 
BRANCH   3   2
ATOM      1  C   UNL     1      -3.728   2.299  23.734  0.00  0.00    +0.112 C 
ATOM      2  N   UNL     1      -4.002   1.927  24.418  0.00  0.00    -0.306 N 
BRANCH   2  22
ATOM     22  C   UNL     1      -4.640   2.244  24.833  0.00  0.00    +0.048 A 
ATOM     23  C   UNL     1      -5.379   1.878  24.798  0.00  0.00    +0.015 A 
ATOM     24  C   UNL     1      -6.017   2.195  25.213  0.00  0.00    +0.001 A 
ATOM     25  C   UNL     1      -5.918   2.879  25.663  0.00  0.00    +0.000 A 
ATOM     26  C   UNL     1      -5.179   3.246  25.698  0.00  0.00    +0.001 A 
ATOM     27  C   UNL     1      -4.541   2.928  25.283  0.00  0.00    +0.015 A 
ENDBRANCH   2  22
ENDBRANCH   3   2
ENDBRANCH   4   3
BRANCH  11  12
ATOM     12  C   UNL     1      -0.671   0.541  23.726  0.00  0.00    +0.131 C 
BRANCH  12  13
ATOM     13  N   UNL     1      -0.034   0.054  23.919  0.00  0.00    -0.076 NA
BRANCH  13  14
ATOM     14  S   UNL     1       0.642   0.052  23.446  0.00  0.00    +0.083 S 
ATOM     15  O   UNL     1       0.458  -0.708  23.184  0.00  0.00    -0.151 OA
ATOM     16  O   UNL     1       0.826   0.813  23.708  0.00  0.00    -0.151 OA
BRANCH  14  17
ATOM     17  C   UNL     1       1.318   0.051  22.973  0.00  0.00    +0.153 A 
ATOM     18  C   UNL     1       1.380  -0.272  22.216  0.00  0.00    +0.027 A 
ATOM     19  C   UNL     1       2.151  -0.150  21.950  0.00  0.00    +0.009 A 
ATOM     20  C   UNL     1       2.566   0.250  22.540  0.00  0.00    +0.037 A 
ATOM     21  S   UNL     1       2.051   0.374  23.173  0.00  0.00    -0.067 S 
ENDBRANCH  14  17
ENDBRANCH  13  14
ENDBRANCH  12  13
ENDBRANCH  11  12
TORSDOF 7
ENDMDL
