MODEL 1
REMARK VINA RESULT:     -12.1      0.000      0.000
REMARK  Name = 
REMARK  7 active torsions:
REMARK  status: ('A' for Active; 'I' for Inactive)
REMARK    1  A    between atoms: C_2  and  C_5
REMARK    2  A    between atoms: C_9  and  N_10
REMARK    3  A    between atoms: C_11  and  O_13
REMARK    4  A    between atoms: O_13  and  C_14
REMARK    5  A    between atoms: C_18  and  N_22
REMARK    6  A    between atoms: N_22  and  S_23
REMARK    7  A    between atoms: S_23  and  C_26
REMARK                            x       y       z     vdW  Elec       q    Type
REMARK                         _______ _______ _______ _____ _____    ______ ____
ROOT
ATOM     14  C   UNL     1      -0.315  -0.328  24.596  0.00  0.00    +0.229 C 
ATOM     15  C   UNL     1      -0.006  -0.209  23.840  0.00  0.00    +0.188 C 
ATOM     16  O   UNL     1       0.122   0.599  23.743  0.00  0.00    -0.348 OA
ATOM     17  C   UNL     1      -0.107   0.980  24.437  0.00  0.00    +0.166 C 
ATOM     18  C   UNL     1      -0.169   1.715  24.807  0.00  0.00    +0.157 C 
ATOM     19  C   UNL     1      -0.478   1.596  25.563  0.00  0.00    +0.164 C 
ATOM     20  O   UNL     1      -0.607   0.787  25.660  0.00  0.00    -0.348 OA
ATOM     21  C   UNL     1      -0.377   0.406  24.965  0.00  0.00    +0.186 C 
ENDROOT
BRANCH  14  13
ATOM     13  O   UNL     1      -0.525  -1.056  24.925  0.00  0.00    -0.432 OA
BRANCH  13  11
ATOM     10  N   UNL     1      -1.842  -1.568  25.136  0.00  0.00    -0.142 NA
ATOM     11  C   UNL     1      -1.188  -1.459  24.645  0.00  0.00    +0.425 C 
ATOM     12  O   UNL     1      -1.197  -1.754  23.874  0.00  0.00    -0.224 OA
BRANCH  10   9
ATOM      5  C   UNL     1      -3.826  -1.954  24.311  0.00  0.00    +0.073 A 
ATOM      6  C   UNL     1      -3.832  -2.779  24.298  0.00  0.00    +0.004 A 
ATOM      7  C   UNL     1      -3.174  -3.201  24.565  0.00  0.00    +0.001 A 
ATOM      8  C   UNL     1      -2.511  -2.796  24.844  0.00  0.00    +0.017 A 
ATOM      9  C   UNL     1      -2.505  -1.972  24.856  0.00  0.00    +0.077 A 
ATOM     33  C   UNL     1      -3.163  -1.551  24.590  0.00  0.00    +0.021 A 
BRANCH   5   2
ATOM      1  F   UNL     1      -5.141  -1.113  23.777  0.00  0.00    -0.166 F 
ATOM      2  C   UNL     1      -4.483  -1.534  24.044  0.00  0.00    +0.419 C 
ATOM      3  F   UNL     1      -4.377  -1.846  23.289  0.00  0.00    -0.166 F 
ATOM      4  F   UNL     1      -4.590  -1.220  24.800  0.00  0.00    -0.166 F 
ENDBRANCH   5   2
ENDBRANCH  10   9
ENDBRANCH  13  11
ENDBRANCH  14  13
BRANCH  18  22
ATOM     22  N   UNL     1       0.041   2.442  24.478  0.00  0.00    -0.074 NA
BRANCH  22  23
ATOM     23  S   UNL     1      -0.399   3.118  24.655  0.00  0.00    +0.077 S 
ATOM     24  O   UNL     1      -0.817   3.028  23.949  0.00  0.00    -0.152 OA
ATOM     25  O   UNL     1       0.019   3.206  25.360  0.00  0.00    -0.152 OA
BRANCH  23  26
ATOM     26  C   UNL     1      -0.840   3.793  24.830  0.00  0.00    +0.124 A 
ATOM     27  C   UNL     1      -0.494   4.539  24.763  0.00  0.00    +0.021 A 
ATOM     28  C   UNL     1      -0.935   5.214  24.939  0.00  0.00    +0.013 A 
ATOM     29  C   UNL     1      -1.720   5.143  25.181  0.00  0.00    +0.058 A 
ATOM     30 CL   UNL     1      -2.160   5.819  25.356  0.00  0.00    -0.082 Cl
ATOM     31  C   UNL     1      -2.065   4.398  25.247  0.00  0.00    +0.013 A 
ATOM     32  C   UNL     1      -1.625   3.722  25.072  0.00  0.00    +0.021 A 
ENDBRANCH  23  26
ENDBRANCH  22  23
ENDBRANCH  18  22
TORSDOF 7
ENDMDL
MODEL 2
REMARK VINA RESULT:     -11.8      2.432      3.176
REMARK  Name = 
REMARK  7 active torsions:
REMARK  status: ('A' for Active; 'I' for Inactive)
REMARK    1  A    between atoms: C_2  and  C_5
REMARK    2  A    between atoms: C_9  and  N_10
REMARK    3  A    between atoms: C_11  and  O_13
REMARK    4  A    between atoms: O_13  and  C_14
REMARK    5  A    between atoms: C_18  and  N_22
REMARK    6  A    between atoms: N_22  and  S_23
REMARK    7  A    between atoms: S_23  and  C_26
REMARK                            x       y       z     vdW  Elec       q    Type
REMARK                         _______ _______ _______ _____ _____    ______ ____
ROOT
ATOM     14  C   UNL     1      -4.703   0.876  24.693  0.00  0.00    +0.229 C 
ATOM     15  C   UNL     1      -4.951   1.022  25.466  0.00  0.00    +0.188 C 
ATOM     16  O   UNL     1      -4.713   1.785  25.670  0.00  0.00    -0.348 OA
ATOM     17  C   UNL     1      -4.319   2.111  25.023  0.00  0.00    +0.166 C 
ATOM     18  C   UNL     1      -3.928   2.784  24.748  0.00  0.00    +0.157 C 
ATOM     19  C   UNL     1      -3.681   2.638  23.975  0.00  0.00    +0.164 C 
ATOM     20  O   UNL     1      -3.918   1.875  23.772  0.00  0.00    -0.348 OA
ATOM     21  C   UNL     1      -4.313   1.549  24.419  0.00  0.00    +0.186 C 
ENDROOT
BRANCH  14  13
ATOM     13  O   UNL     1      -4.825   0.179  24.268  0.00  0.00    -0.432 OA
BRANCH  13  11
ATOM     10  N   UNL     1      -4.052  -0.969  23.915  0.00  0.00    -0.142 NA
ATOM     11  C   UNL     1      -4.430  -0.512  24.487  0.00  0.00    +0.425 C 
ATOM     12  O   UNL     1      -4.415  -0.744  25.279  0.00  0.00    -0.224 OA
BRANCH  10   9
ATOM      5  C   UNL     1      -2.453  -2.334  24.503  0.00  0.00    +0.073 A 
ATOM      6  C   UNL     1      -2.869  -3.043  24.570  0.00  0.00    +0.004 A 
ATOM      7  C   UNL     1      -3.681  -3.060  24.419  0.00  0.00    +0.001 A 
ATOM      8  C   UNL     1      -4.074  -2.369  24.200  0.00  0.00    +0.017 A 
ATOM      9  C   UNL     1      -3.657  -1.660  24.133  0.00  0.00    +0.077 A 
ATOM     33  C   UNL     1      -2.847  -1.643  24.285  0.00  0.00    +0.021 A 
BRANCH   5   2
ATOM      1  F   UNL     1      -0.831  -2.299  24.806  0.00  0.00    -0.166 F 
ATOM      2  C   UNL     1      -1.642  -2.316  24.654  0.00  0.00    +0.419 C 
ATOM      3  F   UNL     1      -1.793  -2.097  25.435  0.00  0.00    -0.166 F 
ATOM      4  F   UNL     1      -1.491  -2.536  23.874  0.00  0.00    -0.166 F 
ENDBRANCH   5   2
ENDBRANCH  10   9
ENDBRANCH  13  11
ENDBRANCH  14  13
BRANCH  18  22
ATOM     22  N   UNL     1      -3.806   3.481  25.173  0.00  0.00    -0.074 NA
BRANCH  22  23
ATOM     23  S   UNL     1      -3.081   3.872  25.126  0.00  0.00    +0.077 S 
ATOM     24  O   UNL     1      -2.847   3.521  25.835  0.00  0.00    -0.152 OA
ATOM     25  O   UNL     1      -3.316   4.222  24.417  0.00  0.00    -0.152 OA
BRANCH  23  26
ATOM     26  C   UNL     1      -2.356   4.262  25.080  0.00  0.00    +0.124 A 
ATOM     27  C   UNL     1      -1.659   3.828  24.993  0.00  0.00    +0.021 A 
ATOM     28  C   UNL     1      -0.934   4.219  24.947  0.00  0.00    +0.013 A 
ATOM     29  C   UNL     1      -0.905   5.042  24.987  0.00  0.00    +0.058 A 
ATOM     30 CL   UNL     1      -0.179   5.432  24.941  0.00  0.00    -0.082 Cl
ATOM     31  C   UNL     1      -1.601   5.475  25.074  0.00  0.00    +0.013 A 
ATOM     32  C   UNL     1      -2.327   5.085  25.120  0.00  0.00    +0.021 A 
ENDBRANCH  23  26
ENDBRANCH  22  23
ENDBRANCH  18  22
TORSDOF 7
ENDMDL
MODEL 3
REMARK VINA RESULT:     -11.7      2.669      5.703
REMARK  Name = 
REMARK  7 active torsions:
REMARK  status: ('A' for Active; 'I' for Inactive)
REMARK    1  A    between atoms: C_2  and  C_5
REMARK    2  A    between atoms: C_9  and  N_10
REMARK    3  A    between atoms: C_11  and  O_13
REMARK    4  A    between atoms: O_13  and  C_14
REMARK    5  A    between atoms: C_18  and  N_22
REMARK    6  A    between atoms: N_22  and  S_23
REMARK    7  A    between atoms: S_23  and  C_26
REMARK                            x       y       z     vdW  Elec       q    Type
REMARK                         _______ _______ _______ _____ _____    ______ ____
ROOT
ATOM     14  C   UNL     1      -0.306   1.190  25.248  0.00  0.00    +0.229 C 
ATOM     15  C   UNL     1      -0.527   1.035  26.027  0.00  0.00    +0.188 C 
ATOM     16  O   UNL     1      -0.831   0.269  26.057  0.00  0.00    -0.348 OA
ATOM     17  C   UNL     1      -0.797  -0.050  25.298  0.00  0.00    +0.166 C 
ATOM     18  C   UNL     1      -0.963  -0.720  24.846  0.00  0.00    +0.157 C 
ATOM     19  C   UNL     1      -0.741  -0.565  24.067  0.00  0.00    +0.164 C 
ATOM     20  O   UNL     1      -0.438   0.201  24.037  0.00  0.00    -0.348 OA
ATOM     21  C   UNL     1      -0.472   0.520  24.797  0.00  0.00    +0.186 C 
ENDROOT
BRANCH  14  13
ATOM     13  O   UNL     1       0.025   1.893  24.968  0.00  0.00    -0.432 OA
BRANCH  13  11
ATOM     10  N   UNL     1      -0.797   3.017  24.649  0.00  0.00    -0.142 NA
ATOM     11  C   UNL     1      -0.308   2.618  25.179  0.00  0.00    +0.425 C 
ATOM     12  O   UNL     1      -0.150   2.943  25.922  0.00  0.00    -0.224 OA
BRANCH  10   9
ATOM      5  C   UNL     1      -2.224   4.497  25.385  0.00  0.00    +0.073 A 
ATOM      6  C   UNL     1      -1.794   5.193  25.282  0.00  0.00    +0.004 A 
ATOM      7  C   UNL     1      -1.031   5.164  24.967  0.00  0.00    +0.001 A 
ATOM      8  C   UNL     1      -0.700   4.439  24.757  0.00  0.00    +0.017 A 
ATOM      9  C   UNL     1      -1.130   3.743  24.860  0.00  0.00    +0.077 A 
ATOM     33  C   UNL     1      -1.891   3.772  25.174  0.00  0.00    +0.021 A 
BRANCH   5   2
ATOM      1  F   UNL     1      -3.748   4.555  26.014  0.00  0.00    -0.166 F 
ATOM      2  C   UNL     1      -2.986   4.526  25.700  0.00  0.00    +0.419 C 
ATOM      3  F   UNL     1      -3.301   4.416  24.946  0.00  0.00    -0.166 F 
ATOM      4  F   UNL     1      -2.671   4.636  26.454  0.00  0.00    -0.166 F 
ENDBRANCH   5   2
ENDBRANCH  10   9
ENDBRANCH  13  11
ENDBRANCH  14  13
BRANCH  18  22
ATOM     22  N   UNL     1      -1.293  -1.423  25.126  0.00  0.00    -0.074 NA
BRANCH  22  23
ATOM     23  S   UNL     1      -2.016  -1.687  24.827  0.00  0.00    +0.077 S 
ATOM     24  O   UNL     1      -1.626  -2.029  24.186  0.00  0.00    -0.152 OA
ATOM     25  O   UNL     1      -2.406  -1.344  25.469  0.00  0.00    -0.152 OA
BRANCH  23  26
ATOM     26  C   UNL     1      -2.738  -1.951  24.528  0.00  0.00    +0.124 A 
ATOM     27  C   UNL     1      -2.863  -2.757  24.404  0.00  0.00    +0.021 A 
ATOM     28  C   UNL     1      -3.585  -3.021  24.105  0.00  0.00    +0.013 A 
ATOM     29  C   UNL     1      -4.182  -2.480  23.930  0.00  0.00    +0.058 A 
ATOM     30 CL   UNL     1      -4.904  -2.745  23.632  0.00  0.00    -0.082 Cl
ATOM     31  C   UNL     1      -4.057  -1.674  24.055  0.00  0.00    +0.013 A 
ATOM     32  C   UNL     1      -3.335  -1.409  24.353  0.00  0.00    +0.021 A 
ENDBRANCH  23  26
ENDBRANCH  22  23
ENDBRANCH  18  22
TORSDOF 7
ENDMDL
MODEL 4
REMARK VINA RESULT:     -11.1      3.500      6.342
REMARK  Name = 
REMARK  7 active torsions:
REMARK  status: ('A' for Active; 'I' for Inactive)
REMARK    1  A    between atoms: C_2  and  C_5
REMARK    2  A    between atoms: C_9  and  N_10
REMARK    3  A    between atoms: C_11  and  O_13
REMARK    4  A    between atoms: O_13  and  C_14
REMARK    5  A    between atoms: C_18  and  N_22
REMARK    6  A    between atoms: N_22  and  S_23
REMARK    7  A    between atoms: S_23  and  C_26
REMARK                            x       y       z     vdW  Elec       q    Type
REMARK                         _______ _______ _______ _____ _____    ______ ____
ROOT
ATOM     14  C   UNL     1      -4.584   2.675  24.973  0.00  0.00    +0.229 C 
ATOM     15  C   UNL     1      -5.048   2.493  25.630  0.00  0.00    +0.188 C 
ATOM     16  O   UNL     1      -5.142   1.674  25.656  0.00  0.00    -0.348 OA
ATOM     17  C   UNL     1      -4.737   1.350  25.015  0.00  0.00    +0.166 C 
ATOM     18  C   UNL     1      -4.544   0.644  24.634  0.00  0.00    +0.157 C 
ATOM     19  C   UNL     1      -4.080   0.826  23.977  0.00  0.00    +0.164 C 
ATOM     20  O   UNL     1      -3.986   1.644  23.951  0.00  0.00    -0.348 OA
ATOM     21  C   UNL     1      -4.392   1.969  24.593  0.00  0.00    +0.186 C 
ENDROOT
BRANCH  14  13
ATOM     13  O   UNL     1      -4.352   3.431  24.737  0.00  0.00    -0.432 OA
BRANCH  13  11
ATOM     10  N   UNL     1      -3.026   3.896  24.478  0.00  0.00    -0.142 NA
ATOM     11  C   UNL     1      -3.640   3.748  25.008  0.00  0.00    +0.425 C 
ATOM     12  O   UNL     1      -3.543   3.917  25.810  0.00  0.00    -0.224 OA
BRANCH  10   9
ATOM      5  C   UNL     1      -0.952   4.039  25.143  0.00  0.00    +0.073 A 
ATOM      6  C   UNL     1      -0.891   4.849  25.290  0.00  0.00    +0.004 A 
ATOM      7  C   UNL     1      -1.541   5.341  25.165  0.00  0.00    +0.001 A 
ATOM      8  C   UNL     1      -2.253   5.023  24.895  0.00  0.00    +0.017 A 
ATOM      9  C   UNL     1      -2.314   4.213  24.748  0.00  0.00    +0.077 A 
ATOM     33  C   UNL     1      -1.664   3.722  24.872  0.00  0.00    +0.021 A 
BRANCH   5   2
ATOM      1  F   UNL     1       0.349   3.056  25.391  0.00  0.00    -0.166 F 
ATOM      2  C   UNL     1      -0.302   3.548  25.267  0.00  0.00    +0.419 C 
ATOM      3  F   UNL     1      -0.084   3.636  24.477  0.00  0.00    -0.166 F 
ATOM      4  F   UNL     1      -0.519   3.459  26.058  0.00  0.00    -0.166 F 
ENDBRANCH   5   2
ENDBRANCH  10   9
ENDBRANCH  13  11
ENDBRANCH  14  13
BRANCH  18  22
ATOM     22  N   UNL     1      -4.776  -0.113  24.870  0.00  0.00    -0.074 NA
BRANCH  22  23
ATOM     23  S   UNL     1      -4.258  -0.749  24.782  0.00  0.00    +0.077 S 
ATOM     24  O   UNL     1      -4.500  -0.836  23.998  0.00  0.00    -0.152 OA
ATOM     25  O   UNL     1      -4.016  -0.661  25.566  0.00  0.00    -0.152 OA
BRANCH  23  26
ATOM     26  C   UNL     1      -3.741  -1.386  24.692  0.00  0.00    +0.124 A 
ATOM     27  C   UNL     1      -3.968  -2.042  24.247  0.00  0.00    +0.021 A 
ATOM     28  C   UNL     1      -3.451  -2.679  24.158  0.00  0.00    +0.013 A 
ATOM     29  C   UNL     1      -2.707  -2.659  24.513  0.00  0.00    +0.058 A 
ATOM     30 CL   UNL     1      -2.190  -3.296  24.423  0.00  0.00    -0.082 Cl
ATOM     31  C   UNL     1      -2.480  -2.003  24.958  0.00  0.00    +0.013 A 
ATOM     32  C   UNL     1      -2.997  -1.366  25.048  0.00  0.00    +0.021 A 
ENDBRANCH  23  26
ENDBRANCH  22  23
ENDBRANCH  18  22
TORSDOF 7
ENDMDL
MODEL 5
REMARK VINA RESULT:     -10.5      3.143      4.284
REMARK  Name = 
REMARK  7 active torsions:
REMARK  status: ('A' for Active; 'I' for Inactive)
REMARK    1  A    between atoms: C_2  and  C_5
REMARK    2  A    between atoms: C_9  and  N_10
REMARK    3  A    between atoms: C_11  and  O_13
REMARK    4  A    between atoms: O_13  and  C_14
REMARK    5  A    between atoms: C_18  and  N_22
REMARK    6  A    between atoms: N_22  and  S_23
REMARK    7  A    between atoms: S_23  and  C_26
REMARK                            x       y       z     vdW  Elec       q    Type
REMARK                         _______ _______ _______ _____ _____    ______ ____
ROOT
ATOM     14  C   UNL     1      -0.192   0.085  23.860  0.00  0.00    +0.229 C 
ATOM     15  C   UNL     1      -0.192  -0.609  23.416  0.00  0.00    +0.188 C 
ATOM     16  O   UNL     1       0.515  -0.640  22.992  0.00  0.00    -0.348 OA
ATOM     17  C   UNL     1       0.952   0.034  23.174  0.00  0.00    +0.166 C 
ATOM     18  C   UNL     1       1.658   0.433  23.026  0.00  0.00    +0.157 C 
ATOM     19  C   UNL     1       1.659   1.128  23.470  0.00  0.00    +0.164 C 
ATOM     20  O   UNL     1       0.952   1.159  23.894  0.00  0.00    -0.348 OA
ATOM     21  C   UNL     1       0.515   0.483  23.711  0.00  0.00    +0.186 C 
ENDROOT
BRANCH  14  13
ATOM     13  O   UNL     1      -0.793   0.338  24.366  0.00  0.00    -0.432 OA
BRANCH  13  11
ATOM     10  N   UNL     1      -2.157  -0.051  24.539  0.00  0.00    -0.142 NA
ATOM     11  C   UNL     1      -1.353  -0.201  24.643  0.00  0.00    +0.425 C 
ATOM     12  O   UNL     1      -1.108  -0.891  25.023  0.00  0.00    -0.224 OA
BRANCH  10   9
ATOM      5  C   UNL     1      -3.715  -1.580  24.559  0.00  0.00    +0.073 A 
ATOM      6  C   UNL     1      -3.837  -1.667  25.371  0.00  0.00    +0.004 A 
ATOM      7  C   UNL     1      -3.399  -1.216  25.905  0.00  0.00    +0.001 A 
ATOM      8  C   UNL     1      -2.839  -0.677  25.627  0.00  0.00    +0.017 A 
ATOM      9  C   UNL     1      -2.718  -0.590  24.816  0.00  0.00    +0.077 A 
ATOM     33  C   UNL     1      -3.155  -1.041  24.283  0.00  0.00    +0.021 A 
BRANCH   5   2
ATOM      1  F   UNL     1      -4.592  -2.482  23.492  0.00  0.00    -0.166 F 
ATOM      2  C   UNL     1      -4.153  -2.031  24.026  0.00  0.00    +0.419 C 
ATOM      3  F   UNL     1      -4.696  -1.415  23.951  0.00  0.00    -0.166 F 
ATOM      4  F   UNL     1      -3.610  -2.648  24.100  0.00  0.00    -0.166 F 
ENDBRANCH   5   2
ENDBRANCH  10   9
ENDBRANCH  13  11
ENDBRANCH  14  13
BRANCH  18  22
ATOM     22  N   UNL     1       2.260   0.181  22.520  0.00  0.00    -0.074 NA
BRANCH  22  23
ATOM     23  S   UNL     1       3.038   0.142  22.791  0.00  0.00    +0.077 S 
ATOM     24  O   UNL     1       2.941  -0.661  22.952  0.00  0.00    -0.152 OA
ATOM     25  O   UNL     1       3.135   0.945  22.630  0.00  0.00    -0.152 OA
BRANCH  23  26
ATOM     26  C   UNL     1       3.816   0.102  23.063  0.00  0.00    +0.124 A 
ATOM     27  C   UNL     1       4.322   0.746  22.961  0.00  0.00    +0.021 A 
ATOM     28  C   UNL     1       5.100   0.707  23.232  0.00  0.00    +0.013 A 
ATOM     29  C   UNL     1       5.373   0.023  23.605  0.00  0.00    +0.058 A 
ATOM     30 CL   UNL     1       6.151  -0.016  23.877  0.00  0.00    -0.082 Cl
ATOM     31  C   UNL     1       4.867  -0.620  23.707  0.00  0.00    +0.013 A 
ATOM     32  C   UNL     1       4.089  -0.581  23.436  0.00  0.00    +0.021 A 
ENDBRANCH  23  26
ENDBRANCH  22  23
ENDBRANCH  18  22
TORSDOF 7
ENDMDL
MODEL 6
REMARK VINA RESULT:     -10.3      1.544      1.926
REMARK  Name = 
REMARK  7 active torsions:
REMARK  status: ('A' for Active; 'I' for Inactive)
REMARK    1  A    between atoms: C_2  and  C_5
REMARK    2  A    between atoms: C_9  and  N_10
REMARK    3  A    between atoms: C_11  and  O_13
REMARK    4  A    between atoms: O_13  and  C_14
REMARK    5  A    between atoms: C_18  and  N_22
REMARK    6  A    between atoms: N_22  and  S_23
REMARK    7  A    between atoms: S_23  and  C_26
REMARK                            x       y       z     vdW  Elec       q    Type
REMARK                         _______ _______ _______ _____ _____    ______ ____
ROOT
ATOM     14  C   UNL     1      -0.515   0.856  24.545  0.00  0.00    +0.229 C 
ATOM     15  C   UNL     1      -0.664   1.140  23.785  0.00  0.00    +0.188 C 
ATOM     16  O   UNL     1      -0.980   1.899  23.855  0.00  0.00    -0.348 OA
ATOM     17  C   UNL     1      -1.027   2.084  24.657  0.00  0.00    +0.166 C 
ATOM     18  C   UNL     1      -1.251   2.667  25.196  0.00  0.00    +0.157 C 
ATOM     19  C   UNL     1      -1.102   2.383  25.956  0.00  0.00    +0.164 C 
ATOM     20  O   UNL     1      -0.785   1.624  25.887  0.00  0.00    -0.348 OA
ATOM     21  C   UNL     1      -0.739   1.439  25.083  0.00  0.00    +0.186 C 
ENDROOT
BRANCH  14  13
ATOM     13  O   UNL     1      -0.198   0.118  24.733  0.00  0.00    -0.432 OA
BRANCH  13  11
ATOM     10  N   UNL     1      -1.102  -0.939  25.058  0.00  0.00    -0.142 NA
ATOM     11  C   UNL     1      -0.599  -0.570  24.519  0.00  0.00    +0.425 C 
ATOM     12  O   UNL     1      -0.495  -0.890  23.765  0.00  0.00    -0.224 OA
BRANCH  10   9
ATOM      5  C   UNL     1      -2.727  -2.316  24.579  0.00  0.00    +0.073 A 
ATOM      6  C   UNL     1      -2.304  -3.006  24.416  0.00  0.00    +0.004 A 
ATOM      7  C   UNL     1      -1.480  -3.006  24.466  0.00  0.00    +0.001 A 
ATOM      8  C   UNL     1      -1.080  -2.317  24.680  0.00  0.00    +0.017 A 
ATOM      9  C   UNL     1      -1.503  -1.628  24.844  0.00  0.00    +0.077 A 
ATOM     33  C   UNL     1      -2.326  -1.628  24.793  0.00  0.00    +0.021 A 
BRANCH   5   2
ATOM      1  F   UNL     1      -4.374  -2.316  24.477  0.00  0.00    -0.166 F 
ATOM      2  C   UNL     1      -3.550  -2.316  24.528  0.00  0.00    +0.419 C 
ATOM      3  F   UNL     1      -3.502  -2.024  23.759  0.00  0.00    -0.166 F 
ATOM      4  F   UNL     1      -3.599  -2.609  25.298  0.00  0.00    -0.166 F 
ENDBRANCH   5   2
ENDBRANCH  10   9
ENDBRANCH  13  11
ENDBRANCH  14  13
BRANCH  18  22
ATOM     22  N   UNL     1      -1.568   3.405  25.008  0.00  0.00    -0.074 NA
BRANCH  22  23
ATOM     23  S   UNL     1      -2.373   3.549  25.119  0.00  0.00    +0.077 S 
ATOM     24  O   UNL     1      -2.491   3.510  24.304  0.00  0.00    -0.152 OA
ATOM     25  O   UNL     1      -2.254   3.587  25.935  0.00  0.00    -0.152 OA
BRANCH  23  26
ATOM     26  C   UNL     1      -3.178   3.692  25.229  0.00  0.00    +0.124 A 
ATOM     27  C   UNL     1      -3.703   3.597  24.600  0.00  0.00    +0.021 A 
ATOM     28  C   UNL     1      -4.508   3.741  24.710  0.00  0.00    +0.013 A 
ATOM     29  C   UNL     1      -4.788   3.979  25.448  0.00  0.00    +0.058 A 
ATOM     30 CL   UNL     1      -5.593   4.123  25.557  0.00  0.00    -0.082 Cl
ATOM     31  C   UNL     1      -4.263   4.074  26.077  0.00  0.00    +0.013 A 
ATOM     32  C   UNL     1      -3.458   3.931  25.968  0.00  0.00    +0.021 A 
ENDBRANCH  23  26
ENDBRANCH  22  23
ENDBRANCH  18  22
TORSDOF 7
ENDMDL
