MODEL 1
REMARK VINA RESULT:     -14.3      0.000      0.000
REMARK  Name = 
REMARK  6 active torsions:
REMARK  status: ('A' for Active; 'I' for Inactive)
REMARK    1  A    between atoms: O_2  and  C_3
REMARK    2  A    between atoms: C_6  and  S_9
REMARK    3  A    between atoms: S_9  and  N_12
REMARK    4  A    between atoms: C_19  and  N_20
REMARK    5  A    between atoms: N_20  and  S_21
REMARK    6  A    between atoms: S_21  and  C_24
REMARK                            x       y       z     vdW  Elec       q    Type
REMARK                         _______ _______ _______ _____ _____    ______ ____
ROOT
ATOM     12  N   UNL     1      -3.645   2.912  24.375  0.00  0.00    -0.155 NA
ATOM     13  C   UNL     1      -3.081   3.058  23.777  0.00  0.00    +0.098 C 
ATOM     14  C   UNL     1      -2.988   2.145  23.411  0.00  0.00    +0.041 C 
ATOM     15  C   UNL     1      -2.800   1.464  23.004  0.00  0.00    +0.011 C 
ATOM     16  C   UNL     1      -3.220   1.653  23.534  0.00  0.00    +0.058 C 
ATOM     17  C   UNL     1      -3.298   2.541  23.876  0.00  0.00    +0.102 C 
ATOM     18  C   UNL     1      -3.830   1.307  24.128  0.00  0.00    +0.058 A 
ATOM     19  C   UNL     1      -4.190   0.594  24.333  0.00  0.00    +0.103 A 
ATOM     30  C   UNL     1      -4.739   0.572  24.949  0.00  0.00    +0.024 A 
ATOM     31  C   UNL     1      -4.927   1.263  25.359  0.00  0.00    +0.062 A 
ATOM     32  C   UNL     1      -4.567   1.975  25.153  0.00  0.00    +0.261 A 
ATOM     33  O   UNL     1      -4.836   2.749  25.679  0.00  0.00    -0.267 OA
ATOM     34  N   UNL     1      -4.018   1.997  24.538  0.00  0.00    -0.298 N 
ATOM     35  C   UNL     1      -3.627   1.792  24.035  0.00  0.00    +0.110 C 
ENDROOT
BRANCH  12   9
ATOM      9  S   UNL     1      -4.132   3.200  25.009  0.00  0.00    +0.063 S 
ATOM     10  O   UNL     1      -4.921   3.197  25.451  0.00  0.00    -0.153 OA
ATOM     11  O   UNL     1      -4.775   2.655  24.695  0.00  0.00    -0.153 OA
BRANCH   9   6
ATOM      3  C   UNL     1      -2.007   4.639  25.365  0.00  0.00    +0.139 A 
ATOM      4  C   UNL     1      -2.084   3.870  25.858  0.00  0.00    +0.038 A 
ATOM      5  C   UNL     1      -2.682   3.510  25.726  0.00  0.00    +0.023 A 
ATOM      6  C   UNL     1      -3.328   3.700  25.176  0.00  0.00    +0.122 A 
ATOM      7  C   UNL     1      -3.198   4.403  24.764  0.00  0.00    +0.023 A 
ATOM      8  C   UNL     1      -2.511   4.840  24.899  0.00  0.00    +0.038 A 
BRANCH   3   2
ATOM      1  C   UNL     1      -0.602   5.536  24.797  0.00  0.00    +0.252 C 
ATOM      2  O   UNL     1      -1.361   5.366  25.270  0.00  0.00    -0.471 OA
ENDBRANCH   3   2
ENDBRANCH   9   6
ENDBRANCH  12   9
BRANCH  19  20
ATOM     20  N   UNL     1      -3.988  -0.176  23.885  0.00  0.00    -0.095 NA
BRANCH  20  21
ATOM     21  S   UNL     1      -4.003  -0.918  24.175  0.00  0.00    +0.093 S 
ATOM     22  O   UNL     1      -4.824  -0.976  24.127  0.00  0.00    -0.148 OA
ATOM     23  O   UNL     1      -3.151  -1.364  24.424  0.00  0.00    -0.148 OA
BRANCH  21  24
ATOM     24  C   UNL     1      -3.771  -1.643  24.480  0.00  0.00    +0.127 A 
ATOM     25  C   UNL     1      -3.410  -1.842  25.196  0.00  0.00    +0.020 A 
ATOM     26  C   UNL     1      -3.234  -2.630  25.364  0.00  0.00    +0.001 A 
ATOM     27  C   UNL     1      -3.418  -3.220  24.817  0.00  0.00    +0.000 A 
ATOM     28  C   UNL     1      -3.779  -3.022  24.102  0.00  0.00    +0.001 A 
ATOM     29  C   UNL     1      -3.955  -2.233  23.934  0.00  0.00    +0.020 A 
ENDBRANCH  21  24
ENDBRANCH  20  21
ENDBRANCH  19  20
TORSDOF 6
ENDMDL
MODEL 2
REMARK VINA RESULT:     -12.7      1.798      2.152
REMARK  Name = 
REMARK  6 active torsions:
REMARK  status: ('A' for Active; 'I' for Inactive)
REMARK    1  A    between atoms: O_2  and  C_3
REMARK    2  A    between atoms: C_6  and  S_9
REMARK    3  A    between atoms: S_9  and  N_12
REMARK    4  A    between atoms: C_19  and  N_20
REMARK    5  A    between atoms: N_20  and  S_21
REMARK    6  A    between atoms: S_21  and  C_24
REMARK                            x       y       z     vdW  Elec       q    Type
REMARK                         _______ _______ _______ _____ _____    ______ ____
ROOT
ATOM     12  N   UNL     1      -1.572   2.199  24.502  0.00  0.00    -0.155 NA
ATOM     13  C   UNL     1      -2.076   2.652  24.014  0.00  0.00    +0.098 C 
ATOM     14  C   UNL     1      -2.844   2.033  23.951  0.00  0.00    +0.041 C 
ATOM     15  C   UNL     1      -3.545   1.645  23.801  0.00  0.00    +0.011 C 
ATOM     16  C   UNL     1      -2.953   1.528  24.159  0.00  0.00    +0.058 C 
ATOM     17  C   UNL     1      -2.219   2.136  24.211  0.00  0.00    +0.102 C 
ATOM     18  C   UNL     1      -2.545   0.898  24.690  0.00  0.00    +0.058 A 
ATOM     19  C   UNL     1      -2.675   0.151  25.013  0.00  0.00    +0.103 A 
ATOM     30  C   UNL     1      -2.097  -0.201  25.485  0.00  0.00    +0.024 A 
ATOM     31  C   UNL     1      -1.389   0.195  25.635  0.00  0.00    +0.062 A 
ATOM     32  C   UNL     1      -1.258   0.942  25.312  0.00  0.00    +0.261 A 
ATOM     33  O   UNL     1      -0.401   1.350  25.529  0.00  0.00    -0.267 OA
ATOM     34  N   UNL     1      -1.836   1.294  24.840  0.00  0.00    -0.298 N 
ATOM     35  C   UNL     1      -2.410   1.382  24.507  0.00  0.00    +0.110 C 
ENDROOT
BRANCH  12   9
ATOM      9  S   UNL     1      -0.834   2.114  24.916  0.00  0.00    +0.063 S 
ATOM     10  O   UNL     1      -0.148   1.593  25.188  0.00  0.00    -0.153 OA
ATOM     11  O   UNL     1      -0.860   1.247  24.680  0.00  0.00    -0.153 OA
BRANCH   9   6
ATOM      3  C   UNL     1      -1.204   4.664  25.182  0.00  0.00    +0.139 A 
ATOM      4  C   UNL     1      -1.578   4.115  25.814  0.00  0.00    +0.038 A 
ATOM      5  C   UNL     1      -1.449   3.426  25.699  0.00  0.00    +0.023 A 
ATOM      6  C   UNL     1      -0.998   3.051  25.057  0.00  0.00    +0.122 A 
ATOM      7  C   UNL     1      -0.689   3.599  24.523  0.00  0.00    +0.023 A 
ATOM      8  C   UNL     1      -0.824   4.405  24.634  0.00  0.00    +0.038 A 
BRANCH   3   2
ATOM      1  C   UNL     1      -1.730   6.335  24.990  0.00  0.00    +0.252 C 
ATOM      2  O   UNL     1      -1.160   5.624  25.005  0.00  0.00    -0.471 OA
ENDBRANCH   3   2
ENDBRANCH   9   6
ENDBRANCH  12   9
BRANCH  19  20
ATOM     20  N   UNL     1      -3.457  -0.295  24.854  0.00  0.00    -0.095 NA
BRANCH  20  21
ATOM     21  S   UNL     1      -3.572  -1.083  24.876  0.00  0.00    +0.093 S 
ATOM     22  O   UNL     1      -3.707  -1.093  25.689  0.00  0.00    -0.148 OA
ATOM     23  O   UNL     1      -3.509  -1.612  24.037  0.00  0.00    -0.148 OA
BRANCH  21  24
ATOM     24  C   UNL     1      -3.647  -1.869  24.653  0.00  0.00    +0.127 A 
ATOM     25  C   UNL     1      -3.321  -2.559  24.971  0.00  0.00    +0.020 A 
ATOM     26  C   UNL     1      -3.492  -3.290  24.631  0.00  0.00    +0.001 A 
ATOM     27  C   UNL     1      -3.988  -3.334  23.973  0.00  0.00    +0.000 A 
ATOM     28  C   UNL     1      -4.314  -2.646  23.656  0.00  0.00    +0.001 A 
ATOM     29  C   UNL     1      -4.143  -1.913  23.996  0.00  0.00    +0.020 A 
ENDBRANCH  21  24
ENDBRANCH  20  21
ENDBRANCH  19  20
TORSDOF 6
ENDMDL
MODEL 3
REMARK VINA RESULT:     -12.0      1.344      5.230
REMARK  Name = 
REMARK  6 active torsions:
REMARK  status: ('A' for Active; 'I' for Inactive)
REMARK    1  A    between atoms: O_2  and  C_3
REMARK    2  A    between atoms: C_6  and  S_9
REMARK    3  A    between atoms: S_9  and  N_12
REMARK    4  A    between atoms: C_19  and  N_20
REMARK    5  A    between atoms: N_20  and  S_21
REMARK    6  A    between atoms: S_21  and  C_24
REMARK                            x       y       z     vdW  Elec       q    Type
REMARK                         _______ _______ _______ _____ _____    ______ ____
ROOT
ATOM     12  N   UNL     1      -3.336   0.328  24.312  0.00  0.00    -0.155 NA
ATOM     13  C   UNL     1      -2.674  -0.100  24.035  0.00  0.00    +0.098 C 
ATOM     14  C   UNL     1      -1.956   0.538  24.269  0.00  0.00    +0.041 C 
ATOM     15  C   UNL     1      -1.262   0.945  24.394  0.00  0.00    +0.011 C 
ATOM     16  C   UNL     1      -1.947   1.040  24.511  0.00  0.00    +0.058 C 
ATOM     17  C   UNL     1      -2.630   0.413  24.279  0.00  0.00    +0.102 C 
ATOM     18  C   UNL     1      -2.541   1.645  24.866  0.00  0.00    +0.058 A 
ATOM     19  C   UNL     1      -2.562   2.386  25.227  0.00  0.00    +0.103 A 
ATOM     30  C   UNL     1      -3.283   2.712  25.460  0.00  0.00    +0.024 A 
ATOM     31  C   UNL     1      -3.984   2.296  25.332  0.00  0.00    +0.062 A 
ATOM     32  C   UNL     1      -3.964   1.554  24.971  0.00  0.00    +0.261 A 
ATOM     33  O   UNL     1      -4.827   1.121  24.852  0.00  0.00    -0.267 OA
ATOM     34  N   UNL     1      -3.242   1.229  24.738  0.00  0.00    -0.298 N 
ATOM     35  C   UNL     1      -2.584   1.163  24.637  0.00  0.00    +0.110 C 
ENDROOT
BRANCH  12   9
ATOM      9  S   UNL     1      -4.176   0.384  24.427  0.00  0.00    +0.063 S 
ATOM     10  O   UNL     1      -4.926   0.888  24.473  0.00  0.00    -0.153 OA
ATOM     11  O   UNL     1      -4.083   1.270  24.303  0.00  0.00    -0.153 OA
BRANCH   9   6
ATOM      3  C   UNL     1      -3.883  -2.186  24.567  0.00  0.00    +0.139 A 
ATOM      4  C   UNL     1      -3.757  -1.704  25.336  0.00  0.00    +0.038 A 
ATOM      5  C   UNL     1      -3.849  -1.005  25.249  0.00  0.00    +0.023 A 
ATOM      6  C   UNL     1      -4.057  -0.565  24.528  0.00  0.00    +0.122 A 
ATOM      7  C   UNL     1      -4.156  -1.055  23.873  0.00  0.00    +0.023 A 
ATOM      8  C   UNL     1      -4.056  -1.871  23.948  0.00  0.00    +0.038 A 
BRANCH   3   2
ATOM      1  C   UNL     1      -3.222  -3.779  24.206  0.00  0.00    +0.252 C 
ATOM      2  O   UNL     1      -3.849  -3.124  24.297  0.00  0.00    -0.471 OA
ENDBRANCH   3   2
ENDBRANCH   9   6
ENDBRANCH  12   9
BRANCH  19  20
ATOM     20  N   UNL     1      -1.791   2.854  25.372  0.00  0.00    -0.095 NA
BRANCH  20  21
ATOM     21  S   UNL     1      -1.712   3.646  25.422  0.00  0.00    +0.093 S 
ATOM     22  O   UNL     1      -1.969   3.674  26.205  0.00  0.00    -0.148 OA
ATOM     23  O   UNL     1      -1.389   4.156  24.633  0.00  0.00    -0.148 OA
BRANCH  21  24
ATOM     24  C   UNL     1      -1.556   4.429  25.235  0.00  0.00    +0.127 A 
ATOM     25  C   UNL     1      -2.016   5.110  25.318  0.00  0.00    +0.020 A 
ATOM     26  C   UNL     1      -1.716   5.841  25.081  0.00  0.00    +0.001 A 
ATOM     27  C   UNL     1      -0.958   5.892  24.761  0.00  0.00    +0.000 A 
ATOM     28  C   UNL     1      -0.498   5.212  24.678  0.00  0.00    +0.001 A 
ATOM     29  C   UNL     1      -0.797   4.480  24.915  0.00  0.00    +0.020 A 
ENDBRANCH  21  24
ENDBRANCH  20  21
ENDBRANCH  19  20
TORSDOF 6
ENDMDL
MODEL 4
REMARK VINA RESULT:     -11.9      1.699      5.609
REMARK  Name = 
REMARK  6 active torsions:
REMARK  status: ('A' for Active; 'I' for Inactive)
REMARK    1  A    between atoms: O_2  and  C_3
REMARK    2  A    between atoms: C_6  and  S_9
REMARK    3  A    between atoms: S_9  and  N_12
REMARK    4  A    between atoms: C_19  and  N_20
REMARK    5  A    between atoms: N_20  and  S_21
REMARK    6  A    between atoms: S_21  and  C_24
REMARK                            x       y       z     vdW  Elec       q    Type
REMARK                         _______ _______ _______ _____ _____    ______ ____
ROOT
ATOM     12  N   UNL     1      -2.354  -0.243  24.598  0.00  0.00    -0.155 NA
ATOM     13  C   UNL     1      -3.089  -0.241  24.200  0.00  0.00    +0.098 C 
ATOM     14  C   UNL     1      -3.319   0.716  24.281  0.00  0.00    +0.041 C 
ATOM     15  C   UNL     1      -3.650   1.461  24.263  0.00  0.00    +0.011 C 
ATOM     16  C   UNL     1      -3.068   1.157  24.513  0.00  0.00    +0.058 C 
ATOM     17  C   UNL     1      -2.859   0.229  24.426  0.00  0.00    +0.102 C 
ATOM     18  C   UNL     1      -2.296   1.348  24.973  0.00  0.00    +0.058 A 
ATOM     19  C   UNL     1      -1.900   1.980  25.324  0.00  0.00    +0.103 A 
ATOM     30  C   UNL     1      -1.172   1.857  25.693  0.00  0.00    +0.024 A 
ATOM     31  C   UNL     1      -0.840   1.101  25.709  0.00  0.00    +0.062 A 
ATOM     32  C   UNL     1      -1.237   0.469  25.358  0.00  0.00    +0.261 A 
ATOM     33  O   UNL     1      -0.787  -0.393  25.415  0.00  0.00    -0.267 OA
ATOM     34  N   UNL     1      -1.964   0.592  24.990  0.00  0.00    -0.298 N 
ATOM     35  C   UNL     1      -2.510   0.906  24.761  0.00  0.00    +0.110 C 
ENDROOT
BRANCH  12   9
ATOM      9  S   UNL     1      -1.672  -0.666  24.876  0.00  0.00    +0.063 S 
ATOM     10  O   UNL     1      -0.798  -0.673  25.106  0.00  0.00    -0.153 OA
ATOM     11  O   UNL     1      -1.225   0.112  24.809  0.00  0.00    -0.153 OA
BRANCH   9   6
ATOM      3  C   UNL     1      -3.375  -2.614  24.747  0.00  0.00    +0.139 A 
ATOM      4  C   UNL     1      -3.375  -2.103  25.508  0.00  0.00    +0.038 A 
ATOM      5  C   UNL     1      -2.892  -1.582  25.497  0.00  0.00    +0.023 A 
ATOM      6  C   UNL     1      -2.321  -1.376  24.874  0.00  0.00    +0.122 A 
ATOM      7  C   UNL     1      -2.372  -1.873  24.218  0.00  0.00    +0.023 A 
ATOM      8  C   UNL     1      -2.925  -2.485  24.206  0.00  0.00    +0.038 A 
BRANCH   3   2
ATOM      1  C   UNL     1      -4.505  -3.552  23.774  0.00  0.00    +0.252 C 
ATOM      2  O   UNL     1      -3.868  -3.384  24.402  0.00  0.00    -0.471 OA
ENDBRANCH   3   2
ENDBRANCH   9   6
ENDBRANCH  12   9
BRANCH  19  20
ATOM     20  N   UNL     1      -2.259   2.820  25.311  0.00  0.00    -0.095 NA
BRANCH  20  21
ATOM     21  S   UNL     1      -1.865   3.511  25.361  0.00  0.00    +0.093 S 
ATOM     22  O   UNL     1      -1.784   3.465  26.180  0.00  0.00    -0.148 OA
ATOM     23  O   UNL     1      -1.680   4.030  24.535  0.00  0.00    -0.148 OA
BRANCH  21  24
ATOM     24  C   UNL     1      -1.495   4.216  25.164  0.00  0.00    +0.127 A 
ATOM     25  C   UNL     1      -0.735   4.371  24.879  0.00  0.00    +0.020 A 
ATOM     26  C   UNL     1      -0.503   5.148  24.725  0.00  0.00    +0.001 A 
ATOM     27  C   UNL     1      -1.030   5.769  24.855  0.00  0.00    +0.000 A 
ATOM     28  C   UNL     1      -1.789   5.615  25.140  0.00  0.00    +0.001 A 
ATOM     29  C   UNL     1      -2.021   4.838  25.295  0.00  0.00    +0.020 A 
ENDBRANCH  21  24
ENDBRANCH  20  21
ENDBRANCH  19  20
TORSDOF 6
ENDMDL
MODEL 5
REMARK VINA RESULT:     -10.6      2.877      4.651
REMARK  Name = 
REMARK  6 active torsions:
REMARK  status: ('A' for Active; 'I' for Inactive)
REMARK    1  A    between atoms: O_2  and  C_3
REMARK    2  A    between atoms: C_6  and  S_9
REMARK    3  A    between atoms: S_9  and  N_12
REMARK    4  A    between atoms: C_19  and  N_20
REMARK    5  A    between atoms: N_20  and  S_21
REMARK    6  A    between atoms: S_21  and  C_24
REMARK                            x       y       z     vdW  Elec       q    Type
REMARK                         _______ _______ _______ _____ _____    ______ ____
ROOT
ATOM     12  N   UNL     1      -0.407   0.590  24.176  0.00  0.00    -0.155 NA
ATOM     13  C   UNL     1       0.086   1.262  24.115  0.00  0.00    +0.098 C 
ATOM     14  C   UNL     1      -0.599   1.973  24.143  0.00  0.00    +0.041 C 
ATOM     15  C   UNL     1      -1.031   2.664  24.151  0.00  0.00    +0.011 C 
ATOM     16  C   UNL     1      -1.155   1.974  24.185  0.00  0.00    +0.058 C 
ATOM     17  C   UNL     1      -0.481   1.299  24.157  0.00  0.00    +0.102 C 
ATOM     18  C   UNL     1      -1.843   1.369  24.258  0.00  0.00    +0.058 A 
ATOM     19  C   UNL     1      -2.664   1.337  24.321  0.00  0.00    +0.103 A 
ATOM     30  C   UNL     1      -3.046   0.608  24.376  0.00  0.00    +0.024 A 
ATOM     31  C   UNL     1      -2.606  -0.090  24.367  0.00  0.00    +0.062 A 
ATOM     32  C   UNL     1      -1.784  -0.058  24.303  0.00  0.00    +0.261 A 
ATOM     33  O   UNL     1      -1.329  -0.919  24.299  0.00  0.00    -0.267 OA
ATOM     34  N   UNL     1      -1.402   0.671  24.249  0.00  0.00    -0.298 N 
ATOM     35  C   UNL     1      -1.311   1.333  24.219  0.00  0.00    +0.110 C 
ENDROOT
BRANCH  12   9
ATOM      9  S   UNL     1      -0.494  -0.254  24.212  0.00  0.00    +0.063 S 
ATOM     10  O   UNL     1      -0.936  -0.981  24.519  0.00  0.00    -0.153 OA
ATOM     11  O   UNL     1      -1.201  -0.107  24.748  0.00  0.00    -0.153 OA
BRANCH   9   6
ATOM      3  C   UNL     1       1.655  -0.089  22.775  0.00  0.00    +0.139 A 
ATOM      4  C   UNL     1       0.851  -0.061  22.336  0.00  0.00    +0.038 A 
ATOM      5  C   UNL     1       0.291  -0.109  22.772  0.00  0.00    +0.023 A 
ATOM      6  C   UNL     1       0.274  -0.189  23.637  0.00  0.00    +0.122 A 
ATOM      7  C   UNL     1       1.028  -0.209  23.970  0.00  0.00    +0.023 A 
ATOM      8  C   UNL     1       1.695  -0.154  23.486  0.00  0.00    +0.038 A 
BRANCH   3   2
ATOM      1  C   UNL     1       3.234   0.584  22.377  0.00  0.00    +0.252 C 
ATOM      2  O   UNL     1       2.602  -0.052  22.536  0.00  0.00    -0.471 OA
ENDBRANCH   3   2
ENDBRANCH   9   6
ENDBRANCH  12   9
BRANCH  19  20
ATOM     20  N   UNL     1      -3.160   2.105  24.332  0.00  0.00    -0.095 NA
BRANCH  20  21
ATOM     21  S   UNL     1      -3.934   2.173  24.511  0.00  0.00    +0.093 S 
ATOM     22  O   UNL     1      -4.182   1.918  23.767  0.00  0.00    -0.148 OA
ATOM     23  O   UNL     1      -4.201   2.487  25.415  0.00  0.00    -0.148 OA
BRANCH  21  24
ATOM     24  C   UNL     1      -4.633   2.318  24.914  0.00  0.00    +0.127 A 
ATOM     25  C   UNL     1      -5.278   1.830  25.080  0.00  0.00    +0.020 A 
ATOM     26  C   UNL     1      -5.921   2.125  25.504  0.00  0.00    +0.001 A 
ATOM     27  C   UNL     1      -5.920   2.908  25.763  0.00  0.00    +0.000 A 
ATOM     28  C   UNL     1      -5.276   3.396  25.599  0.00  0.00    +0.001 A 
ATOM     29  C   UNL     1      -4.632   3.102  25.174  0.00  0.00    +0.020 A 
ENDBRANCH  21  24
ENDBRANCH  20  21
ENDBRANCH  19  20
TORSDOF 6
ENDMDL
MODEL 6
REMARK VINA RESULT:     -10.6      2.453      3.887
REMARK  Name = 
REMARK  6 active torsions:
REMARK  status: ('A' for Active; 'I' for Inactive)
REMARK    1  A    between atoms: O_2  and  C_3
REMARK    2  A    between atoms: C_6  and  S_9
REMARK    3  A    between atoms: S_9  and  N_12
REMARK    4  A    between atoms: C_19  and  N_20
REMARK    5  A    between atoms: N_20  and  S_21
REMARK    6  A    between atoms: S_21  and  C_24
REMARK                            x       y       z     vdW  Elec       q    Type
REMARK                         _______ _______ _______ _____ _____    ______ ____
ROOT
ATOM     12  N   UNL     1      -3.947   1.570  24.200  0.00  0.00    -0.155 NA
ATOM     13  C   UNL     1      -4.313   0.838  24.366  0.00  0.00    +0.098 C 
ATOM     14  C   UNL     1      -3.513   0.260  24.418  0.00  0.00    +0.041 C 
ATOM     15  C   UNL     1      -2.966  -0.339  24.492  0.00  0.00    +0.011 C 
ATOM     16  C   UNL     1      -2.966   0.351  24.361  0.00  0.00    +0.058 C 
ATOM     17  C   UNL     1      -3.748   0.896  24.314  0.00  0.00    +0.102 C 
ATOM     18  C   UNL     1      -2.396   1.050  24.186  0.00  0.00    +0.058 A 
ATOM     19  C   UNL     1      -1.593   1.216  24.097  0.00  0.00    +0.103 A 
ATOM     30  C   UNL     1      -1.347   1.985  23.932  0.00  0.00    +0.024 A 
ATOM     31  C   UNL     1      -1.903   2.590  23.857  0.00  0.00    +0.062 A 
ATOM     32  C   UNL     1      -2.706   2.425  23.947  0.00  0.00    +0.261 A 
ATOM     33  O   UNL     1      -3.306   3.185  23.845  0.00  0.00    -0.267 OA
ATOM     34  N   UNL     1      -2.953   1.655  24.111  0.00  0.00    -0.298 N 
ATOM     35  C   UNL     1      -2.926   0.998  24.235  0.00  0.00    +0.110 C 
ENDROOT
BRANCH  12   9
ATOM      9  S   UNL     1      -4.010   2.404  24.045  0.00  0.00    +0.063 S 
ATOM     10  O   UNL     1      -3.710   3.144  23.622  0.00  0.00    -0.153 OA
ATOM     11  O   UNL     1      -3.302   2.305  23.499  0.00  0.00    -0.153 OA
BRANCH   9   6
ATOM      3  C   UNL     1      -5.902   2.167  25.799  0.00  0.00    +0.139 A 
ATOM      4  C   UNL     1      -6.050   1.809  24.968  0.00  0.00    +0.038 A 
ATOM      5  C   UNL     1      -5.503   1.899  24.522  0.00  0.00    +0.023 A 
ATOM      6  C   UNL     1      -4.740   2.291  24.661  0.00  0.00    +0.122 A 
ATOM      7  C   UNL     1      -4.671   2.591  25.426  0.00  0.00    +0.023 A 
ATOM      8  C   UNL     1      -5.291   2.500  25.963  0.00  0.00    +0.038 A 
BRANCH   3   2
ATOM      1  C   UNL     1      -6.827   1.692  27.222  0.00  0.00    +0.252 C 
ATOM      2  O   UNL     1      -6.391   2.243  26.642  0.00  0.00    -0.471 OA
ENDBRANCH   3   2
ENDBRANCH   9   6
ENDBRANCH  12   9
BRANCH  19  20
ATOM     20  N   UNL     1      -0.970   0.553  24.178  0.00  0.00    -0.095 NA
BRANCH  20  21
ATOM     21  S   UNL     1      -0.193   0.601  24.004  0.00  0.00    +0.093 S 
ATOM     22  O   UNL     1      -0.012   1.019  24.691  0.00  0.00    -0.148 OA
ATOM     23  O   UNL     1       0.146   0.194  23.164  0.00  0.00    -0.148 OA
BRANCH  21  24
ATOM     24  C   UNL     1       0.529   0.523  23.623  0.00  0.00    +0.127 A 
ATOM     25  C   UNL     1       1.203   0.999  23.632  0.00  0.00    +0.020 A 
ATOM     26  C   UNL     1       1.865   0.785  23.188  0.00  0.00    +0.001 A 
ATOM     27  C   UNL     1       1.853   0.095  22.736  0.00  0.00    +0.000 A 
ATOM     28  C   UNL     1       1.180  -0.381  22.727  0.00  0.00    +0.001 A 
ATOM     29  C   UNL     1       0.517  -0.167  23.171  0.00  0.00    +0.020 A 
ENDBRANCH  21  24
ENDBRANCH  20  21
ENDBRANCH  19  20
TORSDOF 6
ENDMDL
MODEL 7
REMARK VINA RESULT:     -10.5      2.494      4.168
REMARK  Name = 
REMARK  6 active torsions:
REMARK  status: ('A' for Active; 'I' for Inactive)
REMARK    1  A    between atoms: O_2  and  C_3
REMARK    2  A    between atoms: C_6  and  S_9
REMARK    3  A    between atoms: S_9  and  N_12
REMARK    4  A    between atoms: C_19  and  N_20
REMARK    5  A    between atoms: N_20  and  S_21
REMARK    6  A    between atoms: S_21  and  C_24
REMARK                            x       y       z     vdW  Elec       q    Type
REMARK                         _______ _______ _______ _____ _____    ______ ____
ROOT
ATOM     12  N   UNL     1      -0.976   2.051  23.914  0.00  0.00    -0.155 NA
ATOM     13  C   UNL     1      -1.087   1.768  23.136  0.00  0.00    +0.098 C 
ATOM     14  C   UNL     1      -2.050   1.961  23.025  0.00  0.00    +0.041 C 
ATOM     15  C   UNL     1      -2.821   2.052  22.779  0.00  0.00    +0.011 C 
ATOM     16  C   UNL     1      -2.440   2.187  23.353  0.00  0.00    +0.058 C 
ATOM     17  C   UNL     1      -1.509   1.995  23.445  0.00  0.00    +0.102 C 
ATOM     18  C   UNL     1      -2.510   2.540  24.198  0.00  0.00    +0.058 A 
ATOM     19  C   UNL     1      -3.065   2.879  24.707  0.00  0.00    +0.103 A 
ATOM     30  C   UNL     1      -2.837   3.123  25.461  0.00  0.00    +0.024 A 
ATOM     31  C   UNL     1      -2.055   3.028  25.707  0.00  0.00    +0.062 A 
ATOM     32  C   UNL     1      -1.501   2.690  25.199  0.00  0.00    +0.261 A 
ATOM     33  O   UNL     1      -0.598   2.610  25.554  0.00  0.00    -0.267 OA
ATOM     34  N   UNL     1      -1.728   2.446  24.444  0.00  0.00    -0.298 N 
ATOM     35  C   UNL     1      -2.114   2.328  23.910  0.00  0.00    +0.110 C 
ENDROOT
BRANCH  12   9
ATOM      9  S   UNL     1      -0.464   2.189  24.578  0.00  0.00    +0.063 S 
ATOM     10  O   UNL     1      -0.240   2.683  25.301  0.00  0.00    -0.153 OA
ATOM     11  O   UNL     1      -0.978   2.904  24.761  0.00  0.00    -0.153 OA
BRANCH   9   6
ATOM      3  C   UNL     1       0.725   0.142  23.525  0.00  0.00    +0.139 A 
ATOM      4  C   UNL     1       0.025  -0.023  24.094  0.00  0.00    +0.038 A 
ATOM      5  C   UNL     1      -0.268   0.569  24.357  0.00  0.00    +0.023 A 
ATOM      6  C   UNL     1      -0.055   1.399  24.213  0.00  0.00    +0.122 A 
ATOM      7  C   UNL     1       0.580   1.479  23.693  0.00  0.00    +0.023 A 
ATOM      8  C   UNL     1       0.939   0.808  23.373  0.00  0.00    +0.038 A 
BRANCH   3   2
ATOM      1  C   UNL     1       1.977  -0.238  22.345  0.00  0.00    +0.252 C 
ATOM      2  O   UNL     1       1.351  -0.384  22.990  0.00  0.00    -0.471 OA
ENDBRANCH   3   2
ENDBRANCH   9   6
ENDBRANCH  12   9
BRANCH  19  20
ATOM     20  N   UNL     1      -3.933   2.987  24.444  0.00  0.00    -0.095 NA
BRANCH  20  21
ATOM     21  S   UNL     1      -4.583   2.927  24.900  0.00  0.00    +0.093 S 
ATOM     22  O   UNL     1      -4.581   3.728  25.098  0.00  0.00    -0.148 OA
ATOM     23  O   UNL     1      -5.030   2.046  25.003  0.00  0.00    -0.148 OA
BRANCH  21  24
ATOM     24  C   UNL     1      -5.235   2.626  25.297  0.00  0.00    +0.127 A 
ATOM     25  C   UNL     1      -5.534   2.783  26.051  0.00  0.00    +0.020 A 
ATOM     26  C   UNL     1      -6.211   2.394  26.315  0.00  0.00    +0.001 A 
ATOM     27  C   UNL     1      -6.590   1.848  25.827  0.00  0.00    +0.000 A 
ATOM     28  C   UNL     1      -6.292   1.691  25.074  0.00  0.00    +0.001 A 
ATOM     29  C   UNL     1      -5.614   2.080  24.808  0.00  0.00    +0.020 A 
ENDBRANCH  21  24
ENDBRANCH  20  21
ENDBRANCH  19  20
TORSDOF 6
ENDMDL
MODEL 8
REMARK VINA RESULT:     -10.3      1.921      2.866
REMARK  Name = 
REMARK  6 active torsions:
REMARK  status: ('A' for Active; 'I' for Inactive)
REMARK    1  A    between atoms: O_2  and  C_3
REMARK    2  A    between atoms: C_6  and  S_9
REMARK    3  A    between atoms: S_9  and  N_12
REMARK    4  A    between atoms: C_19  and  N_20
REMARK    5  A    between atoms: N_20  and  S_21
REMARK    6  A    between atoms: S_21  and  C_24
REMARK                            x       y       z     vdW  Elec       q    Type
REMARK                         _______ _______ _______ _____ _____    ______ ____
ROOT
ATOM     12  N   UNL     1      -2.615   3.085  24.357  0.00  0.00    -0.155 NA
ATOM     13  C   UNL     1      -3.130   3.009  23.703  0.00  0.00    +0.098 C 
ATOM     14  C   UNL     1      -2.819   2.140  23.349  0.00  0.00    +0.041 C 
ATOM     15  C   UNL     1      -2.684   1.449  22.939  0.00  0.00    +0.011 C 
ATOM     16  C   UNL     1      -2.426   1.777  23.504  0.00  0.00    +0.058 C 
ATOM     17  C   UNL     1      -2.737   2.617  23.834  0.00  0.00    +0.102 C 
ATOM     18  C   UNL     1      -1.789   1.688  24.161  0.00  0.00    +0.058 A 
ATOM     19  C   UNL     1      -1.199   1.170  24.415  0.00  0.00    +0.103 A 
ATOM     30  C   UNL     1      -0.749   1.354  25.081  0.00  0.00    +0.024 A 
ATOM     31  C   UNL     1      -0.889   2.054  25.494  0.00  0.00    +0.062 A 
ATOM     32  C   UNL     1      -1.479   2.572  25.240  0.00  0.00    +0.261 A 
ATOM     33  O   UNL     1      -1.589   3.378  25.774  0.00  0.00    -0.267 OA
ATOM     34  N   UNL     1      -1.929   2.388  24.573  0.00  0.00    -0.298 N 
ATOM     35  C   UNL     1      -2.158   2.056  24.039  0.00  0.00    +0.110 C 
ENDROOT
BRANCH  12   9
ATOM      9  S   UNL     1      -2.345   3.529  25.029  0.00  0.00    +0.063 S 
ATOM     10  O   UNL     1      -1.665   3.844  25.535  0.00  0.00    -0.153 OA
ATOM     11  O   UNL     1      -1.510   3.320  24.768  0.00  0.00    -0.153 OA
BRANCH   9   6
ATOM      3  C   UNL     1      -4.900   3.729  25.409  0.00  0.00    +0.139 A 
ATOM      4  C   UNL     1      -4.540   4.193  24.704  0.00  0.00    +0.038 A 
ATOM      5  C   UNL     1      -3.837   4.107  24.641  0.00  0.00    +0.023 A 
ATOM      6  C   UNL     1      -3.296   3.634  25.130  0.00  0.00    +0.122 A 
ATOM      7  C   UNL     1      -3.681   3.243  25.745  0.00  0.00    +0.023 A 
ATOM      8  C   UNL     1      -4.496   3.326  25.840  0.00  0.00    +0.038 A 
BRANCH   3   2
ATOM      1  C   UNL     1      -6.410   2.941  25.856  0.00  0.00    +0.252 C 
ATOM      2  O   UNL     1      -5.785   3.600  25.802  0.00  0.00    -0.471 OA
ENDBRANCH   3   2
ENDBRANCH   9   6
ENDBRANCH  12   9
BRANCH  19  20
ATOM     20  N   UNL     1      -1.037   0.392  23.964  0.00  0.00    -0.095 NA
BRANCH  20  21
ATOM     21  S   UNL     1      -0.808  -0.304  24.277  0.00  0.00    +0.093 S 
ATOM     22  O   UNL     1      -0.005  -0.131  24.208  0.00  0.00    -0.148 OA
ATOM     23  O   UNL     1      -1.496  -0.962  24.564  0.00  0.00    -0.148 OA
BRANCH  21  24
ATOM     24  C   UNL     1      -0.821  -1.054  24.611  0.00  0.00    +0.127 A 
ATOM     25  C   UNL     1      -0.385  -1.381  25.232  0.00  0.00    +0.020 A 
ATOM     26  C   UNL     1      -0.514  -2.164  25.458  0.00  0.00    +0.001 A 
ATOM     27  C   UNL     1      -1.077  -2.620  25.064  0.00  0.00    +0.000 A 
ATOM     28  C   UNL     1      -1.513  -2.293  24.445  0.00  0.00    +0.001 A 
ATOM     29  C   UNL     1      -1.385  -1.510  24.218  0.00  0.00    +0.020 A 
ENDBRANCH  21  24
ENDBRANCH  20  21
ENDBRANCH  19  20
TORSDOF 6
ENDMDL
