MODEL 1
REMARK VINA RESULT:     -11.3      0.000      0.000
REMARK  Name = 
REMARK  5 active torsions:
REMARK  status: ('A' for Active; 'I' for Inactive)
REMARK    1  A    between atoms: C_4  and  O_5
REMARK    2  A    between atoms: O_5  and  C_6
REMARK    3  A    between atoms: C_13  and  C_15
REMARK    4  A    between atoms: C_15  and  O_16
REMARK    5  A    between atoms: O_16  and  C_17
REMARK                            x       y       z     vdW  Elec       q    Type
REMARK                         _______ _______ _______ _____ _____    ______ ____
ROOT
ATOM      6  C   UNL     1      -3.398   2.951  24.624  0.00  0.00    +0.217 C 
ATOM      7  C   UNL     1      -3.613   3.736  24.757  0.00  0.00    +0.187 C 
ATOM      8  O   UNL     1      -4.309   4.032  25.085  0.00  0.00    -0.348 OA
ATOM      9  C   UNL     1      -4.964   3.614  25.362  0.00  0.00    +0.164 C 
ATOM     10  C   UNL     1      -5.085   2.798  25.380  0.00  0.00    +0.126 C 
ATOM     11  N   UNL     1      -4.579   2.198  25.124  0.00  0.00    -0.270 N 
ATOM     12  C   UNL     1      -3.829   2.266  24.788  0.00  0.00    +0.140 C 
ATOM     13  C   UNL     1      -4.861   1.428  25.217  0.00  0.00    +0.270 C 
ATOM     14  O   UNL     1      -5.606   1.299  25.549  0.00  0.00    -0.271 OA
ENDROOT
BRANCH   6   5
ATOM      5  O   UNL     1      -2.656   2.834  24.283  0.00  0.00    -0.460 OA
BRANCH   5   4
ATOM      1  C   UNL     1      -0.571   1.662  25.847  0.00  0.00    +0.052 C 
ATOM      2  C   UNL     1      -0.933   2.329  25.523  0.00  0.00    +0.062 A 
ATOM      3  N   UNL     1      -1.614   2.249  25.065  0.00  0.00    -0.216 NA
ATOM      4  C   UNL     1      -1.975   2.915  24.742  0.00  0.00    +0.225 A 
ATOM     23  C   UNL     1      -1.656   3.664  24.877  0.00  0.00    +0.058 A 
ATOM     24  C   UNL     1      -0.974   3.745  25.335  0.00  0.00    +0.006 A 
ATOM     25  C   UNL     1      -0.613   3.079  25.658  0.00  0.00    +0.015 A 
ENDBRANCH   5   4
ENDBRANCH   6   5
BRANCH  13  15
ATOM     15  C   UNL     1      -4.398   0.788  24.979  0.00  0.00    +0.290 C 
BRANCH  15  16
ATOM     16  O   UNL     1      -4.615   0.021  25.192  0.00  0.00    -0.466 OA
BRANCH  16  17
ATOM     17  C   UNL     1      -4.138  -0.617  24.978  0.00  0.00    +0.139 A 
ATOM     18  C   UNL     1      -3.549  -0.883  25.491  0.00  0.00    +0.037 A 
ATOM     19  C   UNL     1      -3.072  -1.521  25.277  0.00  0.00    +0.003 A 
ATOM     20  C   UNL     1      -3.183  -1.893  24.550  0.00  0.00    +0.000 A 
ATOM     21  C   UNL     1      -3.772  -1.627  24.036  0.00  0.00    +0.003 A 
ATOM     22  C   UNL     1      -4.249  -0.989  24.251  0.00  0.00    +0.037 A 
ENDBRANCH  16  17
ENDBRANCH  15  16
ENDBRANCH  13  15
TORSDOF 5
ENDMDL
MODEL 2
REMARK VINA RESULT:     -11.1      1.065      4.053
REMARK  Name = 
REMARK  5 active torsions:
REMARK  status: ('A' for Active; 'I' for Inactive)
REMARK    1  A    between atoms: C_4  and  O_5
REMARK    2  A    between atoms: O_5  and  C_6
REMARK    3  A    between atoms: C_13  and  C_15
REMARK    4  A    between atoms: C_15  and  O_16
REMARK    5  A    between atoms: O_16  and  C_17
REMARK                            x       y       z     vdW  Elec       q    Type
REMARK                         _______ _______ _______ _____ _____    ______ ____
ROOT
ATOM      6  C   UNL     1      -4.483   1.472  24.623  0.00  0.00    +0.217 C 
ATOM      7  C   UNL     1      -5.249   1.174  24.673  0.00  0.00    +0.187 C 
ATOM      8  O   UNL     1      -5.906   1.501  25.049  0.00  0.00    -0.348 OA
ATOM      9  C   UNL     1      -5.957   2.210  25.469  0.00  0.00    +0.164 C 
ATOM     10  C   UNL     1      -5.365   2.765  25.617  0.00  0.00    +0.126 C 
ATOM     11  N   UNL     1      -4.575   2.748  25.380  0.00  0.00    -0.270 N 
ATOM     12  C   UNL     1      -4.182   2.174  24.938  0.00  0.00    +0.140 C 
ATOM     13  C   UNL     1      -4.117   3.393  25.616  0.00  0.00    +0.270 C 
ATOM     14  O   UNL     1      -4.457   3.999  26.061  0.00  0.00    -0.271 OA
ENDROOT
BRANCH   6   5
ATOM      5  O   UNL     1      -3.944   1.010  24.203  0.00  0.00    -0.460 OA
BRANCH   5   4
ATOM      1  C   UNL     1      -2.257  -0.685  25.768  0.00  0.00    +0.052 C 
ATOM      2  C   UNL     1      -2.901  -0.589  25.261  0.00  0.00    +0.062 A 
ATOM      3  N   UNL     1      -3.101   0.162  24.985  0.00  0.00    -0.216 NA
ATOM      4  C   UNL     1      -3.744   0.258  24.479  0.00  0.00    +0.225 A 
ATOM     23  C   UNL     1      -4.188  -0.398  24.247  0.00  0.00    +0.058 A 
ATOM     24  C   UNL     1      -3.988  -1.150  24.523  0.00  0.00    +0.006 A 
ATOM     25  C   UNL     1      -3.345  -1.245  25.029  0.00  0.00    +0.015 A 
ENDBRANCH   5   4
ENDBRANCH   6   5
BRANCH  13  15
ATOM     15  C   UNL     1      -3.320   3.431  25.409  0.00  0.00    +0.290 C 
BRANCH  15  16
ATOM     16  O   UNL     1      -2.811   3.939  25.814  0.00  0.00    -0.466 OA
BRANCH  16  17
ATOM     17  C   UNL     1      -2.046   4.066  25.534  0.00  0.00    +0.139 A 
ATOM     18  C   UNL     1      -1.486   3.461  25.574  0.00  0.00    +0.037 A 
ATOM     19  C   UNL     1      -0.720   3.588  25.294  0.00  0.00    +0.003 A 
ATOM     20  C   UNL     1      -0.515   4.320  24.975  0.00  0.00    +0.000 A 
ATOM     21  C   UNL     1      -1.075   4.925  24.935  0.00  0.00    +0.003 A 
ATOM     22  C   UNL     1      -1.840   4.798  25.215  0.00  0.00    +0.037 A 
ENDBRANCH  16  17
ENDBRANCH  15  16
ENDBRANCH  13  15
TORSDOF 5
ENDMDL
MODEL 3
REMARK VINA RESULT:     -10.9      1.632      4.467
REMARK  Name = 
REMARK  5 active torsions:
REMARK  status: ('A' for Active; 'I' for Inactive)
REMARK    1  A    between atoms: C_4  and  O_5
REMARK    2  A    between atoms: O_5  and  C_6
REMARK    3  A    between atoms: C_13  and  C_15
REMARK    4  A    between atoms: C_15  and  O_16
REMARK    5  A    between atoms: O_16  and  C_17
REMARK                            x       y       z     vdW  Elec       q    Type
REMARK                         _______ _______ _______ _____ _____    ______ ____
ROOT
ATOM      6  C   UNL     1      -1.625  -0.058  24.949  0.00  0.00    +0.217 C 
ATOM      7  C   UNL     1      -0.884  -0.350  24.738  0.00  0.00    +0.187 C 
ATOM      8  O   UNL     1      -0.289   0.021  24.305  0.00  0.00    -0.348 OA
ATOM      9  C   UNL     1      -0.289   0.777  23.974  0.00  0.00    +0.164 C 
ATOM     10  C   UNL     1      -0.883   1.348  23.996  0.00  0.00    +0.126 C 
ATOM     11  N   UNL     1      -1.626   1.304  24.354  0.00  0.00    -0.270 N 
ATOM     12  C   UNL     1      -1.956   0.678  24.778  0.00  0.00    +0.140 C 
ATOM     13  C   UNL     1      -2.100   1.974  24.277  0.00  0.00    +0.270 C 
ATOM     14  O   UNL     1      -1.822   2.632  23.863  0.00  0.00    -0.271 OA
ENDROOT
BRANCH   6   5
ATOM      5  O   UNL     1      -2.100  -0.569  25.389  0.00  0.00    -0.460 OA
BRANCH   5   4
ATOM      1  C   UNL     1      -4.351  -1.647  23.996  0.00  0.00    +0.052 C 
ATOM      2  C   UNL     1      -3.599  -1.744  24.323  0.00  0.00    +0.062 A 
ATOM      3  N   UNL     1      -3.225  -1.109  24.693  0.00  0.00    -0.216 NA
ATOM      4  C   UNL     1      -2.475  -1.205  25.019  0.00  0.00    +0.225 A 
ATOM     23  C   UNL     1      -2.097  -1.937  24.977  0.00  0.00    +0.058 A 
ATOM     24  C   UNL     1      -2.471  -2.573  24.606  0.00  0.00    +0.006 A 
ATOM     25  C   UNL     1      -3.222  -2.477  24.280  0.00  0.00    +0.015 A 
ENDBRANCH   5   4
ENDBRANCH   6   5
BRANCH  13  15
ATOM     15  C   UNL     1      -2.853   1.988  24.615  0.00  0.00    +0.290 C 
BRANCH  15  16
ATOM     16  O   UNL     1      -3.383   2.588  24.417  0.00  0.00    -0.466 OA
BRANCH  16  17
ATOM     17  C   UNL     1      -4.135   2.603  24.755  0.00  0.00    +0.139 A 
ATOM     18  C   UNL     1      -4.303   3.133  25.365  0.00  0.00    +0.037 A 
ATOM     19  C   UNL     1      -5.055   3.147  25.704  0.00  0.00    +0.003 A 
ATOM     20  C   UNL     1      -5.639   2.632  25.434  0.00  0.00    +0.000 A 
ATOM     21  C   UNL     1      -5.471   2.102  24.824  0.00  0.00    +0.003 A 
ATOM     22  C   UNL     1      -4.719   2.087  24.485  0.00  0.00    +0.037 A 
ENDBRANCH  16  17
ENDBRANCH  15  16
ENDBRANCH  13  15
TORSDOF 5
ENDMDL
MODEL 4
REMARK VINA RESULT:     -10.9      1.215      2.938
REMARK  Name = 
REMARK  5 active torsions:
REMARK  status: ('A' for Active; 'I' for Inactive)
REMARK    1  A    between atoms: C_4  and  O_5
REMARK    2  A    between atoms: O_5  and  C_6
REMARK    3  A    between atoms: C_13  and  C_15
REMARK    4  A    between atoms: C_15  and  O_16
REMARK    5  A    between atoms: O_16  and  C_17
REMARK                            x       y       z     vdW  Elec       q    Type
REMARK                         _______ _______ _______ _____ _____    ______ ____
ROOT
ATOM      6  C   UNL     1      -2.456   2.150  24.640  0.00  0.00    +0.217 C 
ATOM      7  C   UNL     1      -1.977   2.789  24.845  0.00  0.00    +0.187 C 
ATOM      8  O   UNL     1      -1.264   2.786  25.259  0.00  0.00    -0.348 OA
ATOM      9  C   UNL     1      -0.854   2.142  25.573  0.00  0.00    +0.164 C 
ATOM     10  C   UNL     1      -1.056   1.342  25.548  0.00  0.00    +0.126 C 
ATOM     11  N   UNL     1      -1.717   0.989  25.204  0.00  0.00    -0.270 N 
ATOM     12  C   UNL     1      -2.340   1.349  24.800  0.00  0.00    +0.140 C 
ATOM     13  C   UNL     1      -1.762   0.168  25.273  0.00  0.00    +0.270 C 
ATOM     14  O   UNL     1      -1.166  -0.245  25.668  0.00  0.00    -0.271 OA
ENDROOT
BRANCH   6   5
ATOM      5  O   UNL     1      -3.141   2.335  24.220  0.00  0.00    -0.460 OA
BRANCH   5   4
ATOM      1  C   UNL     1      -5.722   1.940  25.382  0.00  0.00    +0.052 C 
ATOM      2  C   UNL     1      -5.090   2.437  25.198  0.00  0.00    +0.062 A 
ATOM      3  N   UNL     1      -4.431   2.138  24.801  0.00  0.00    -0.216 NA
ATOM      4  C   UNL     1      -3.800   2.635  24.617  0.00  0.00    +0.225 A 
ATOM     23  C   UNL     1      -3.825   3.431  24.830  0.00  0.00    +0.058 A 
ATOM     24  C   UNL     1      -4.484   3.731  25.228  0.00  0.00    +0.006 A 
ATOM     25  C   UNL     1      -5.115   3.234  25.411  0.00  0.00    +0.015 A 
ENDBRANCH   5   4
ENDBRANCH   6   5
BRANCH  13  15
ATOM     15  C   UNL     1      -2.401  -0.239  24.948  0.00  0.00    +0.290 C 
BRANCH  15  16
ATOM     16  O   UNL     1      -2.606  -0.984  25.237  0.00  0.00    -0.466 OA
BRANCH  16  17
ATOM     17  C   UNL     1      -3.120  -1.466  24.809  0.00  0.00    +0.139 A 
ATOM     18  C   UNL     1      -3.794  -1.142  24.459  0.00  0.00    +0.037 A 
ATOM     19  C   UNL     1      -4.309  -1.624  24.031  0.00  0.00    +0.003 A 
ATOM     20  C   UNL     1      -4.150  -2.430  23.952  0.00  0.00    +0.000 A 
ATOM     21  C   UNL     1      -3.476  -2.753  24.302  0.00  0.00    +0.003 A 
ATOM     22  C   UNL     1      -2.962  -2.271  24.731  0.00  0.00    +0.037 A 
ENDBRANCH  16  17
ENDBRANCH  15  16
ENDBRANCH  13  15
TORSDOF 5
ENDMDL
MODEL 5
REMARK VINA RESULT:      -8.1     15.950     18.467
REMARK  Name = 
REMARK  5 active torsions:
REMARK  status: ('A' for Active; 'I' for Inactive)
REMARK    1  A    between atoms: C_4  and  O_5
REMARK    2  A    between atoms: O_5  and  C_6
REMARK    3  A    between atoms: C_13  and  C_15
REMARK    4  A    between atoms: C_15  and  O_16
REMARK    5  A    between atoms: O_16  and  C_17
REMARK                            x       y       z     vdW  Elec       q    Type
REMARK                         _______ _______ _______ _____ _____    ______ ____
ROOT
ATOM      6  C   UNL     1      11.957   8.257  19.788  0.00  0.00    +0.217 C 
ATOM      7  C   UNL     1      11.233   8.481  19.465  0.00  0.00    +0.187 C 
ATOM      8  O   UNL     1      11.018   8.536  18.671  0.00  0.00    -0.348 OA
ATOM      9  C   UNL     1      11.477   8.381  18.003  0.00  0.00    +0.164 C 
ATOM     10  C   UNL     1      12.262   8.133  17.964  0.00  0.00    +0.126 C 
ATOM     11  N   UNL     1      12.783   7.978  18.584  0.00  0.00    -0.270 N 
ATOM     12  C   UNL     1      12.648   8.033  19.396  0.00  0.00    +0.140 C 
ATOM     13  C   UNL     1      13.541   7.736  18.364  0.00  0.00    +0.270 C 
ATOM     14  O   UNL     1      13.734   7.663  17.564  0.00  0.00    -0.271 OA
ENDROOT
BRANCH   6   5
ATOM      5  O   UNL     1      11.998   8.257  20.612  0.00  0.00    -0.460 OA
BRANCH   5   4
ATOM      1  C   UNL     1      11.318   5.658  21.588  0.00  0.00    +0.052 C 
ATOM      2  C   UNL     1      11.160   6.466  21.537  0.00  0.00    +0.062 A 
ATOM      3  N   UNL     1      11.658   6.958  21.100  0.00  0.00    -0.216 NA
ATOM      4  C   UNL     1      11.500   7.765  21.050  0.00  0.00    +0.225 A 
ATOM     23  C   UNL     1      10.843   8.082  21.435  0.00  0.00    +0.058 A 
ATOM     24  C   UNL     1      10.345   7.590  21.873  0.00  0.00    +0.006 A 
ATOM     25  C   UNL     1      10.503   6.783  21.924  0.00  0.00    +0.015 A 
ENDBRANCH   5   4
ENDBRANCH   6   5
BRANCH  13  15
ATOM     15  C   UNL     1      14.104   7.567  18.941  0.00  0.00    +0.290 C 
BRANCH  15  16
ATOM     16  O   UNL     1      14.876   7.374  18.721  0.00  0.00    -0.466 OA
BRANCH  16  17
ATOM     17  C   UNL     1      15.443   7.217  19.299  0.00  0.00    +0.139 A 
ATOM     18  C   UNL     1      15.877   7.836  19.629  0.00  0.00    +0.037 A 
ATOM     19  C   UNL     1      16.445   7.680  20.208  0.00  0.00    +0.003 A 
ATOM     20  C   UNL     1      16.578   6.905  20.455  0.00  0.00    +0.000 A 
ATOM     21  C   UNL     1      16.144   6.286  20.125  0.00  0.00    +0.003 A 
ATOM     22  C   UNL     1      15.577   6.442  19.547  0.00  0.00    +0.037 A 
ENDBRANCH  16  17
ENDBRANCH  15  16
ENDBRANCH  13  15
TORSDOF 5
ENDMDL
MODEL 6
REMARK VINA RESULT:      -8.0     16.109     18.514
REMARK  Name = 
REMARK  5 active torsions:
REMARK  status: ('A' for Active; 'I' for Inactive)
REMARK    1  A    between atoms: C_4  and  O_5
REMARK    2  A    between atoms: O_5  and  C_6
REMARK    3  A    between atoms: C_13  and  C_15
REMARK    4  A    between atoms: C_15  and  O_16
REMARK    5  A    between atoms: O_16  and  C_17
REMARK                            x       y       z     vdW  Elec       q    Type
REMARK                         _______ _______ _______ _____ _____    ______ ____
ROOT
ATOM      6  C   UNL     1      13.900   8.352  18.799  0.00  0.00    +0.217 C 
ATOM      7  C   UNL     1      14.268   8.321  18.062  0.00  0.00    +0.187 C 
ATOM      8  O   UNL     1      13.921   8.289  17.314  0.00  0.00    -0.348 OA
ATOM      9  C   UNL     1      13.120   8.281  17.119  0.00  0.00    +0.164 C 
ATOM     10  C   UNL     1      12.467   8.302  17.623  0.00  0.00    +0.126 C 
ATOM     11  N   UNL     1      12.455   8.337  18.447  0.00  0.00    -0.270 N 
ATOM     12  C   UNL     1      13.092   8.359  18.970  0.00  0.00    +0.140 C 
ATOM     13  C   UNL     1      11.707   8.352  18.794  0.00  0.00    +0.270 C 
ATOM     14  O   UNL     1      11.032   8.332  18.319  0.00  0.00    -0.271 OA
ENDROOT
BRANCH   6   5
ATOM      5  O   UNL     1      14.404   8.379  19.451  0.00  0.00    -0.460 OA
BRANCH   5   4
ATOM      1  C   UNL     1      16.533   6.478  19.309  0.00  0.00    +0.052 C 
ATOM      2  C   UNL     1      15.829   6.738  19.651  0.00  0.00    +0.062 A 
ATOM      3  N   UNL     1      15.468   7.429  19.380  0.00  0.00    -0.216 NA
ATOM      4  C   UNL     1      14.765   7.688  19.722  0.00  0.00    +0.225 A 
ATOM     23  C   UNL     1      14.420   7.257  20.336  0.00  0.00    +0.058 A 
ATOM     24  C   UNL     1      14.781   6.566  20.607  0.00  0.00    +0.006 A 
ATOM     25  C   UNL     1      15.485   6.307  20.265  0.00  0.00    +0.015 A 
ENDBRANCH   5   4
ENDBRANCH   6   5
BRANCH  13  15
ATOM     15  C   UNL     1      11.633   8.386  19.615  0.00  0.00    +0.290 C 
BRANCH  15  16
ATOM     16  O   UNL     1      10.896   8.276  19.968  0.00  0.00    -0.466 OA
BRANCH  16  17
ATOM     17  C   UNL     1      10.831   8.253  20.790  0.00  0.00    +0.139 A 
ATOM     18  C   UNL     1      10.820   8.955  21.223  0.00  0.00    +0.037 A 
ATOM     19  C   UNL     1      10.756   8.933  22.045  0.00  0.00    +0.003 A 
ATOM     20  C   UNL     1      10.702   8.208  22.434  0.00  0.00    +0.000 A 
ATOM     21  C   UNL     1      10.712   7.505  22.001  0.00  0.00    +0.003 A 
ATOM     22  C   UNL     1      10.777   7.528  21.180  0.00  0.00    +0.037 A 
ENDBRANCH  16  17
ENDBRANCH  15  16
ENDBRANCH  13  15
TORSDOF 5
ENDMDL
MODEL 7
REMARK VINA RESULT:      -7.5     17.013     19.097
REMARK  Name = 
REMARK  5 active torsions:
REMARK  status: ('A' for Active; 'I' for Inactive)
REMARK    1  A    between atoms: C_4  and  O_5
REMARK    2  A    between atoms: O_5  and  C_6
REMARK    3  A    between atoms: C_13  and  C_15
REMARK    4  A    between atoms: C_15  and  O_16
REMARK    5  A    between atoms: O_16  and  C_17
REMARK                            x       y       z     vdW  Elec       q    Type
REMARK                         _______ _______ _______ _____ _____    ______ ____
ROOT
ATOM      6  C   UNL     1      12.467   7.179  19.726  0.00  0.00    +0.217 C 
ATOM      7  C   UNL     1      11.720   7.406  19.990  0.00  0.00    +0.187 C 
ATOM      8  O   UNL     1      11.493   7.651  20.744  0.00  0.00    -0.348 OA
ATOM      9  C   UNL     1      11.958   7.731  21.421  0.00  0.00    +0.164 C 
ATOM     10  C   UNL     1      12.765   7.585  21.511  0.00  0.00    +0.126 C 
ATOM     11  N   UNL     1      13.306   7.323  20.946  0.00  0.00    -0.270 N 
ATOM     12  C   UNL     1      13.174   7.142  20.152  0.00  0.00    +0.140 C 
ATOM     13  C   UNL     1      14.082   7.228  21.210  0.00  0.00    +0.270 C 
ATOM     14  O   UNL     1      14.273   7.394  21.996  0.00  0.00    -0.271 OA
ENDROOT
BRANCH   6   5
ATOM      5  O   UNL     1      12.517   6.961  18.933  0.00  0.00    -0.460 OA
BRANCH   5   4
ATOM      1  C   UNL     1      11.044   8.549  17.068  0.00  0.00    +0.052 C 
ATOM      2  C   UNL     1      11.762   8.333  17.412  0.00  0.00    +0.062 A 
ATOM      3  N   UNL     1      11.781   7.755  18.000  0.00  0.00    -0.216 NA
ATOM      4  C   UNL     1      12.498   7.540  18.344  0.00  0.00    +0.225 A 
ATOM     23  C   UNL     1      13.199   7.901  18.100  0.00  0.00    +0.058 A 
ATOM     24  C   UNL     1      13.180   8.480  17.512  0.00  0.00    +0.006 A 
ATOM     25  C   UNL     1      12.463   8.696  17.168  0.00  0.00    +0.015 A 
ENDBRANCH   5   4
ENDBRANCH   6   5
BRANCH  13  15
ATOM     15  C   UNL     1      14.666   6.969  20.689  0.00  0.00    +0.290 C 
BRANCH  15  16
ATOM     16  O   UNL     1      15.378   6.673  20.982  0.00  0.00    -0.466 OA
BRANCH  16  17
ATOM     17  C   UNL     1      16.028   6.590  20.481  0.00  0.00    +0.139 A 
ATOM     18  C   UNL     1      15.955   6.166  19.777  0.00  0.00    +0.037 A 
ATOM     19  C   UNL     1      16.605   6.083  19.275  0.00  0.00    +0.003 A 
ATOM     20  C   UNL     1      17.328   6.424  19.478  0.00  0.00    +0.000 A 
ATOM     21  C   UNL     1      17.401   6.848  20.182  0.00  0.00    +0.003 A 
ATOM     22  C   UNL     1      16.751   6.931  20.683  0.00  0.00    +0.037 A 
ENDBRANCH  16  17
ENDBRANCH  15  16
ENDBRANCH  13  15
TORSDOF 5
ENDMDL
