MODEL 1
REMARK VINA RESULT:      -9.2      0.000      0.000
REMARK  Name = 
REMARK  11 active torsions:
REMARK  status: ('A' for Active; 'I' for Inactive)
REMARK    1  A    between atoms: O_2  and  C_3
REMARK    2  A    between atoms: C_8  and  C_9
REMARK    3  A    between atoms: C_9  and  N_10
REMARK    4  A    between atoms: N_10  and  C_11
REMARK    5  A    between atoms: N_10  and  C_20
REMARK    6  A    between atoms: C_11  and  C_12
REMARK    7  A    between atoms: C_13  and  O_14
REMARK    8  A    between atoms: C_20  and  C_21
REMARK    9  A    between atoms: C_21  and  C_22
REMARK   10  A    between atoms: C_25  and  C_26
REMARK   11  A    between atoms: C_26  and  C_27
REMARK                            x       y       z     vdW  Elec       q    Type
REMARK                         _______ _______ _______ _____ _____    ______ ____
ROOT
ATOM     10  N   UNL     1      -2.594   0.673  24.389  0.00  0.00    -0.263 NA
ENDROOT
BRANCH  10  20
ATOM     20  C   UNL     1      -3.099   1.225  24.039  0.00  0.00    +0.106 C 
ATOM     30  C   UNL     1      -2.838   0.989  23.292  0.00  0.00    +0.160 C 
ATOM     31  O   UNL     1      -3.343   1.541  22.943  0.00  0.00    -0.351 OA
ATOM     32  C   UNL     1      -3.602   1.776  23.689  0.00  0.00    +0.160 C 
BRANCH  20  21
ATOM     21  C   UNL     1      -3.358   1.461  24.786  0.00  0.00    +0.069 C 
BRANCH  21  22
ATOM     22  C   UNL     1      -4.019   1.950  24.857  0.00  0.00    +0.102 A 
ATOM     23  N   UNL     1      -4.790   1.756  24.640  0.00  0.00    -0.082 NA
ATOM     24  O   UNL     1      -5.272   2.406  24.807  0.00  0.00    -0.358 OA
ATOM     25  C   UNL     1      -4.797   3.000  25.127  0.00  0.00    +0.157 A 
ATOM     29  C   UNL     1      -4.023   2.718  25.157  0.00  0.00    +0.054 A 
BRANCH  25  26
ATOM     26  C   UNL     1      -5.052   3.745  25.372  0.00  0.00    +0.103 C 
BRANCH  26  27
ATOM     27  C   UNL     1      -5.812   3.841  25.677  0.00  0.00    +0.190 C 
ATOM     28  O   UNL     1      -6.131   4.598  25.760  0.00  0.00    -0.220 OA
ENDBRANCH  26  27
ENDBRANCH  25  26
ENDBRANCH  21  22
ENDBRANCH  20  21
ENDBRANCH  10  20
BRANCH  10   9
ATOM      9  C   UNL     1      -2.690  -0.131  24.230  0.00  0.00    +0.102 C 
BRANCH   9   8
ATOM      3  C   UNL     1      -3.349  -1.330  24.642  0.00  0.00    +0.136 A 
ATOM      4  C   UNL     1      -3.590  -1.842  25.241  0.00  0.00    +0.037 A 
ATOM      5  C   UNL     1      -3.414  -1.669  26.028  0.00  0.00    +0.003 A 
ATOM      6  C   UNL     1      -2.997  -0.983  26.216  0.00  0.00    -0.000 A 
ATOM      7  C   UNL     1      -2.754  -0.470  25.617  0.00  0.00    +0.000 A 
ATOM      8  C   UNL     1      -2.931  -0.644  24.830  0.00  0.00    +0.028 A 
BRANCH   3   2
ATOM      1  C   UNL     1      -4.018  -2.139  23.674  0.00  0.00    +0.252 C 
ATOM      2  O   UNL     1      -3.525  -1.503  23.855  0.00  0.00    -0.472 OA
ENDBRANCH   3   2
ENDBRANCH   9   8
ENDBRANCH  10   9
BRANCH  10  11
ATOM     11  C   UNL     1      -1.995   0.925  24.897  0.00  0.00    +0.102 C 
BRANCH  11  12
ATOM     12  C   UNL     1      -1.218   0.979  24.624  0.00  0.00    +0.028 A 
ATOM     13  C   UNL     1      -0.665   1.424  25.044  0.00  0.00    +0.136 A 
ATOM     16  C   UNL     1       0.113   1.478  24.772  0.00  0.00    +0.037 A 
ATOM     17  C   UNL     1       0.335   1.087  24.080  0.00  0.00    +0.003 A 
ATOM     18  C   UNL     1      -0.219   0.641  23.661  0.00  0.00    -0.000 A 
ATOM     19  C   UNL     1      -0.995   0.588  23.933  0.00  0.00    +0.000 A 
BRANCH  13  14
ATOM     14  O   UNL     1      -0.887   1.815  25.735  0.00  0.00    -0.472 OA
ATOM     15  C   UNL     1      -0.340   2.280  26.141  0.00  0.00    +0.252 C 
ENDBRANCH  13  14
ENDBRANCH  11  12
ENDBRANCH  10  11
TORSDOF 11
ENDMDL
MODEL 2
REMARK VINA RESULT:      -9.2      0.007      3.138
REMARK  Name = 
REMARK  11 active torsions:
REMARK  status: ('A' for Active; 'I' for Inactive)
REMARK    1  A    between atoms: O_2  and  C_3
REMARK    2  A    between atoms: C_8  and  C_9
REMARK    3  A    between atoms: C_9  and  N_10
REMARK    4  A    between atoms: N_10  and  C_11
REMARK    5  A    between atoms: N_10  and  C_20
REMARK    6  A    between atoms: C_11  and  C_12
REMARK    7  A    between atoms: C_13  and  O_14
REMARK    8  A    between atoms: C_20  and  C_21
REMARK    9  A    between atoms: C_21  and  C_22
REMARK   10  A    between atoms: C_25  and  C_26
REMARK   11  A    between atoms: C_26  and  C_27
REMARK                            x       y       z     vdW  Elec       q    Type
REMARK                         _______ _______ _______ _____ _____    ______ ____
ROOT
ATOM     10  N   UNL     1      -2.599   0.673  24.392  0.00  0.00    -0.263 NA
ENDROOT
BRANCH  10  20
ATOM     20  C   UNL     1      -3.102   1.226  24.042  0.00  0.00    +0.106 C 
ATOM     30  C   UNL     1      -2.841   0.990  23.296  0.00  0.00    +0.160 C 
ATOM     31  O   UNL     1      -3.344   1.543  22.946  0.00  0.00    -0.351 OA
ATOM     32  C   UNL     1      -3.605   1.778  23.692  0.00  0.00    +0.160 C 
BRANCH  20  21
ATOM     21  C   UNL     1      -3.363   1.461  24.789  0.00  0.00    +0.069 C 
BRANCH  21  22
ATOM     22  C   UNL     1      -4.023   1.951  24.859  0.00  0.00    +0.102 A 
ATOM     23  N   UNL     1      -4.795   1.758  24.643  0.00  0.00    -0.082 NA
ATOM     24  O   UNL     1      -5.276   2.408  24.808  0.00  0.00    -0.358 OA
ATOM     25  C   UNL     1      -4.800   3.003  25.127  0.00  0.00    +0.157 A 
ATOM     29  C   UNL     1      -4.026   2.719  25.159  0.00  0.00    +0.054 A 
BRANCH  25  26
ATOM     26  C   UNL     1      -5.054   3.748  25.372  0.00  0.00    +0.103 C 
BRANCH  26  27
ATOM     27  C   UNL     1      -5.812   3.844  25.683  0.00  0.00    +0.190 C 
ATOM     28  O   UNL     1      -6.135   4.600  25.757  0.00  0.00    -0.220 OA
ENDBRANCH  26  27
ENDBRANCH  25  26
ENDBRANCH  21  22
ENDBRANCH  20  21
ENDBRANCH  10  20
BRANCH  10   9
ATOM      9  C   UNL     1      -2.001   0.925  24.902  0.00  0.00    +0.102 C 
BRANCH   9   8
ATOM      3  C   UNL     1      -0.670   1.425  25.049  0.00  0.00    +0.136 A 
ATOM      4  C   UNL     1       0.106   1.478  24.778  0.00  0.00    +0.037 A 
ATOM      5  C   UNL     1       0.331   1.085  24.089  0.00  0.00    +0.003 A 
ATOM      6  C   UNL     1      -0.222   0.637  23.670  0.00  0.00    -0.000 A 
ATOM      7  C   UNL     1      -0.999   0.584  23.941  0.00  0.00    +0.000 A 
ATOM      8  C   UNL     1      -1.223   0.978  24.630  0.00  0.00    +0.028 A 
BRANCH   3   2
ATOM      1  C   UNL     1      -0.351   2.292  26.138  0.00  0.00    +0.252 C 
ATOM      2  O   UNL     1      -0.895   1.819  25.738  0.00  0.00    -0.472 OA
ENDBRANCH   3   2
ENDBRANCH   9   8
ENDBRANCH  10   9
BRANCH  10  11
ATOM     11  C   UNL     1      -2.694  -0.131  24.232  0.00  0.00    +0.102 C 
BRANCH  11  12
ATOM     12  C   UNL     1      -2.934  -0.645  24.831  0.00  0.00    +0.028 A 
ATOM     13  C   UNL     1      -3.348  -1.333  24.642  0.00  0.00    +0.136 A 
ATOM     16  C   UNL     1      -3.588  -1.848  25.240  0.00  0.00    +0.037 A 
ATOM     17  C   UNL     1      -3.414  -1.674  26.027  0.00  0.00    +0.003 A 
ATOM     18  C   UNL     1      -2.999  -0.986  26.217  0.00  0.00    -0.000 A 
ATOM     19  C   UNL     1      -2.760  -0.472  25.618  0.00  0.00    +0.000 A 
BRANCH  13  14
ATOM     14  O   UNL     1      -3.522  -1.506  23.854  0.00  0.00    -0.472 OA
ATOM     15  C   UNL     1      -4.017  -2.141  23.671  0.00  0.00    +0.252 C 
ENDBRANCH  13  14
ENDBRANCH  11  12
ENDBRANCH  10  11
TORSDOF 11
ENDMDL
MODEL 3
REMARK VINA RESULT:      -9.1      1.168      4.418
REMARK  Name = 
REMARK  11 active torsions:
REMARK  status: ('A' for Active; 'I' for Inactive)
REMARK    1  A    between atoms: O_2  and  C_3
REMARK    2  A    between atoms: C_8  and  C_9
REMARK    3  A    between atoms: C_9  and  N_10
REMARK    4  A    between atoms: N_10  and  C_11
REMARK    5  A    between atoms: N_10  and  C_20
REMARK    6  A    between atoms: C_11  and  C_12
REMARK    7  A    between atoms: C_13  and  O_14
REMARK    8  A    between atoms: C_20  and  C_21
REMARK    9  A    between atoms: C_21  and  C_22
REMARK   10  A    between atoms: C_25  and  C_26
REMARK   11  A    between atoms: C_26  and  C_27
REMARK                            x       y       z     vdW  Elec       q    Type
REMARK                         _______ _______ _______ _____ _____    ______ ____
ROOT
ATOM     10  N   UNL     1      -3.386   1.008  24.385  0.00  0.00    -0.263 NA
ENDROOT
BRANCH  10  20
ATOM     20  C   UNL     1      -2.831   1.228  23.814  0.00  0.00    +0.106 C 
ATOM     30  C   UNL     1      -3.424   1.236  23.241  0.00  0.00    +0.160 C 
ATOM     31  O   UNL     1      -2.869   1.455  22.671  0.00  0.00    -0.351 OA
ATOM     32  C   UNL     1      -2.277   1.447  23.244  0.00  0.00    +0.160 C 
BRANCH  20  21
ATOM     21  C   UNL     1      -2.238   1.220  24.389  0.00  0.00    +0.069 C 
BRANCH  21  22
ATOM     22  C   UNL     1      -1.450   1.329  24.169  0.00  0.00    +0.102 A 
ATOM     23  N   UNL     1      -1.101   2.045  23.959  0.00  0.00    -0.082 NA
ATOM     24  O   UNL     1      -0.308   1.899  23.781  0.00  0.00    -0.358 OA
ATOM     25  C   UNL     1      -0.169   1.092  23.880  0.00  0.00    +0.157 A 
ATOM     29  C   UNL     1      -0.875   0.740  24.120  0.00  0.00    +0.054 A 
BRANCH  25  26
ATOM     26  C   UNL     1       0.550   0.705  23.761  0.00  0.00    +0.103 C 
BRANCH  26  27
ATOM     27  C   UNL     1       0.621   0.142  23.163  0.00  0.00    +0.190 C 
ATOM     28  O   UNL     1       1.368  -0.091  22.901  0.00  0.00    -0.220 OA
ENDBRANCH  26  27
ENDBRANCH  25  26
ENDBRANCH  21  22
ENDBRANCH  20  21
ENDBRANCH  10  20
BRANCH  10   9
ATOM      9  C   UNL     1      -3.530   1.501  25.031  0.00  0.00    +0.102 C 
BRANCH   9   8
ATOM      3  C   UNL     1      -4.252   2.649  25.478  0.00  0.00    +0.136 A 
ATOM      4  C   UNL     1      -4.954   3.080  25.520  0.00  0.00    +0.037 A 
ATOM      5  C   UNL     1      -5.637   2.792  25.157  0.00  0.00    +0.003 A 
ATOM      6  C   UNL     1      -5.617   2.074  24.752  0.00  0.00    -0.000 A 
ATOM      7  C   UNL     1      -4.915   1.643  24.709  0.00  0.00    +0.000 A 
ATOM      8  C   UNL     1      -4.233   1.931  25.073  0.00  0.00    +0.028 A 
BRANCH   3   2
ATOM      1  C   UNL     1      -3.563   3.696  26.164  0.00  0.00    +0.252 C 
ATOM      2  O   UNL     1      -3.569   2.937  25.841  0.00  0.00    -0.472 OA
ENDBRANCH   3   2
ENDBRANCH   9   8
ENDBRANCH  10   9
BRANCH  10  11
ATOM     11  C   UNL     1      -3.797   0.297  24.308  0.00  0.00    +0.102 C 
BRANCH  11  12
ATOM     12  C   UNL     1      -3.631  -0.332  24.816  0.00  0.00    +0.028 A 
ATOM     13  C   UNL     1      -3.826  -1.102  24.594  0.00  0.00    +0.136 A 
ATOM     16  C   UNL     1      -3.660  -1.732  25.102  0.00  0.00    +0.037 A 
ATOM     17  C   UNL     1      -3.299  -1.590  25.830  0.00  0.00    +0.003 A 
ATOM     18  C   UNL     1      -3.104  -0.819  26.051  0.00  0.00    -0.000 A 
ATOM     19  C   UNL     1      -3.270  -0.191  25.544  0.00  0.00    +0.000 A 
BRANCH  13  14
ATOM     14  O   UNL     1      -4.187  -1.244  23.867  0.00  0.00    -0.472 OA
ATOM     15  C   UNL     1      -4.381  -2.014  23.645  0.00  0.00    +0.252 C 
ENDBRANCH  13  14
ENDBRANCH  11  12
ENDBRANCH  10  11
TORSDOF 11
ENDMDL
MODEL 4
REMARK VINA RESULT:      -9.1      1.168      3.771
REMARK  Name = 
REMARK  11 active torsions:
REMARK  status: ('A' for Active; 'I' for Inactive)
REMARK    1  A    between atoms: O_2  and  C_3
REMARK    2  A    between atoms: C_8  and  C_9
REMARK    3  A    between atoms: C_9  and  N_10
REMARK    4  A    between atoms: N_10  and  C_11
REMARK    5  A    between atoms: N_10  and  C_20
REMARK    6  A    between atoms: C_11  and  C_12
REMARK    7  A    between atoms: C_13  and  O_14
REMARK    8  A    between atoms: C_20  and  C_21
REMARK    9  A    between atoms: C_21  and  C_22
REMARK   10  A    between atoms: C_25  and  C_26
REMARK   11  A    between atoms: C_26  and  C_27
REMARK                            x       y       z     vdW  Elec       q    Type
REMARK                         _______ _______ _______ _____ _____    ______ ____
ROOT
ATOM     10  N   UNL     1      -3.385   1.008  24.384  0.00  0.00    -0.263 NA
ENDROOT
BRANCH  10  20
ATOM     20  C   UNL     1      -2.830   1.229  23.813  0.00  0.00    +0.106 C 
ATOM     30  C   UNL     1      -3.424   1.238  23.240  0.00  0.00    +0.160 C 
ATOM     31  O   UNL     1      -2.869   1.458  22.671  0.00  0.00    -0.351 OA
ATOM     32  C   UNL     1      -2.276   1.449  23.244  0.00  0.00    +0.160 C 
BRANCH  20  21
ATOM     21  C   UNL     1      -2.238   1.219  24.387  0.00  0.00    +0.069 C 
BRANCH  21  22
ATOM     22  C   UNL     1      -1.450   1.328  24.168  0.00  0.00    +0.102 A 
ATOM     23  N   UNL     1      -1.100   2.045  23.957  0.00  0.00    -0.082 NA
ATOM     24  O   UNL     1      -0.308   1.899  23.779  0.00  0.00    -0.358 OA
ATOM     25  C   UNL     1      -0.168   1.092  23.880  0.00  0.00    +0.157 A 
ATOM     29  C   UNL     1      -0.874   0.740  24.120  0.00  0.00    +0.054 A 
BRANCH  25  26
ATOM     26  C   UNL     1       0.551   0.706  23.761  0.00  0.00    +0.103 C 
BRANCH  26  27
ATOM     27  C   UNL     1       0.623   0.144  23.162  0.00  0.00    +0.190 C 
ATOM     28  O   UNL     1       1.371  -0.091  22.904  0.00  0.00    -0.220 OA
ENDBRANCH  26  27
ENDBRANCH  25  26
ENDBRANCH  21  22
ENDBRANCH  20  21
ENDBRANCH  10  20
BRANCH  10   9
ATOM      9  C   UNL     1      -3.796   0.296  24.306  0.00  0.00    +0.102 C 
BRANCH   9   8
ATOM      3  C   UNL     1      -3.826  -1.103  24.595  0.00  0.00    +0.136 A 
ATOM      4  C   UNL     1      -3.660  -1.731  25.103  0.00  0.00    +0.037 A 
ATOM      5  C   UNL     1      -3.299  -1.589  25.831  0.00  0.00    +0.003 A 
ATOM      6  C   UNL     1      -3.104  -0.818  26.051  0.00  0.00    -0.000 A 
ATOM      7  C   UNL     1      -3.269  -0.189  25.544  0.00  0.00    +0.000 A 
ATOM      8  C   UNL     1      -3.630  -0.332  24.815  0.00  0.00    +0.028 A 
BRANCH   3   2
ATOM      1  C   UNL     1      -4.379  -2.016  23.647  0.00  0.00    +0.252 C 
ATOM      2  O   UNL     1      -4.186  -1.244  23.867  0.00  0.00    -0.472 OA
ENDBRANCH   3   2
ENDBRANCH   9   8
ENDBRANCH  10   9
BRANCH  10  11
ATOM     11  C   UNL     1      -3.529   1.500  25.031  0.00  0.00    +0.102 C 
BRANCH  11  12
ATOM     12  C   UNL     1      -4.232   1.930  25.074  0.00  0.00    +0.028 A 
ATOM     13  C   UNL     1      -4.251   2.647  25.482  0.00  0.00    +0.136 A 
ATOM     16  C   UNL     1      -4.954   3.078  25.525  0.00  0.00    +0.037 A 
ATOM     17  C   UNL     1      -5.636   2.791  25.160  0.00  0.00    +0.003 A 
ATOM     18  C   UNL     1      -5.617   2.074  24.752  0.00  0.00    -0.000 A 
ATOM     19  C   UNL     1      -4.914   1.644  24.709  0.00  0.00    +0.000 A 
BRANCH  13  14
ATOM     14  O   UNL     1      -3.569   2.933  25.846  0.00  0.00    -0.472 OA
ATOM     15  C   UNL     1      -3.560   3.694  26.165  0.00  0.00    +0.252 C 
ENDBRANCH  13  14
ENDBRANCH  11  12
ENDBRANCH  10  11
TORSDOF 11
ENDMDL
MODEL 5
REMARK VINA RESULT:      -9.0      1.033      3.509
REMARK  Name = 
REMARK  11 active torsions:
REMARK  status: ('A' for Active; 'I' for Inactive)
REMARK    1  A    between atoms: O_2  and  C_3
REMARK    2  A    between atoms: C_8  and  C_9
REMARK    3  A    between atoms: C_9  and  N_10
REMARK    4  A    between atoms: N_10  and  C_11
REMARK    5  A    between atoms: N_10  and  C_20
REMARK    6  A    between atoms: C_11  and  C_12
REMARK    7  A    between atoms: C_13  and  O_14
REMARK    8  A    between atoms: C_20  and  C_21
REMARK    9  A    between atoms: C_21  and  C_22
REMARK   10  A    between atoms: C_25  and  C_26
REMARK   11  A    between atoms: C_26  and  C_27
REMARK                            x       y       z     vdW  Elec       q    Type
REMARK                         _______ _______ _______ _____ _____    ______ ____
ROOT
ATOM     10  N   UNL     1      -3.596   0.791  24.509  0.00  0.00    -0.263 NA
ENDROOT
BRANCH  10  20
ATOM     20  C   UNL     1      -2.973   1.081  24.051  0.00  0.00    +0.106 C 
ATOM     30  C   UNL     1      -3.465   1.087  23.388  0.00  0.00    +0.160 C 
ATOM     31  O   UNL     1      -2.842   1.376  22.930  0.00  0.00    -0.351 OA
ATOM     32  C   UNL     1      -2.351   1.370  23.593  0.00  0.00    +0.160 C 
BRANCH  20  21
ATOM     21  C   UNL     1      -2.482   1.074  24.714  0.00  0.00    +0.069 C 
BRANCH  21  22
ATOM     22  C   UNL     1      -1.687   1.282  24.640  0.00  0.00    +0.102 A 
ATOM     23  N   UNL     1      -1.174   1.032  24.045  0.00  0.00    -0.082 NA
ATOM     24  O   UNL     1      -0.436   1.373  24.186  0.00  0.00    -0.358 OA
ATOM     25  C   UNL     1      -0.493   1.833  24.868  0.00  0.00    +0.157 A 
ATOM     29  C   UNL     1      -1.267   1.777  25.149  0.00  0.00    +0.054 A 
BRANCH  25  26
ATOM     26  C   UNL     1       0.116   2.272  25.210  0.00  0.00    +0.103 C 
BRANCH  26  27
ATOM     27  C   UNL     1       0.088   2.459  26.013  0.00  0.00    +0.190 C 
ATOM     28  O   UNL     1       0.765   2.736  26.396  0.00  0.00    -0.220 OA
ENDBRANCH  26  27
ENDBRANCH  25  26
ENDBRANCH  21  22
ENDBRANCH  20  21
ENDBRANCH  10  20
BRANCH  10   9
ATOM      9  C   UNL     1      -3.920   0.050  24.344  0.00  0.00    +0.102 C 
BRANCH   9   8
ATOM      3  C   UNL     1      -3.831  -1.362  24.540  0.00  0.00    +0.136 A 
ATOM      4  C   UNL     1      -3.653  -2.006  25.023  0.00  0.00    +0.037 A 
ATOM      5  C   UNL     1      -3.384  -1.883  25.793  0.00  0.00    +0.003 A 
ATOM      6  C   UNL     1      -3.294  -1.115  26.081  0.00  0.00    -0.000 A 
ATOM      7  C   UNL     1      -3.473  -0.470  25.598  0.00  0.00    +0.000 A 
ATOM      8  C   UNL     1      -3.741  -0.594  24.828  0.00  0.00    +0.028 A 
BRANCH   3   2
ATOM      1  C   UNL     1      -4.316  -2.243  23.525  0.00  0.00    +0.252 C 
ATOM      2  O   UNL     1      -4.099  -1.485  23.769  0.00  0.00    -0.472 OA
ENDBRANCH   3   2
ENDBRANCH   9   8
ENDBRANCH  10   9
BRANCH  10  11
ATOM     11  C   UNL     1      -3.894   1.243  25.132  0.00  0.00    +0.102 C 
BRANCH  11  12
ATOM     12  C   UNL     1      -4.648   1.575  25.077  0.00  0.00    +0.028 A 
ATOM     13  C   UNL     1      -4.810   2.291  25.452  0.00  0.00    +0.136 A 
ATOM     16  C   UNL     1      -5.564   2.623  25.398  0.00  0.00    +0.037 A 
ATOM     17  C   UNL     1      -6.154   2.238  24.968  0.00  0.00    +0.003 A 
ATOM     18  C   UNL     1      -5.991   1.521  24.594  0.00  0.00    -0.000 A 
ATOM     19  C   UNL     1      -5.237   1.190  24.648  0.00  0.00    +0.000 A 
BRANCH  13  14
ATOM     14  O   UNL     1      -4.220   2.676  25.881  0.00  0.00    -0.472 OA
ATOM     15  C   UNL     1      -4.348   3.440  26.164  0.00  0.00    +0.252 C 
ENDBRANCH  13  14
ENDBRANCH  11  12
ENDBRANCH  10  11
TORSDOF 11
ENDMDL
MODEL 6
REMARK VINA RESULT:      -9.0      1.034      4.101
REMARK  Name = 
REMARK  11 active torsions:
REMARK  status: ('A' for Active; 'I' for Inactive)
REMARK    1  A    between atoms: O_2  and  C_3
REMARK    2  A    between atoms: C_8  and  C_9
REMARK    3  A    between atoms: C_9  and  N_10
REMARK    4  A    between atoms: N_10  and  C_11
REMARK    5  A    between atoms: N_10  and  C_20
REMARK    6  A    between atoms: C_11  and  C_12
REMARK    7  A    between atoms: C_13  and  O_14
REMARK    8  A    between atoms: C_20  and  C_21
REMARK    9  A    between atoms: C_21  and  C_22
REMARK   10  A    between atoms: C_25  and  C_26
REMARK   11  A    between atoms: C_26  and  C_27
REMARK                            x       y       z     vdW  Elec       q    Type
REMARK                         _______ _______ _______ _____ _____    ______ ____
ROOT
ATOM     10  N   UNL     1      -3.583   0.790  24.513  0.00  0.00    -0.263 NA
ENDROOT
BRANCH  10  20
ATOM     20  C   UNL     1      -2.956   1.074  24.056  0.00  0.00    +0.106 C 
ATOM     30  C   UNL     1      -3.451   1.102  23.396  0.00  0.00    +0.160 C 
ATOM     31  O   UNL     1      -2.825   1.386  22.940  0.00  0.00    -0.351 OA
ATOM     32  C   UNL     1      -2.331   1.358  23.599  0.00  0.00    +0.160 C 
BRANCH  20  21
ATOM     21  C   UNL     1      -2.462   1.046  24.716  0.00  0.00    +0.069 C 
BRANCH  21  22
ATOM     22  C   UNL     1      -1.672   1.272  24.649  0.00  0.00    +0.102 A 
ATOM     23  N   UNL     1      -1.143   1.020  24.068  0.00  0.00    -0.082 NA
ATOM     24  O   UNL     1      -0.416   1.382  24.211  0.00  0.00    -0.358 OA
ATOM     25  C   UNL     1      -0.495   1.858  24.881  0.00  0.00    +0.157 A 
ATOM     29  C   UNL     1      -1.271   1.789  25.151  0.00  0.00    +0.054 A 
BRANCH  25  26
ATOM     26  C   UNL     1       0.098   2.320  25.221  0.00  0.00    +0.103 C 
BRANCH  26  27
ATOM     27  C   UNL     1       0.090   2.470  26.032  0.00  0.00    +0.190 C 
ATOM     28  O   UNL     1       0.777   2.722  26.412  0.00  0.00    -0.220 OA
ENDBRANCH  26  27
ENDBRANCH  25  26
ENDBRANCH  21  22
ENDBRANCH  20  21
ENDBRANCH  10  20
BRANCH  10   9
ATOM      9  C   UNL     1      -3.880   1.246  25.134  0.00  0.00    +0.102 C 
BRANCH   9   8
ATOM      3  C   UNL     1      -4.795   2.296  25.451  0.00  0.00    +0.136 A 
ATOM      4  C   UNL     1      -5.547   2.629  25.394  0.00  0.00    +0.037 A 
ATOM      5  C   UNL     1      -6.137   2.246  24.963  0.00  0.00    +0.003 A 
ATOM      6  C   UNL     1      -5.975   1.528  24.588  0.00  0.00    -0.000 A 
ATOM      7  C   UNL     1      -5.222   1.194  24.645  0.00  0.00    +0.000 A 
ATOM      8  C   UNL     1      -4.633   1.578  25.076  0.00  0.00    +0.028 A 
BRANCH   3   2
ATOM      1  C   UNL     1      -4.333   3.443  26.166  0.00  0.00    +0.252 C 
ATOM      2  O   UNL     1      -4.205   2.679  25.881  0.00  0.00    -0.472 OA
ENDBRANCH   3   2
ENDBRANCH   9   8
ENDBRANCH  10   9
BRANCH  10  11
ATOM     11  C   UNL     1      -3.911   0.051  24.348  0.00  0.00    +0.102 C 
BRANCH  11  12
ATOM     12  C   UNL     1      -3.736  -0.595  24.831  0.00  0.00    +0.028 A 
ATOM     13  C   UNL     1      -3.828  -1.362  24.542  0.00  0.00    +0.136 A 
ATOM     16  C   UNL     1      -3.653  -2.008  25.024  0.00  0.00    +0.037 A 
ATOM     17  C   UNL     1      -3.387  -1.886  25.796  0.00  0.00    +0.003 A 
ATOM     18  C   UNL     1      -3.295  -1.119  26.085  0.00  0.00    -0.000 A 
ATOM     19  C   UNL     1      -3.470  -0.473  25.602  0.00  0.00    +0.000 A 
BRANCH  13  14
ATOM     14  O   UNL     1      -4.093  -1.483  23.771  0.00  0.00    -0.472 OA
ATOM     15  C   UNL     1      -4.324  -2.237  23.528  0.00  0.00    +0.252 C 
ENDBRANCH  13  14
ENDBRANCH  11  12
ENDBRANCH  10  11
TORSDOF 11
ENDMDL
MODEL 7
REMARK VINA RESULT:      -8.9      1.422      4.129
REMARK  Name = 
REMARK  11 active torsions:
REMARK  status: ('A' for Active; 'I' for Inactive)
REMARK    1  A    between atoms: O_2  and  C_3
REMARK    2  A    between atoms: C_8  and  C_9
REMARK    3  A    between atoms: C_9  and  N_10
REMARK    4  A    between atoms: N_10  and  C_11
REMARK    5  A    between atoms: N_10  and  C_20
REMARK    6  A    between atoms: C_11  and  C_12
REMARK    7  A    between atoms: C_13  and  O_14
REMARK    8  A    between atoms: C_20  and  C_21
REMARK    9  A    between atoms: C_21  and  C_22
REMARK   10  A    between atoms: C_25  and  C_26
REMARK   11  A    between atoms: C_26  and  C_27
REMARK                            x       y       z     vdW  Elec       q    Type
REMARK                         _______ _______ _______ _____ _____    ______ ____
ROOT
ATOM     10  N   UNL     1      -2.199   0.787  24.794  0.00  0.00    -0.263 NA
ENDROOT
BRANCH  10  20
ATOM     20  C   UNL     1      -1.389   0.872  24.929  0.00  0.00    +0.106 C 
ATOM     30  C   UNL     1      -1.545   1.139  25.694  0.00  0.00    +0.160 C 
ATOM     31  O   UNL     1      -0.735   1.224  25.828  0.00  0.00    -0.351 OA
ATOM     32  C   UNL     1      -0.580   0.957  25.064  0.00  0.00    +0.160 C 
BRANCH  20  21
ATOM     21  C   UNL     1      -1.233   0.605  24.164  0.00  0.00    +0.069 C 
BRANCH  21  22
ATOM     22  C   UNL     1      -0.465   0.637  23.864  0.00  0.00    +0.102 A 
ATOM     23  N   UNL     1       0.037   1.290  23.888  0.00  0.00    -0.082 NA
ATOM     24  O   UNL     1       0.748   1.078  23.527  0.00  0.00    -0.358 OA
ATOM     25  C   UNL     1       0.685   0.293  23.280  0.00  0.00    +0.157 A 
ATOM     29  C   UNL     1      -0.065   0.021  23.489  0.00  0.00    +0.054 A 
BRANCH  25  26
ATOM     26  C   UNL     1       1.269  -0.143  22.893  0.00  0.00    +0.103 C 
BRANCH  26  27
ATOM     27  C   UNL     1       1.999   0.202  22.728  0.00  0.00    +0.190 C 
ATOM     28  O   UNL     1       2.516  -0.161  22.197  0.00  0.00    -0.220 OA
ENDBRANCH  26  27
ENDBRANCH  25  26
ENDBRANCH  21  22
ENDBRANCH  20  21
ENDBRANCH  10  20
BRANCH  10   9
ATOM      9  C   UNL     1      -2.489   0.095  24.449  0.00  0.00    +0.102 C 
BRANCH   9   8
ATOM      3  C   UNL     1      -3.351  -1.039  24.561  0.00  0.00    +0.136 A 
ATOM      4  C   UNL     1      -3.736  -1.600  25.026  0.00  0.00    +0.037 A 
ATOM      5  C   UNL     1      -3.645  -1.590  25.846  0.00  0.00    +0.003 A 
ATOM      6  C   UNL     1      -3.168  -1.018  26.201  0.00  0.00    -0.000 A 
ATOM      7  C   UNL     1      -2.782  -0.456  25.736  0.00  0.00    +0.000 A 
ATOM      8  C   UNL     1      -2.874  -0.467  24.916  0.00  0.00    +0.028 A 
BRANCH   3   2
ATOM      1  C   UNL     1      -3.961  -1.587  23.391  0.00  0.00    +0.252 C 
ATOM      2  O   UNL     1      -3.443  -1.049  23.741  0.00  0.00    -0.472 OA
ENDBRANCH   3   2
ENDBRANCH   9   8
ENDBRANCH  10   9
BRANCH  10  11
ATOM     11  C   UNL     1      -2.718   1.393  25.003  0.00  0.00    +0.102 C 
BRANCH  11  12
ATOM     12  C   UNL     1      -3.077   1.849  24.416  0.00  0.00    +0.028 A 
ATOM     13  C   UNL     1      -3.681   2.374  24.616  0.00  0.00    +0.136 A 
ATOM     16  C   UNL     1      -4.041   2.831  24.030  0.00  0.00    +0.037 A 
ATOM     17  C   UNL     1      -3.795   2.761  23.245  0.00  0.00    +0.003 A 
ATOM     18  C   UNL     1      -3.191   2.237  23.046  0.00  0.00    -0.000 A 
ATOM     19  C   UNL     1      -2.832   1.781  23.632  0.00  0.00    +0.000 A 
BRANCH  13  14
ATOM     14  O   UNL     1      -3.927   2.443  25.400  0.00  0.00    -0.472 OA
ATOM     15  C   UNL     1      -4.548   2.949  25.595  0.00  0.00    +0.252 C 
ENDBRANCH  13  14
ENDBRANCH  11  12
ENDBRANCH  10  11
TORSDOF 11
ENDMDL
MODEL 8
REMARK VINA RESULT:      -8.9      1.429      4.829
REMARK  Name = 
REMARK  11 active torsions:
REMARK  status: ('A' for Active; 'I' for Inactive)
REMARK    1  A    between atoms: O_2  and  C_3
REMARK    2  A    between atoms: C_8  and  C_9
REMARK    3  A    between atoms: C_9  and  N_10
REMARK    4  A    between atoms: N_10  and  C_11
REMARK    5  A    between atoms: N_10  and  C_20
REMARK    6  A    between atoms: C_11  and  C_12
REMARK    7  A    between atoms: C_13  and  O_14
REMARK    8  A    between atoms: C_20  and  C_21
REMARK    9  A    between atoms: C_21  and  C_22
REMARK   10  A    between atoms: C_25  and  C_26
REMARK   11  A    between atoms: C_26  and  C_27
REMARK                            x       y       z     vdW  Elec       q    Type
REMARK                         _______ _______ _______ _____ _____    ______ ____
ROOT
ATOM     10  N   UNL     1      -2.181   0.801  24.796  0.00  0.00    -0.263 NA
ENDROOT
BRANCH  10  20
ATOM     20  C   UNL     1      -1.370   0.885  24.927  0.00  0.00    +0.106 C 
ATOM     30  C   UNL     1      -1.523   1.166  25.688  0.00  0.00    +0.160 C 
ATOM     31  O   UNL     1      -0.713   1.251  25.818  0.00  0.00    -0.351 OA
ATOM     32  C   UNL     1      -0.560   0.970  25.058  0.00  0.00    +0.160 C 
BRANCH  20  21
ATOM     21  C   UNL     1      -1.218   0.604  24.166  0.00  0.00    +0.069 C 
BRANCH  21  22
ATOM     22  C   UNL     1      -0.452   0.635  23.861  0.00  0.00    +0.102 A 
ATOM     23  N   UNL     1       0.048   1.291  23.872  0.00  0.00    -0.082 NA
ATOM     24  O   UNL     1       0.757   1.077  23.510  0.00  0.00    -0.358 OA
ATOM     25  C   UNL     1       0.696   0.289  23.274  0.00  0.00    +0.157 A 
ATOM     29  C   UNL     1      -0.052   0.016  23.492  0.00  0.00    +0.054 A 
BRANCH  25  26
ATOM     26  C   UNL     1       1.279  -0.150  22.889  0.00  0.00    +0.103 C 
BRANCH  26  27
ATOM     27  C   UNL     1       2.011   0.192  22.724  0.00  0.00    +0.190 C 
ATOM     28  O   UNL     1       2.531  -0.178  22.202  0.00  0.00    -0.220 OA
ENDBRANCH  26  27
ENDBRANCH  25  26
ENDBRANCH  21  22
ENDBRANCH  20  21
ENDBRANCH  10  20
BRANCH  10   9
ATOM      9  C   UNL     1      -2.698   1.411  25.000  0.00  0.00    +0.102 C 
BRANCH   9   8
ATOM      3  C   UNL     1      -3.666   2.384  24.604  0.00  0.00    +0.136 A 
ATOM      4  C   UNL     1      -4.029   2.831  24.014  0.00  0.00    +0.037 A 
ATOM      5  C   UNL     1      -3.788   2.753  23.230  0.00  0.00    +0.003 A 
ATOM      6  C   UNL     1      -3.182   2.228  23.035  0.00  0.00    -0.000 A 
ATOM      7  C   UNL     1      -2.818   1.780  23.624  0.00  0.00    +0.000 A 
ATOM      8  C   UNL     1      -3.061   1.858  24.409  0.00  0.00    +0.028 A 
BRANCH   3   2
ATOM      1  C   UNL     1      -4.528   2.971  25.581  0.00  0.00    +0.252 C 
ATOM      2  O   UNL     1      -3.908   2.461  25.389  0.00  0.00    -0.472 OA
ENDBRANCH   3   2
ENDBRANCH   9   8
ENDBRANCH  10   9
BRANCH  10  11
ATOM     11  C   UNL     1      -2.474   0.106  24.460  0.00  0.00    +0.102 C 
BRANCH  11  12
ATOM     12  C   UNL     1      -2.852  -0.453  24.934  0.00  0.00    +0.028 A 
ATOM     13  C   UNL     1      -3.329  -1.031  24.588  0.00  0.00    +0.136 A 
ATOM     16  C   UNL     1      -3.708  -1.591  25.061  0.00  0.00    +0.037 A 
ATOM     17  C   UNL     1      -3.610  -1.572  25.880  0.00  0.00    +0.003 A 
ATOM     18  C   UNL     1      -3.133  -0.994  26.226  0.00  0.00    -0.000 A 
ATOM     19  C   UNL     1      -2.755  -0.435  25.752  0.00  0.00    +0.000 A 
BRANCH  13  14
ATOM     14  O   UNL     1      -3.426  -1.050  23.769  0.00  0.00    -0.472 OA
ATOM     15  C   UNL     1      -3.954  -1.584  23.428  0.00  0.00    +0.252 C 
ENDBRANCH  13  14
ENDBRANCH  11  12
ENDBRANCH  10  11
TORSDOF 11
ENDMDL
MODEL 9
REMARK VINA RESULT:      -8.8      1.472      3.107
REMARK  Name = 
REMARK  11 active torsions:
REMARK  status: ('A' for Active; 'I' for Inactive)
REMARK    1  A    between atoms: O_2  and  C_3
REMARK    2  A    between atoms: C_8  and  C_9
REMARK    3  A    between atoms: C_9  and  N_10
REMARK    4  A    between atoms: N_10  and  C_11
REMARK    5  A    between atoms: N_10  and  C_20
REMARK    6  A    between atoms: C_11  and  C_12
REMARK    7  A    between atoms: C_13  and  O_14
REMARK    8  A    between atoms: C_20  and  C_21
REMARK    9  A    between atoms: C_21  and  C_22
REMARK   10  A    between atoms: C_25  and  C_26
REMARK   11  A    between atoms: C_26  and  C_27
REMARK                            x       y       z     vdW  Elec       q    Type
REMARK                         _______ _______ _______ _____ _____    ______ ____
ROOT
ATOM     10  N   UNL     1      -1.848   1.432  24.239  0.00  0.00    -0.263 NA
ENDROOT
BRANCH  10  20
ATOM     20  C   UNL     1      -2.606   1.485  23.916  0.00  0.00    +0.106 C 
ATOM     30  C   UNL     1      -2.279   1.550  23.162  0.00  0.00    +0.160 C 
ATOM     31  O   UNL     1      -3.037   1.602  22.840  0.00  0.00    -0.351 OA
ATOM     32  C   UNL     1      -3.363   1.537  23.594  0.00  0.00    +0.160 C 
BRANCH  20  21
ATOM     21  C   UNL     1      -2.932   1.419  24.672  0.00  0.00    +0.069 C 
BRANCH  21  22
ATOM     22  C   UNL     1      -3.750   1.457  24.772  0.00  0.00    +0.102 A 
ATOM     23  N   UNL     1      -4.280   0.834  24.668  0.00  0.00    -0.082 NA
ATOM     24  O   UNL     1      -5.039   1.116  24.826  0.00  0.00    -0.358 OA
ATOM     25  C   UNL     1      -4.978   1.914  25.028  0.00  0.00    +0.157 A 
ATOM     29  C   UNL     1      -4.180   2.124  24.995  0.00  0.00    +0.054 A 
BRANCH  25  26
ATOM     26  C   UNL     1      -5.603   2.414  25.228  0.00  0.00    +0.103 C 
BRANCH  26  27
ATOM     27  C   UNL     1      -5.496   2.998  25.801  0.00  0.00    +0.190 C 
ATOM     28  O   UNL     1      -6.019   3.634  25.843  0.00  0.00    -0.220 OA
ENDBRANCH  26  27
ENDBRANCH  25  26
ENDBRANCH  21  22
ENDBRANCH  20  21
ENDBRANCH  10  20
BRANCH  10   9
ATOM      9  C   UNL     1      -1.657   1.865  24.915  0.00  0.00    +0.102 C 
BRANCH   9   8
ATOM      3  C   UNL     1      -0.778   2.818  25.516  0.00  0.00    +0.136 A 
ATOM      4  C   UNL     1      -0.303   3.490  25.454  0.00  0.00    +0.037 A 
ATOM      5  C   UNL     1      -0.232   3.881  24.731  0.00  0.00    +0.003 A 
ATOM      6  C   UNL     1      -0.637   3.600  24.069  0.00  0.00    -0.000 A 
ATOM      7  C   UNL     1      -1.112   2.928  24.130  0.00  0.00    +0.000 A 
ATOM      8  C   UNL     1      -1.182   2.537  24.853  0.00  0.00    +0.028 A 
BRANCH   3   2
ATOM      1  C   UNL     1      -0.303   2.572  26.840  0.00  0.00    +0.252 C 
ATOM      2  O   UNL     1      -0.848   2.427  26.239  0.00  0.00    -0.472 OA
ENDBRANCH   3   2
ENDBRANCH   9   8
ENDBRANCH  10   9
BRANCH  10  11
ATOM     11  C   UNL     1      -1.282   0.947  23.886  0.00  0.00    +0.102 C 
BRANCH  11  12
ATOM     12  C   UNL     1      -1.050   0.247  24.255  0.00  0.00    +0.028 A 
ATOM     13  C   UNL     1      -0.368  -0.144  24.005  0.00  0.00    +0.136 A 
ATOM     16  C   UNL     1      -0.136  -0.845  24.374  0.00  0.00    +0.037 A 
ATOM     17  C   UNL     1      -0.586  -1.154  24.993  0.00  0.00    +0.003 A 
ATOM     18  C   UNL     1      -1.268  -0.763  25.242  0.00  0.00    -0.000 A 
ATOM     19  C   UNL     1      -1.500  -0.062  24.873  0.00  0.00    +0.000 A 
BRANCH  13  14
ATOM     14  O   UNL     1       0.082   0.164  23.387  0.00  0.00    -0.472 OA
ATOM     15  C   UNL     1       0.796  -0.192  23.178  0.00  0.00    +0.252 C 
ENDBRANCH  13  14
ENDBRANCH  11  12
ENDBRANCH  10  11
TORSDOF 11
ENDMDL
MODEL 10
REMARK VINA RESULT:      -8.7      1.461      2.064
REMARK  Name = 
REMARK  11 active torsions:
REMARK  status: ('A' for Active; 'I' for Inactive)
REMARK    1  A    between atoms: O_2  and  C_3
REMARK    2  A    between atoms: C_8  and  C_9
REMARK    3  A    between atoms: C_9  and  N_10
REMARK    4  A    between atoms: N_10  and  C_11
REMARK    5  A    between atoms: N_10  and  C_20
REMARK    6  A    between atoms: C_11  and  C_12
REMARK    7  A    between atoms: C_13  and  O_14
REMARK    8  A    between atoms: C_20  and  C_21
REMARK    9  A    between atoms: C_21  and  C_22
REMARK   10  A    between atoms: C_25  and  C_26
REMARK   11  A    between atoms: C_26  and  C_27
REMARK                            x       y       z     vdW  Elec       q    Type
REMARK                         _______ _______ _______ _____ _____    ______ ____
ROOT
ATOM     10  N   UNL     1      -1.858   1.444  24.236  0.00  0.00    -0.263 NA
ENDROOT
BRANCH  10  20
ATOM     20  C   UNL     1      -2.616   1.500  23.913  0.00  0.00    +0.106 C 
ATOM     30  C   UNL     1      -2.289   1.569  23.159  0.00  0.00    +0.160 C 
ATOM     31  O   UNL     1      -3.047   1.625  22.837  0.00  0.00    -0.351 OA
ATOM     32  C   UNL     1      -3.373   1.557  23.591  0.00  0.00    +0.160 C 
BRANCH  20  21
ATOM     21  C   UNL     1      -2.942   1.432  24.668  0.00  0.00    +0.069 C 
BRANCH  21  22
ATOM     22  C   UNL     1      -3.760   1.473  24.769  0.00  0.00    +0.102 A 
ATOM     23  N   UNL     1      -4.297   0.862  24.632  0.00  0.00    -0.082 NA
ATOM     24  O   UNL     1      -5.053   1.145  24.803  0.00  0.00    -0.358 OA
ATOM     25  C   UNL     1      -4.983   1.931  25.045  0.00  0.00    +0.157 A 
ATOM     29  C   UNL     1      -4.184   2.133  25.024  0.00  0.00    +0.054 A 
BRANCH  25  26
ATOM     26  C   UNL     1      -5.603   2.427  25.269  0.00  0.00    +0.103 C 
BRANCH  26  27
ATOM     27  C   UNL     1      -5.459   3.067  25.768  0.00  0.00    +0.190 C 
ATOM     28  O   UNL     1      -5.997   3.692  25.802  0.00  0.00    -0.220 OA
ENDBRANCH  26  27
ENDBRANCH  25  26
ENDBRANCH  21  22
ENDBRANCH  20  21
ENDBRANCH  10  20
BRANCH  10   9
ATOM      9  C   UNL     1      -1.294   0.956  23.882  0.00  0.00    +0.102 C 
BRANCH   9   8
ATOM      3  C   UNL     1      -0.375  -0.130  24.013  0.00  0.00    +0.136 A 
ATOM      4  C   UNL     1      -0.145  -0.829  24.384  0.00  0.00    +0.037 A 
ATOM      5  C   UNL     1      -0.603  -1.144  24.993  0.00  0.00    +0.003 A 
ATOM      6  C   UNL     1      -1.292  -0.759  25.233  0.00  0.00    -0.000 A 
ATOM      7  C   UNL     1      -1.523  -0.058  24.863  0.00  0.00    +0.000 A 
ATOM      8  C   UNL     1      -1.064   0.256  24.253  0.00  0.00    +0.028 A 
BRANCH   3   2
ATOM      1  C   UNL     1       0.769  -0.204  23.161  0.00  0.00    +0.252 C 
ATOM      2  O   UNL     1       0.083   0.185  23.404  0.00  0.00    -0.472 OA
ENDBRANCH   3   2
ENDBRANCH   9   8
ENDBRANCH  10   9
BRANCH  10  11
ATOM     11  C   UNL     1      -1.665   1.875  24.913  0.00  0.00    +0.102 C 
BRANCH  11  12
ATOM     12  C   UNL     1      -1.189   2.546  24.852  0.00  0.00    +0.028 A 
ATOM     13  C   UNL     1      -0.784   2.824  25.515  0.00  0.00    +0.136 A 
ATOM     16  C   UNL     1      -0.307   3.495  25.455  0.00  0.00    +0.037 A 
ATOM     17  C   UNL     1      -0.236   3.887  24.733  0.00  0.00    +0.003 A 
ATOM     18  C   UNL     1      -0.641   3.608  24.070  0.00  0.00    -0.000 A 
ATOM     19  C   UNL     1      -1.117   2.938  24.130  0.00  0.00    +0.000 A 
BRANCH  13  14
ATOM     14  O   UNL     1      -0.855   2.432  26.237  0.00  0.00    -0.472 OA
ATOM     15  C   UNL     1      -0.315   2.581  26.842  0.00  0.00    +0.252 C 
ENDBRANCH  13  14
ENDBRANCH  11  12
ENDBRANCH  10  11
TORSDOF 11
ENDMDL
