MODEL 1
REMARK VINA RESULT:      -8.8      0.000      0.000
REMARK  Name = 
REMARK  7 active torsions:
REMARK  status: ('A' for Active; 'I' for Inactive)
REMARK    1  A    between atoms: C_4  and  C_8
REMARK    2  A    between atoms: N_13  and  C_14
REMARK    3  A    between atoms: C_18  and  O_22
REMARK    4  A    between atoms: O_22  and  C_23
REMARK    5  A    between atoms: N_25  and  C_26
REMARK    6  A    between atoms: C_29  and  O_30
REMARK    7  A    between atoms: O_30  and  C_31
REMARK                            x       y       z     vdW  Elec       q    Type
REMARK                         _______ _______ _______ _____ _____    ______ ____
ROOT
ATOM     14  C   UNL     1      -2.011   0.516  24.679  0.00  0.00    +0.155 C 
ATOM     15  C   UNL     1      -2.031  -0.301  24.790  0.00  0.00    +0.166 C 
ATOM     16  O   UNL     1      -1.415  -0.632  24.352  0.00  0.00    -0.348 OA
ATOM     17  C   UNL     1      -1.015  -0.021  23.971  0.00  0.00    +0.186 C 
ATOM     18  C   UNL     1      -0.388   0.154  23.465  0.00  0.00    +0.229 C 
ATOM     19  C   UNL     1      -0.368   0.971  23.354  0.00  0.00    +0.188 C 
ATOM     20  O   UNL     1      -0.984   1.302  23.792  0.00  0.00    -0.348 OA
ATOM     21  C   UNL     1      -1.384   0.689  24.173  0.00  0.00    +0.168 C 
ENDROOT
BRANCH  14  13
ATOM      8  C   UNL     1      -4.665   1.510  25.049  0.00  0.00    +0.086 A 
ATOM      9  C   UNL     1      -4.957   0.913  24.561  0.00  0.00    +0.040 A 
ATOM     10  C   UNL     1      -4.440   0.365  24.225  0.00  0.00    +0.103 A 
ATOM     11  N   UNL     1      -3.630   0.415  24.376  0.00  0.00    -0.211 NA
ATOM     12  C   UNL     1      -3.338   1.014  24.865  0.00  0.00    +0.237 A 
ATOM     13  N   UNL     1      -2.529   1.063  25.016  0.00  0.00    -0.200 NA
ATOM     39  N   UNL     1      -3.856   1.560  25.201  0.00  0.00    -0.212 NA
BRANCH   8   4
ATOM      1  F   UNL     1      -5.463   4.220  25.484  0.00  0.00    -0.204 F 
ATOM      2  C   UNL     1      -5.582   3.412  25.603  0.00  0.00    +0.140 A 
ATOM      3  C   UNL     1      -5.064   2.865  25.267  0.00  0.00    +0.031 A 
ATOM      4  C   UNL     1      -5.183   2.057  25.386  0.00  0.00    +0.020 A 
ATOM      5  C   UNL     1      -5.819   1.797  25.841  0.00  0.00    +0.002 A 
ATOM      6  C   UNL     1      -6.337   2.344  26.178  0.00  0.00    +0.002 A 
ATOM      7  C   UNL     1      -6.219   3.152  26.059  0.00  0.00    +0.030 A 
ENDBRANCH   8   4
ENDBRANCH  14  13
BRANCH  18  22
ATOM     22  O   UNL     1       0.130  -0.393  23.128  0.00  0.00    -0.432 OA
BRANCH  22  23
ATOM     23  C   UNL     1       0.944  -0.261  23.153  0.00  0.00    +0.425 C 
ATOM     24  O   UNL     1       1.379  -0.492  23.814  0.00  0.00    -0.224 OA
ATOM     25  N   UNL     1       1.323   0.101  22.516  0.00  0.00    -0.142 NA
BRANCH  25  26
ATOM     26  C   UNL     1       2.137   0.234  22.541  0.00  0.00    +0.077 A 
ATOM     27  C   UNL     1       2.441   0.853  22.992  0.00  0.00    +0.020 A 
ATOM     28  C   UNL     1       3.254   0.986  23.016  0.00  0.00    +0.039 A 
ATOM     29  C   UNL     1       3.765   0.497  22.589  0.00  0.00    +0.145 A 
ATOM     37  C   UNL     1       3.461  -0.123  22.138  0.00  0.00    +0.039 A 
ATOM     38  C   UNL     1       2.647  -0.255  22.114  0.00  0.00    +0.020 A 
BRANCH  29  30
ATOM     30  O   UNL     1       4.578   0.629  22.613  0.00  0.00    -0.453 OA
BRANCH  30  31
ATOM     31  C   UNL     1       5.029   0.310  23.227  0.00  0.00    +0.145 A 
ATOM     32  C   UNL     1       5.197  -0.497  23.239  0.00  0.00    +0.037 A 
ATOM     33  C   UNL     1       5.649  -0.816  23.853  0.00  0.00    +0.003 A 
ATOM     34  C   UNL     1       5.931  -0.326  24.453  0.00  0.00    +0.000 A 
ATOM     35  C   UNL     1       5.763   0.482  24.441  0.00  0.00    +0.003 A 
ATOM     36  C   UNL     1       5.312   0.799  23.828  0.00  0.00    +0.037 A 
ENDBRANCH  30  31
ENDBRANCH  29  30
ENDBRANCH  25  26
ENDBRANCH  22  23
ENDBRANCH  18  22
TORSDOF 7
ENDMDL
MODEL 2
REMARK VINA RESULT:      -7.9      2.412      8.016
REMARK  Name = 
REMARK  7 active torsions:
REMARK  status: ('A' for Active; 'I' for Inactive)
REMARK    1  A    between atoms: C_4  and  C_8
REMARK    2  A    between atoms: N_13  and  C_14
REMARK    3  A    between atoms: C_18  and  O_22
REMARK    4  A    between atoms: O_22  and  C_23
REMARK    5  A    between atoms: N_25  and  C_26
REMARK    6  A    between atoms: C_29  and  O_30
REMARK    7  A    between atoms: O_30  and  C_31
REMARK                            x       y       z     vdW  Elec       q    Type
REMARK                         _______ _______ _______ _____ _____    ______ ____
ROOT
ATOM     14  C   UNL     1       0.373  -0.675  23.912  0.00  0.00    +0.155 C 
ATOM     15  C   UNL     1      -0.015  -0.590  23.190  0.00  0.00    +0.166 C 
ATOM     16  O   UNL     1      -0.816  -0.748  23.311  0.00  0.00    -0.348 OA
ATOM     17  C   UNL     1      -0.923  -0.929  24.108  0.00  0.00    +0.186 C 
ATOM     18  C   UNL     1      -1.483  -1.139  24.676  0.00  0.00    +0.229 C 
ATOM     19  C   UNL     1      -1.095  -1.223  25.399  0.00  0.00    +0.188 C 
ATOM     20  O   UNL     1      -0.294  -1.066  25.278  0.00  0.00    -0.348 OA
ATOM     21  C   UNL     1      -0.188  -0.884  24.480  0.00  0.00    +0.168 C 
ENDROOT
BRANCH  14  13
ATOM      8  C   UNL     1       2.975  -0.012  22.933  0.00  0.00    +0.086 A 
ATOM      9  C   UNL     1       2.661   0.107  22.180  0.00  0.00    +0.040 A 
ATOM     10  C   UNL     1       1.853   0.000  22.047  0.00  0.00    +0.103 A 
ATOM     11  N   UNL     1       1.359  -0.225  22.669  0.00  0.00    -0.211 NA
ATOM     12  C   UNL     1       1.674  -0.343  23.423  0.00  0.00    +0.237 A 
ATOM     13  N   UNL     1       1.180  -0.568  24.045  0.00  0.00    -0.200 NA
ATOM     39  N   UNL     1       2.481  -0.237  23.555  0.00  0.00    -0.212 NA
BRANCH   8   4
ATOM      1  F   UNL     1       5.472  -0.990  23.921  0.00  0.00    -0.204 F 
ATOM      2  C   UNL     1       5.030  -0.394  23.559  0.00  0.00    +0.140 A 
ATOM      3  C   UNL     1       4.223  -0.501  23.427  0.00  0.00    +0.031 A 
ATOM      4  C   UNL     1       3.782   0.095  23.065  0.00  0.00    +0.020 A 
ATOM      5  C   UNL     1       4.148   0.797  22.834  0.00  0.00    +0.002 A 
ATOM      6  C   UNL     1       4.956   0.904  22.966  0.00  0.00    +0.002 A 
ATOM      7  C   UNL     1       5.397   0.309  23.328  0.00  0.00    +0.030 A 
ENDBRANCH   8   4
ENDBRANCH  14  13
BRANCH  18  22
ATOM     22  O   UNL     1      -2.291  -1.245  24.544  0.00  0.00    -0.432 OA
BRANCH  22  23
ATOM     23  C   UNL     1      -2.817  -0.626  24.686  0.00  0.00    +0.425 C 
ATOM     24  O   UNL     1      -2.736  -0.163  25.364  0.00  0.00    -0.224 OA
ATOM     25  N   UNL     1      -3.425  -0.470  24.152  0.00  0.00    -0.142 NA
BRANCH  25  26
ATOM     26  C   UNL     1      -3.952   0.149  24.294  0.00  0.00    +0.077 A 
ATOM     27  C   UNL     1      -4.553   0.060  24.852  0.00  0.00    +0.020 A 
ATOM     28  C   UNL     1      -5.079   0.678  24.995  0.00  0.00    +0.039 A 
ATOM     29  C   UNL     1      -5.005   1.387  24.578  0.00  0.00    +0.145 A 
ATOM     37  C   UNL     1      -4.404   1.476  24.020  0.00  0.00    +0.039 A 
ATOM     38  C   UNL     1      -3.878   0.857  23.878  0.00  0.00    +0.020 A 
BRANCH  29  30
ATOM     30  O   UNL     1      -5.531   2.005  24.720  0.00  0.00    -0.453 OA
BRANCH  30  31
ATOM     31  C   UNL     1      -5.284   2.666  25.148  0.00  0.00    +0.145 A 
ATOM     32  C   UNL     1      -5.494   2.745  25.942  0.00  0.00    +0.037 A 
ATOM     33  C   UNL     1      -5.247   3.406  26.371  0.00  0.00    +0.003 A 
ATOM     34  C   UNL     1      -4.791   3.988  26.004  0.00  0.00    +0.000 A 
ATOM     35  C   UNL     1      -4.581   3.909  25.210  0.00  0.00    +0.003 A 
ATOM     36  C   UNL     1      -4.828   3.248  24.783  0.00  0.00    +0.037 A 
ENDBRANCH  30  31
ENDBRANCH  29  30
ENDBRANCH  25  26
ENDBRANCH  22  23
ENDBRANCH  18  22
TORSDOF 7
ENDMDL
MODEL 3
REMARK VINA RESULT:      -7.5      2.493      8.366
REMARK  Name = 
REMARK  7 active torsions:
REMARK  status: ('A' for Active; 'I' for Inactive)
REMARK    1  A    between atoms: C_4  and  C_8
REMARK    2  A    between atoms: N_13  and  C_14
REMARK    3  A    between atoms: C_18  and  O_22
REMARK    4  A    between atoms: O_22  and  C_23
REMARK    5  A    between atoms: N_25  and  C_26
REMARK    6  A    between atoms: C_29  and  O_30
REMARK    7  A    between atoms: O_30  and  C_31
REMARK                            x       y       z     vdW  Elec       q    Type
REMARK                         _______ _______ _______ _____ _____    ______ ____
ROOT
ATOM     14  C   UNL     1       1.137   0.020  23.133  0.00  0.00    +0.155 C 
ATOM     15  C   UNL     1       0.905  -0.242  22.387  0.00  0.00    +0.166 C 
ATOM     16  O   UNL     1       0.137   0.025  22.251  0.00  0.00    -0.348 OA
ATOM     17  C   UNL     1      -0.106   0.453  22.912  0.00  0.00    +0.186 C 
ATOM     18  C   UNL     1      -0.730   0.883  23.238  0.00  0.00    +0.229 C 
ATOM     19  C   UNL     1      -0.498   1.145  23.985  0.00  0.00    +0.188 C 
ATOM     20  O   UNL     1       0.270   0.877  24.121  0.00  0.00    -0.348 OA
ATOM     21  C   UNL     1       0.513   0.449  23.458  0.00  0.00    +0.168 C 
ENDROOT
BRANCH  14  13
ATOM      8  C   UNL     1       3.992   0.140  23.072  0.00  0.00    +0.086 A 
ATOM      9  C   UNL     1       3.961   0.485  22.323  0.00  0.00    +0.040 A 
ATOM     10  C   UNL     1       3.232   0.628  21.964  0.00  0.00    +0.103 A 
ATOM     11  N   UNL     1       2.533   0.425  22.354  0.00  0.00    -0.211 NA
ATOM     12  C   UNL     1       2.565   0.080  23.103  0.00  0.00    +0.237 A 
ATOM     13  N   UNL     1       1.866  -0.123  23.492  0.00  0.00    -0.200 NA
ATOM     39  N   UNL     1       3.294  -0.063  23.461  0.00  0.00    -0.212 NA
BRANCH   8   4
ATOM      1  F   UNL     1       5.771  -1.623  24.449  0.00  0.00    -0.204 F 
ATOM      2  C   UNL     1       5.610  -0.884  24.119  0.00  0.00    +0.140 A 
ATOM      3  C   UNL     1       4.881  -0.741  23.760  0.00  0.00    +0.031 A 
ATOM      4  C   UNL     1       4.721  -0.003  23.430  0.00  0.00    +0.020 A 
ATOM      5  C   UNL     1       5.290   0.594  23.458  0.00  0.00    +0.002 A 
ATOM      6  C   UNL     1       6.020   0.452  23.817  0.00  0.00    +0.002 A 
ATOM      7  C   UNL     1       6.180  -0.287  24.147  0.00  0.00    +0.030 A 
ENDBRANCH   8   4
ENDBRANCH  14  13
BRANCH  18  22
ATOM     22  O   UNL     1      -1.459   1.026  22.879  0.00  0.00    -0.432 OA
BRANCH  22  23
ATOM     23  C   UNL     1      -2.082   1.339  23.320  0.00  0.00    +0.425 C 
ATOM     24  O   UNL     1      -2.448   0.881  23.901  0.00  0.00    -0.224 OA
ATOM     25  N   UNL     1      -2.340   2.110  23.181  0.00  0.00    -0.142 NA
BRANCH  25  26
ATOM     26  C   UNL     1      -2.963   2.423  23.622  0.00  0.00    +0.077 A 
ATOM     27  C   UNL     1      -3.722   2.454  23.301  0.00  0.00    +0.020 A 
ATOM     28  C   UNL     1      -4.344   2.767  23.741  0.00  0.00    +0.039 A 
ATOM     29  C   UNL     1      -4.208   3.050  24.505  0.00  0.00    +0.145 A 
ATOM     37  C   UNL     1      -3.449   3.019  24.827  0.00  0.00    +0.039 A 
ATOM     38  C   UNL     1      -2.827   2.706  24.385  0.00  0.00    +0.020 A 
BRANCH  29  30
ATOM     30  O   UNL     1      -4.830   3.363  24.946  0.00  0.00    -0.453 OA
BRANCH  30  31
ATOM     31  C   UNL     1      -5.351   2.858  25.340  0.00  0.00    +0.145 A 
ATOM     32  C   UNL     1      -5.344   2.821  26.164  0.00  0.00    +0.037 A 
ATOM     33  C   UNL     1      -5.865   2.317  26.559  0.00  0.00    +0.003 A 
ATOM     34  C   UNL     1      -6.392   1.850  26.129  0.00  0.00    +0.000 A 
ATOM     35  C   UNL     1      -6.398   1.887  25.305  0.00  0.00    +0.003 A 
ATOM     36  C   UNL     1      -5.878   2.391  24.911  0.00  0.00    +0.037 A 
ENDBRANCH  30  31
ENDBRANCH  29  30
ENDBRANCH  25  26
ENDBRANCH  22  23
ENDBRANCH  18  22
TORSDOF 7
ENDMDL
MODEL 4
REMARK VINA RESULT:      -7.4      2.667      7.728
REMARK  Name = 
REMARK  7 active torsions:
REMARK  status: ('A' for Active; 'I' for Inactive)
REMARK    1  A    between atoms: C_4  and  C_8
REMARK    2  A    between atoms: N_13  and  C_14
REMARK    3  A    between atoms: C_18  and  O_22
REMARK    4  A    between atoms: O_22  and  C_23
REMARK    5  A    between atoms: N_25  and  C_26
REMARK    6  A    between atoms: C_29  and  O_30
REMARK    7  A    between atoms: O_30  and  C_31
REMARK                            x       y       z     vdW  Elec       q    Type
REMARK                         _______ _______ _______ _____ _____    ______ ____
ROOT
ATOM     14  C   UNL     1       0.952   1.830  23.942  0.00  0.00    +0.155 C 
ATOM     15  C   UNL     1       0.463   1.738  23.283  0.00  0.00    +0.166 C 
ATOM     16  O   UNL     1      -0.312   1.889  23.520  0.00  0.00    -0.348 OA
ATOM     17  C   UNL     1      -0.304   2.074  24.323  0.00  0.00    +0.186 C 
ATOM     18  C   UNL     1      -0.777   2.281  24.966  0.00  0.00    +0.229 C 
ATOM     19  C   UNL     1      -0.288   2.373  25.624  0.00  0.00    +0.188 C 
ATOM     20  O   UNL     1       0.488   2.222  25.388  0.00  0.00    -0.348 OA
ATOM     21  C   UNL     1       0.478   2.037  24.584  0.00  0.00    +0.168 C 
ENDROOT
BRANCH  14  13
ATOM      8  C   UNL     1       3.284   0.381  23.145  0.00  0.00    +0.086 A 
ATOM      9  C   UNL     1       2.812  -0.146  22.721  0.00  0.00    +0.040 A 
ATOM     10  C   UNL     1       1.992  -0.047  22.707  0.00  0.00    +0.103 A 
ATOM     11  N   UNL     1       1.645   0.579  23.119  0.00  0.00    -0.211 NA
ATOM     12  C   UNL     1       2.118   1.105  23.543  0.00  0.00    +0.237 A 
ATOM     13  N   UNL     1       1.771   1.731  23.955  0.00  0.00    -0.200 NA
ATOM     39  N   UNL     1       2.937   1.006  23.557  0.00  0.00    -0.212 NA
BRANCH   8   4
ATOM      1  F   UNL     1       5.627  -0.704  24.371  0.00  0.00    -0.204 F 
ATOM      2  C   UNL     1       5.274  -0.261  23.771  0.00  0.00    +0.140 A 
ATOM      3  C   UNL     1       4.455  -0.162  23.758  0.00  0.00    +0.031 A 
ATOM      4  C   UNL     1       4.102   0.282  23.158  0.00  0.00    +0.020 A 
ATOM      5  C   UNL     1       4.568   0.626  22.571  0.00  0.00    +0.002 A 
ATOM      6  C   UNL     1       5.388   0.527  22.584  0.00  0.00    +0.002 A 
ATOM      7  C   UNL     1       5.741   0.084  23.184  0.00  0.00    +0.030 A 
ENDBRANCH   8   4
ENDBRANCH  14  13
BRANCH  18  22
ATOM     22  O   UNL     1      -1.596   2.380  24.953  0.00  0.00    -0.432 OA
BRANCH  22  23
ATOM     23  C   UNL     1      -2.091   1.721  24.934  0.00  0.00    +0.425 C 
ATOM     24  O   UNL     1      -1.931   1.071  25.417  0.00  0.00    -0.224 OA
ATOM     25  N   UNL     1      -2.746   1.710  24.434  0.00  0.00    -0.142 NA
BRANCH  25  26
ATOM     26  C   UNL     1      -3.241   1.050  24.415  0.00  0.00    +0.077 A 
ATOM     27  C   UNL     1      -3.697   0.858  25.075  0.00  0.00    +0.020 A 
ATOM     28  C   UNL     1      -4.192   0.199  25.056  0.00  0.00    +0.039 A 
ATOM     29  C   UNL     1      -4.231  -0.269  24.378  0.00  0.00    +0.145 A 
ATOM     37  C   UNL     1      -3.775  -0.077  23.717  0.00  0.00    +0.039 A 
ATOM     38  C   UNL     1      -3.280   0.583  23.737  0.00  0.00    +0.020 A 
BRANCH  29  30
ATOM     30  O   UNL     1      -4.726  -0.928  24.358  0.00  0.00    -0.453 OA
BRANCH  30  31
ATOM     31  C   UNL     1      -4.401  -1.687  24.331  0.00  0.00    +0.145 A 
ATOM     32  C   UNL     1      -4.503  -2.155  23.659  0.00  0.00    +0.037 A 
ATOM     33  C   UNL     1      -4.179  -2.913  23.632  0.00  0.00    +0.003 A 
ATOM     34  C   UNL     1      -3.752  -3.202  24.276  0.00  0.00    +0.000 A 
ATOM     35  C   UNL     1      -3.650  -2.734  24.948  0.00  0.00    +0.003 A 
ATOM     36  C   UNL     1      -3.975  -1.977  24.975  0.00  0.00    +0.037 A 
ENDBRANCH  30  31
ENDBRANCH  29  30
ENDBRANCH  25  26
ENDBRANCH  22  23
ENDBRANCH  18  22
TORSDOF 7
ENDMDL
MODEL 5
REMARK VINA RESULT:      -7.2     17.047     19.420
REMARK  Name = 
REMARK  7 active torsions:
REMARK  status: ('A' for Active; 'I' for Inactive)
REMARK    1  A    between atoms: C_4  and  C_8
REMARK    2  A    between atoms: N_13  and  C_14
REMARK    3  A    between atoms: C_18  and  O_22
REMARK    4  A    between atoms: O_22  and  C_23
REMARK    5  A    between atoms: N_25  and  C_26
REMARK    6  A    between atoms: C_29  and  O_30
REMARK    7  A    between atoms: O_30  and  C_31
REMARK                            x       y       z     vdW  Elec       q    Type
REMARK                         _______ _______ _______ _____ _____    ______ ____
ROOT
ATOM     14  C   UNL     1      -5.457 -10.362  10.842  0.00  0.00    +0.155 C 
ATOM     15  C   UNL     1      -5.626 -10.781  10.152  0.00  0.00    +0.166 C 
ATOM     16  O   UNL     1      -6.426 -10.675   9.980  0.00  0.00    -0.348 OA
ATOM     17  C   UNL     1      -6.751 -10.191  10.562  0.00  0.00    +0.186 C 
ATOM     18  C   UNL     1      -7.445  -9.826  10.817  0.00  0.00    +0.229 C 
ATOM     19  C   UNL     1      -7.276  -9.407  11.507  0.00  0.00    +0.188 C 
ATOM     20  O   UNL     1      -6.477  -9.514  11.679  0.00  0.00    -0.348 OA
ATOM     21  C   UNL     1      -6.152  -9.998  11.096  0.00  0.00    +0.168 C 
ENDROOT
BRANCH  14  13
ATOM      8  C   UNL     1      -2.713  -9.564  10.808  0.00  0.00    +0.086 A 
ATOM      9  C   UNL     1      -2.812  -9.256  10.049  0.00  0.00    +0.040 A 
ATOM     10  C   UNL     1      -3.547  -9.302   9.678  0.00  0.00    +0.103 A 
ATOM     11  N   UNL     1      -4.184  -9.655  10.066  0.00  0.00    -0.211 NA
ATOM     12  C   UNL     1      -4.085  -9.963  10.825  0.00  0.00    +0.237 A 
ATOM     13  N   UNL     1      -4.722 -10.317  11.213  0.00  0.00    -0.200 NA
ATOM     39  N   UNL     1      -3.350  -9.917  11.196  0.00  0.00    -0.212 NA
BRANCH   8   4
ATOM      1  F   UNL     1      -0.132  -8.360  11.046  0.00  0.00    -0.204 F 
ATOM      2  C   UNL     1      -0.687  -8.916  11.298  0.00  0.00    +0.140 A 
ATOM      3  C   UNL     1      -1.422  -8.962  10.927  0.00  0.00    +0.031 A 
ATOM      4  C   UNL     1      -1.978  -9.518  11.179  0.00  0.00    +0.020 A 
ATOM      5  C   UNL     1      -1.798 -10.028  11.802  0.00  0.00    +0.002 A 
ATOM      6  C   UNL     1      -1.062  -9.982  12.173  0.00  0.00    +0.002 A 
ATOM      7  C   UNL     1      -0.506  -9.426  11.921  0.00  0.00    +0.030 A 
ENDBRANCH   8   4
ENDBRANCH  14  13
BRANCH  18  22
ATOM     22  O   UNL     1      -8.181  -9.872  10.446  0.00  0.00    -0.432 OA
BRANCH  22  23
ATOM     23  C   UNL     1      -8.507  -9.202  10.090  0.00  0.00    +0.425 C 
ATOM     24  O   UNL     1      -8.214  -8.454  10.276  0.00  0.00    -0.224 OA
ATOM     25  N   UNL     1      -9.124  -9.281   9.550  0.00  0.00    -0.142 NA
BRANCH  25  26
ATOM     26  C   UNL     1      -9.450  -8.611   9.194  0.00  0.00    +0.077 A 
ATOM     27  C   UNL     1      -9.094  -8.284   8.527  0.00  0.00    +0.020 A 
ATOM     28  C   UNL     1      -9.419  -7.615   8.172  0.00  0.00    +0.039 A 
ATOM     29  C   UNL     1     -10.102  -7.272   8.484  0.00  0.00    +0.145 A 
ATOM     37  C   UNL     1     -10.459  -7.600   9.152  0.00  0.00    +0.039 A 
ATOM     38  C   UNL     1     -10.133  -8.269   9.507  0.00  0.00    +0.020 A 
BRANCH  29  30
ATOM     30  O   UNL     1     -10.427  -6.603   8.130  0.00  0.00    -0.453 OA
BRANCH  30  31
ATOM     31  C   UNL     1     -10.214  -5.851   8.394  0.00  0.00    +0.145 A 
ATOM     32  C   UNL     1      -9.497  -5.519   8.159  0.00  0.00    +0.037 A 
ATOM     33  C   UNL     1      -9.284  -4.767   8.424  0.00  0.00    +0.003 A 
ATOM     34  C   UNL     1      -9.789  -4.348   8.923  0.00  0.00    +0.000 A 
ATOM     35  C   UNL     1     -10.506  -4.680   9.158  0.00  0.00    +0.003 A 
ATOM     36  C   UNL     1     -10.719  -5.431   8.894  0.00  0.00    +0.037 A 
ENDBRANCH  30  31
ENDBRANCH  29  30
ENDBRANCH  25  26
ENDBRANCH  22  23
ENDBRANCH  18  22
TORSDOF 7
ENDMDL
MODEL 6
REMARK VINA RESULT:      -6.8     15.328     18.055
REMARK  Name = 
REMARK  7 active torsions:
REMARK  status: ('A' for Active; 'I' for Inactive)
REMARK    1  A    between atoms: C_4  and  C_8
REMARK    2  A    between atoms: N_13  and  C_14
REMARK    3  A    between atoms: C_18  and  O_22
REMARK    4  A    between atoms: O_22  and  C_23
REMARK    5  A    between atoms: N_25  and  C_26
REMARK    6  A    between atoms: C_29  and  O_30
REMARK    7  A    between atoms: O_30  and  C_31
REMARK                            x       y       z     vdW  Elec       q    Type
REMARK                         _______ _______ _______ _____ _____    ______ ____
ROOT
ATOM     14  C   UNL     1      -4.253  -9.628  10.726  0.00  0.00    +0.155 C 
ATOM     15  C   UNL     1      -4.409 -10.409  10.512  0.00  0.00    +0.166 C 
ATOM     16  O   UNL     1      -5.206 -10.559  10.661  0.00  0.00    -0.348 OA
ATOM     17  C   UNL     1      -5.543  -9.871  10.966  0.00  0.00    +0.186 C 
ATOM     18  C   UNL     1      -6.244  -9.538  11.247  0.00  0.00    +0.229 C 
ATOM     19  C   UNL     1      -6.088  -8.757  11.462  0.00  0.00    +0.188 C 
ATOM     20  O   UNL     1      -5.291  -8.607  11.313  0.00  0.00    -0.348 OA
ATOM     21  C   UNL     1      -4.954  -9.296  11.007  0.00  0.00    +0.168 C 
ENDROOT
BRANCH  14  13
ATOM      8  C   UNL     1      -1.485  -9.462  11.419  0.00  0.00    +0.086 A 
ATOM      9  C   UNL     1      -1.559 -10.143  11.879  0.00  0.00    +0.040 A 
ATOM     10  C   UNL     1      -2.288 -10.525  11.935  0.00  0.00    +0.103 A 
ATOM     11  N   UNL     1      -2.944 -10.226  11.533  0.00  0.00    -0.211 NA
ATOM     12  C   UNL     1      -2.869  -9.544  11.073  0.00  0.00    +0.237 A 
ATOM     13  N   UNL     1      -3.524  -9.246  10.670  0.00  0.00    -0.200 NA
ATOM     39  N   UNL     1      -2.140  -9.163  11.016  0.00  0.00    -0.212 NA
BRANCH   8   4
ATOM      1  F   UNL     1       0.397  -7.558  12.420  0.00  0.00    -0.204 F 
ATOM      2  C   UNL     1       0.185  -8.128  11.863  0.00  0.00    +0.140 A 
ATOM      3  C   UNL     1      -0.544  -8.510  11.920  0.00  0.00    +0.031 A 
ATOM      4  C   UNL     1      -0.756  -9.080  11.363  0.00  0.00    +0.020 A 
ATOM      5  C   UNL     1      -0.238  -9.269  10.749  0.00  0.00    +0.002 A 
ATOM      6  C   UNL     1       0.491  -8.888  10.692  0.00  0.00    +0.002 A 
ATOM      7  C   UNL     1       0.703  -8.317  11.249  0.00  0.00    +0.030 A 
ENDBRANCH   8   4
ENDBRANCH  14  13
BRANCH  18  22
ATOM     22  O   UNL     1      -6.973  -9.920  11.304  0.00  0.00    -0.432 OA
BRANCH  22  23
ATOM     23  C   UNL     1      -7.447  -9.808  11.970  0.00  0.00    +0.425 C 
ATOM     24  O   UNL     1      -7.474  -9.070  12.337  0.00  0.00    -0.224 OA
ATOM     25  N   UNL     1      -7.893 -10.434  12.269  0.00  0.00    -0.142 NA
BRANCH  25  26
ATOM     26  C   UNL     1      -8.368 -10.322  12.935  0.00  0.00    +0.077 A 
ATOM     27  C   UNL     1      -9.133 -10.028  12.852  0.00  0.00    +0.020 A 
ATOM     28  C   UNL     1      -9.607  -9.916  13.517  0.00  0.00    +0.039 A 
ATOM     29  C   UNL     1      -9.315 -10.098  14.267  0.00  0.00    +0.145 A 
ATOM     37  C   UNL     1      -8.548 -10.392  14.351  0.00  0.00    +0.039 A 
ATOM     38  C   UNL     1      -8.075 -10.504  13.684  0.00  0.00    +0.020 A 
BRANCH  29  30
ATOM     30  O   UNL     1      -9.788  -9.986  14.933  0.00  0.00    -0.453 OA
BRANCH  30  31
ATOM     31  C   UNL     1      -9.747  -9.277  15.353  0.00  0.00    +0.145 A 
ATOM     32  C   UNL     1     -10.206  -8.633  15.120  0.00  0.00    +0.037 A 
ATOM     33  C   UNL     1     -10.165  -7.924  15.541  0.00  0.00    +0.003 A 
ATOM     34  C   UNL     1      -9.665  -7.860  16.194  0.00  0.00    +0.000 A 
ATOM     35  C   UNL     1      -9.207  -8.505  16.427  0.00  0.00    +0.003 A 
ATOM     36  C   UNL     1      -9.248  -9.213  16.007  0.00  0.00    +0.037 A 
ENDBRANCH  30  31
ENDBRANCH  29  30
ENDBRANCH  25  26
ENDBRANCH  22  23
ENDBRANCH  18  22
TORSDOF 7
ENDMDL
MODEL 7
REMARK VINA RESULT:      -6.3     15.211     16.346
REMARK  Name = 
REMARK  7 active torsions:
REMARK  status: ('A' for Active; 'I' for Inactive)
REMARK    1  A    between atoms: C_4  and  C_8
REMARK    2  A    between atoms: N_13  and  C_14
REMARK    3  A    between atoms: C_18  and  O_22
REMARK    4  A    between atoms: O_22  and  C_23
REMARK    5  A    between atoms: N_25  and  C_26
REMARK    6  A    between atoms: C_29  and  O_30
REMARK    7  A    between atoms: O_30  and  C_31
REMARK                            x       y       z     vdW  Elec       q    Type
REMARK                         _______ _______ _______ _____ _____    ______ ____
ROOT
ATOM     14  C   UNL     1      -8.614  -9.830  13.392  0.00  0.00    +0.155 C 
ATOM     15  C   UNL     1      -8.725 -10.617  13.170  0.00  0.00    +0.166 C 
ATOM     16  O   UNL     1      -8.209 -10.781  12.548  0.00  0.00    -0.348 OA
ATOM     17  C   UNL     1      -7.780 -10.097  12.384  0.00  0.00    +0.186 C 
ATOM     18  C   UNL     1      -7.196  -9.774  11.899  0.00  0.00    +0.229 C 
ATOM     19  C   UNL     1      -7.085  -8.987  12.120  0.00  0.00    +0.188 C 
ATOM     20  O   UNL     1      -7.601  -8.823  12.743  0.00  0.00    -0.348 OA
ATOM     21  C   UNL     1      -8.031  -9.509  12.906  0.00  0.00    +0.168 C 
ENDROOT
BRANCH  14  13
ATOM      8  C   UNL     1      -9.323  -9.583  16.150  0.00  0.00    +0.086 A 
ATOM      9  C   UNL     1      -8.872 -10.251  16.325  0.00  0.00    +0.040 A 
ATOM     10  C   UNL     1      -8.469 -10.647  15.724  0.00  0.00    +0.103 A 
ATOM     11  N   UNL     1      -8.517 -10.375  14.946  0.00  0.00    -0.211 NA
ATOM     12  C   UNL     1      -8.969  -9.706  14.771  0.00  0.00    +0.237 A 
ATOM     13  N   UNL     1      -9.017  -9.434  13.993  0.00  0.00    -0.200 NA
ATOM     39  N   UNL     1      -9.371  -9.311  15.372  0.00  0.00    -0.212 NA
BRANCH   8   4
ATOM      1  F   UNL     1     -10.104  -7.143  17.417  0.00  0.00    -0.204 F 
ATOM      2  C   UNL     1     -10.116  -7.968  17.385  0.00  0.00    +0.140 A 
ATOM      3  C   UNL     1      -9.714  -8.363  16.783  0.00  0.00    +0.031 A 
ATOM      4  C   UNL     1      -9.725  -9.187  16.751  0.00  0.00    +0.020 A 
ATOM      5  C   UNL     1     -10.139  -9.616  17.321  0.00  0.00    +0.002 A 
ATOM      6  C   UNL     1     -10.542  -9.221  17.923  0.00  0.00    +0.002 A 
ATOM      7  C   UNL     1     -10.531  -8.396  17.955  0.00  0.00    +0.030 A 
ENDBRANCH   8   4
ENDBRANCH  14  13
BRANCH  18  22
ATOM     22  O   UNL     1      -6.793 -10.170  11.297  0.00  0.00    -0.432 OA
BRANCH  22  23
ATOM     23  C   UNL     1      -5.971 -10.121  11.249  0.00  0.00    +0.425 C 
ATOM     24  O   UNL     1      -5.522 -10.046  11.937  0.00  0.00    -0.224 OA
ATOM     25  N   UNL     1      -5.599 -10.146  10.514  0.00  0.00    -0.142 NA
BRANCH  25  26
ATOM     26  C   UNL     1      -4.776 -10.097  10.466  0.00  0.00    +0.077 A 
ATOM     27  C   UNL     1      -4.314 -10.764  10.607  0.00  0.00    +0.020 A 
ATOM     28  C   UNL     1      -3.492 -10.715  10.559  0.00  0.00    +0.039 A 
ATOM     29  C   UNL     1      -3.132  -9.997  10.369  0.00  0.00    +0.145 A 
ATOM     37  C   UNL     1      -3.595  -9.328  10.227  0.00  0.00    +0.039 A 
ATOM     38  C   UNL     1      -4.417  -9.379  10.275  0.00  0.00    +0.020 A 
BRANCH  29  30
ATOM     30  O   UNL     1      -2.311  -9.947  10.320  0.00  0.00    -0.453 OA
BRANCH  30  31
ATOM     31  C   UNL     1      -1.868  -9.777  10.995  0.00  0.00    +0.145 A 
ATOM     32  C   UNL     1      -1.421  -9.085  11.032  0.00  0.00    +0.037 A 
ATOM     33  C   UNL     1      -0.978  -8.915  11.707  0.00  0.00    +0.003 A 
ATOM     34  C   UNL     1      -0.982  -9.439  12.345  0.00  0.00    +0.000 A 
ATOM     35  C   UNL     1      -1.428 -10.131  12.308  0.00  0.00    +0.003 A 
ATOM     36  C   UNL     1      -1.871 -10.300  11.634  0.00  0.00    +0.037 A 
ENDBRANCH  30  31
ENDBRANCH  29  30
ENDBRANCH  25  26
ENDBRANCH  22  23
ENDBRANCH  18  22
TORSDOF 7
ENDMDL
MODEL 8
REMARK VINA RESULT:      -5.7     16.911     19.449
REMARK  Name = 
REMARK  7 active torsions:
REMARK  status: ('A' for Active; 'I' for Inactive)
REMARK    1  A    between atoms: C_4  and  C_8
REMARK    2  A    between atoms: N_13  and  C_14
REMARK    3  A    between atoms: C_18  and  O_22
REMARK    4  A    between atoms: O_22  and  C_23
REMARK    5  A    between atoms: N_25  and  C_26
REMARK    6  A    between atoms: C_29  and  O_30
REMARK    7  A    between atoms: O_30  and  C_31
REMARK                            x       y       z     vdW  Elec       q    Type
REMARK                         _______ _______ _______ _____ _____    ______ ____
ROOT
ATOM     14  C   UNL     1      -3.310  -9.796  10.292  0.00  0.00    +0.155 C 
ATOM     15  C   UNL     1      -3.420 -10.506  10.697  0.00  0.00    +0.166 C 
ATOM     16  O   UNL     1      -4.180 -10.779  10.530  0.00  0.00    -0.348 OA
ATOM     17  C   UNL     1      -4.540 -10.239  10.023  0.00  0.00    +0.186 C 
ATOM     18  C   UNL     1      -5.232 -10.072   9.605  0.00  0.00    +0.229 C 
ATOM     19  C   UNL     1      -5.122  -9.362   9.200  0.00  0.00    +0.188 C 
ATOM     20  O   UNL     1      -4.362  -9.090   9.367  0.00  0.00    -0.348 OA
ATOM     21  C   UNL     1      -4.002  -9.631   9.875  0.00  0.00    +0.168 C 
ENDROOT
BRANCH  14  13
ATOM      8  C   UNL     1      -0.813  -9.092  11.493  0.00  0.00    +0.086 A 
ATOM      9  C   UNL     1      -0.930  -9.667  12.073  0.00  0.00    +0.040 A 
ATOM     10  C   UNL     1      -1.613 -10.130  12.063  0.00  0.00    +0.103 A 
ATOM     11  N   UNL     1      -2.179 -10.019  11.473  0.00  0.00    -0.211 NA
ATOM     12  C   UNL     1      -2.061  -9.444  10.892  0.00  0.00    +0.237 A 
ATOM     13  N   UNL     1      -2.627  -9.333  10.302  0.00  0.00    -0.200 NA
ATOM     39  N   UNL     1      -1.379  -8.981  10.902  0.00  0.00    -0.212 NA
BRANCH   8   4
ATOM      1  F   UNL     1       0.795  -7.081  12.732  0.00  0.00    -0.204 F 
ATOM      2  C   UNL     1       0.673  -7.624  12.123  0.00  0.00    +0.140 A 
ATOM      3  C   UNL     1      -0.009  -8.087  12.112  0.00  0.00    +0.031 A 
ATOM      4  C   UNL     1      -0.131  -8.630  11.503  0.00  0.00    +0.020 A 
ATOM      5  C   UNL     1       0.430  -8.709  10.904  0.00  0.00    +0.002 A 
ATOM      6  C   UNL     1       1.113  -8.246  10.914  0.00  0.00    +0.002 A 
ATOM      7  C   UNL     1       1.235  -7.703  11.523  0.00  0.00    +0.030 A 
ENDBRANCH   8   4
ENDBRANCH  14  13
BRANCH  18  22
ATOM     22  O   UNL     1      -5.915 -10.536   9.595  0.00  0.00    -0.432 OA
BRANCH  22  23
ATOM     23  C   UNL     1      -6.652 -10.183   9.482  0.00  0.00    +0.425 C 
ATOM     24  O   UNL     1      -6.828  -9.468   9.855  0.00  0.00    -0.224 OA
ATOM     25  N   UNL     1      -7.213 -10.543   8.998  0.00  0.00    -0.142 NA
BRANCH  25  26
ATOM     26  C   UNL     1      -7.950 -10.190   8.885  0.00  0.00    +0.077 A 
ATOM     27  C   UNL     1      -8.076  -9.697   8.236  0.00  0.00    +0.020 A 
ATOM     28  C   UNL     1      -8.812  -9.344   8.124  0.00  0.00    +0.039 A 
ATOM     29  C   UNL     1      -9.424  -9.484   8.660  0.00  0.00    +0.145 A 
ATOM     37  C   UNL     1      -9.298  -9.978   9.309  0.00  0.00    +0.039 A 
ATOM     38  C   UNL     1      -8.560 -10.330   9.421  0.00  0.00    +0.020 A 
BRANCH  29  30
ATOM     30  O   UNL     1     -10.160  -9.132   8.548  0.00  0.00    -0.453 OA
BRANCH  30  31
ATOM     31  C   UNL     1     -10.312  -8.385   8.865  0.00  0.00    +0.145 A 
ATOM     32  C   UNL     1     -10.261  -7.715   8.385  0.00  0.00    +0.037 A 
ATOM     33  C   UNL     1     -10.413  -6.968   8.702  0.00  0.00    +0.003 A 
ATOM     34  C   UNL     1     -10.616  -6.892   9.497  0.00  0.00    +0.000 A 
ATOM     35  C   UNL     1     -10.668  -7.561   9.977  0.00  0.00    +0.003 A 
ATOM     36  C   UNL     1     -10.516  -8.307   9.660  0.00  0.00    +0.037 A 
ENDBRANCH  30  31
ENDBRANCH  29  30
ENDBRANCH  25  26
ENDBRANCH  22  23
ENDBRANCH  18  22
TORSDOF 7
ENDMDL
MODEL 9
REMARK VINA RESULT:      -5.3     16.549     19.113
REMARK  Name = 
REMARK  7 active torsions:
REMARK  status: ('A' for Active; 'I' for Inactive)
REMARK    1  A    between atoms: C_4  and  C_8
REMARK    2  A    between atoms: N_13  and  C_14
REMARK    3  A    between atoms: C_18  and  O_22
REMARK    4  A    between atoms: O_22  and  C_23
REMARK    5  A    between atoms: N_25  and  C_26
REMARK    6  A    between atoms: C_29  and  O_30
REMARK    7  A    between atoms: O_30  and  C_31
REMARK                            x       y       z     vdW  Elec       q    Type
REMARK                         _______ _______ _______ _____ _____    ______ ____
ROOT
ATOM     14  C   UNL     1      -3.680  -9.734   9.951  0.00  0.00    +0.155 C 
ATOM     15  C   UNL     1      -3.734 -10.553  10.030  0.00  0.00    +0.166 C 
ATOM     16  O   UNL     1      -4.507 -10.775   9.846  0.00  0.00    -0.348 OA
ATOM     17  C   UNL     1      -4.930 -10.095   9.654  0.00  0.00    +0.186 C 
ATOM     18  C   UNL     1      -5.669  -9.810   9.421  0.00  0.00    +0.229 C 
ATOM     19  C   UNL     1      -5.615  -8.991   9.343  0.00  0.00    +0.188 C 
ATOM     20  O   UNL     1      -4.842  -8.769   9.527  0.00  0.00    -0.348 OA
ATOM     21  C   UNL     1      -4.419  -9.451   9.719  0.00  0.00    +0.168 C 
ENDROOT
BRANCH  14  13
ATOM      8  C   UNL     1      -1.243  -9.271  11.371  0.00  0.00    +0.086 A 
ATOM      9  C   UNL     1      -1.374  -9.951  11.818  0.00  0.00    +0.040 A 
ATOM     10  C   UNL     1      -2.050 -10.407  11.687  0.00  0.00    +0.103 A 
ATOM     11  N   UNL     1      -2.593 -10.183  11.109  0.00  0.00    -0.211 NA
ATOM     12  C   UNL     1      -2.461  -9.502  10.661  0.00  0.00    +0.237 A 
ATOM     13  N   UNL     1      -3.005  -9.278  10.082  0.00  0.00    -0.200 NA
ATOM     39  N   UNL     1      -1.786  -9.046  10.792  0.00  0.00    -0.212 NA
BRANCH   8   4
ATOM      1  F   UNL     1       1.432  -8.550  10.668  0.00  0.00    -0.204 F 
ATOM      2  C   UNL     1       0.769  -8.455  11.150  0.00  0.00    +0.140 A 
ATOM      3  C   UNL     1       0.095  -8.910  11.019  0.00  0.00    +0.031 A 
ATOM      4  C   UNL     1      -0.568  -8.815  11.502  0.00  0.00    +0.020 A 
ATOM      5  C   UNL     1      -0.556  -8.264  12.115  0.00  0.00    +0.002 A 
ATOM      6  C   UNL     1       0.120  -7.808  12.247  0.00  0.00    +0.002 A 
ATOM      7  C   UNL     1       0.783  -7.903  11.764  0.00  0.00    +0.030 A 
ENDBRANCH   8   4
ENDBRANCH  14  13
BRANCH  18  22
ATOM     22  O   UNL     1      -6.344 -10.266   9.290  0.00  0.00    -0.432 OA
BRANCH  22  23
ATOM     23  C   UNL     1      -6.993 -10.198   9.796  0.00  0.00    +0.425 C 
ATOM     24  O   UNL     1      -6.886 -10.245  10.612  0.00  0.00    -0.224 OA
ATOM     25  N   UNL     1      -7.748 -10.083   9.485  0.00  0.00    -0.142 NA
BRANCH  25  26
ATOM     26  C   UNL     1      -8.397 -10.014   9.990  0.00  0.00    +0.077 A 
ATOM     27  C   UNL     1      -8.649  -9.270  10.239  0.00  0.00    +0.020 A 
ATOM     28  C   UNL     1      -9.297  -9.202  10.744  0.00  0.00    +0.039 A 
ATOM     29  C   UNL     1      -9.694  -9.878  11.000  0.00  0.00    +0.145 A 
ATOM     37  C   UNL     1      -9.442 -10.624  10.751  0.00  0.00    +0.039 A 
ATOM     38  C   UNL     1      -8.793 -10.691  10.246  0.00  0.00    +0.020 A 
BRANCH  29  30
ATOM     30  O   UNL     1     -10.342  -9.811  11.505  0.00  0.00    -0.453 OA
BRANCH  30  31
ATOM     31  C   UNL     1     -10.244  -9.915  12.318  0.00  0.00    +0.145 A 
ATOM     32  C   UNL     1     -10.240  -9.261  12.820  0.00  0.00    +0.037 A 
ATOM     33  C   UNL     1     -10.143  -9.365  13.633  0.00  0.00    +0.003 A 
ATOM     34  C   UNL     1     -10.049 -10.123  13.943  0.00  0.00    +0.000 A 
ATOM     35  C   UNL     1     -10.053 -10.778  13.441  0.00  0.00    +0.003 A 
ATOM     36  C   UNL     1     -10.151 -10.674  12.629  0.00  0.00    +0.037 A 
ENDBRANCH  30  31
ENDBRANCH  29  30
ENDBRANCH  25  26
ENDBRANCH  22  23
ENDBRANCH  18  22
TORSDOF 7
ENDMDL
MODEL 10
REMARK VINA RESULT:      -5.3     15.954     18.449
REMARK  Name = 
REMARK  7 active torsions:
REMARK  status: ('A' for Active; 'I' for Inactive)
REMARK    1  A    between atoms: C_4  and  C_8
REMARK    2  A    between atoms: N_13  and  C_14
REMARK    3  A    between atoms: C_18  and  O_22
REMARK    4  A    between atoms: O_22  and  C_23
REMARK    5  A    between atoms: N_25  and  C_26
REMARK    6  A    between atoms: C_29  and  O_30
REMARK    7  A    between atoms: O_30  and  C_31
REMARK                            x       y       z     vdW  Elec       q    Type
REMARK                         _______ _______ _______ _____ _____    ______ ____
ROOT
ATOM     14  C   UNL     1      -1.270  -9.364  11.165  0.00  0.00    +0.155 C 
ATOM     15  C   UNL     1      -1.357  -9.994  11.690  0.00  0.00    +0.166 C 
ATOM     16  O   UNL     1      -2.111 -10.310  11.586  0.00  0.00    -0.348 OA
ATOM     17  C   UNL     1      -2.491  -9.875  10.997  0.00  0.00    +0.186 C 
ATOM     18  C   UNL     1      -3.192  -9.801  10.568  0.00  0.00    +0.229 C 
ATOM     19  C   UNL     1      -3.106  -9.171  10.044  0.00  0.00    +0.188 C 
ATOM     20  O   UNL     1      -2.351  -8.855  10.148  0.00  0.00    -0.348 OA
ATOM     21  C   UNL     1      -1.971  -9.290  10.737  0.00  0.00    +0.168 C 
ENDROOT
BRANCH  14  13
ATOM      8  C   UNL     1       0.650  -7.574  12.298  0.00  0.00    +0.086 A 
ATOM      9  C   UNL     1       0.269  -7.627  13.027  0.00  0.00    +0.040 A 
ATOM     10  C   UNL     1      -0.401  -8.102  13.109  0.00  0.00    +0.103 A 
ATOM     11  N   UNL     1      -0.691  -8.522  12.462  0.00  0.00    -0.211 NA
ATOM     12  C   UNL     1      -0.310  -8.469  11.731  0.00  0.00    +0.237 A 
ATOM     13  N   UNL     1      -0.600  -8.889  11.083  0.00  0.00    -0.200 NA
ATOM     39  N   UNL     1       0.360  -7.995  11.650  0.00  0.00    -0.212 NA
BRANCH   8   4
ATOM      1  F   UNL     1       3.441  -7.308  11.744  0.00  0.00    -0.204 F 
ATOM      2  C   UNL     1       2.715  -6.967  11.939  0.00  0.00    +0.140 A 
ATOM      3  C   UNL     1       2.045  -7.441  12.021  0.00  0.00    +0.031 A 
ATOM      4  C   UNL     1       1.320  -7.100  12.216  0.00  0.00    +0.020 A 
ATOM      5  C   UNL     1       1.264  -6.285  12.329  0.00  0.00    +0.002 A 
ATOM      6  C   UNL     1       1.935  -5.811  12.248  0.00  0.00    +0.002 A 
ATOM      7  C   UNL     1       2.660  -6.151  12.053  0.00  0.00    +0.030 A 
ENDBRANCH   8   4
ENDBRANCH  14  13
BRANCH  18  22
ATOM     22  O   UNL     1      -3.863 -10.275  10.650  0.00  0.00    -0.432 OA
BRANCH  22  23
ATOM     23  C   UNL     1      -4.572 -10.052  10.294  0.00  0.00    +0.425 C 
ATOM     24  O   UNL     1      -4.965  -9.373  10.548  0.00  0.00    -0.224 OA
ATOM     25  N   UNL     1      -4.889 -10.507   9.684  0.00  0.00    -0.142 NA
BRANCH  25  26
ATOM     26  C   UNL     1      -5.599 -10.284   9.327  0.00  0.00    +0.077 A 
ATOM     27  C   UNL     1      -5.590  -9.863   8.618  0.00  0.00    +0.020 A 
ATOM     28  C   UNL     1      -6.299  -9.640   8.262  0.00  0.00    +0.039 A 
ATOM     29  C   UNL     1      -7.019  -9.838   8.614  0.00  0.00    +0.145 A 
ATOM     37  C   UNL     1      -7.028 -10.259   9.324  0.00  0.00    +0.039 A 
ATOM     38  C   UNL     1      -6.318 -10.482   9.680  0.00  0.00    +0.020 A 
BRANCH  29  30
ATOM     30  O   UNL     1      -7.728  -9.615   8.259  0.00  0.00    -0.453 OA
BRANCH  30  31
ATOM     31  C   UNL     1      -8.103  -8.917   8.489  0.00  0.00    +0.145 A 
ATOM     32  C   UNL     1      -8.674  -8.933   9.084  0.00  0.00    +0.037 A 
ATOM     33  C   UNL     1      -9.049  -8.235   9.315  0.00  0.00    +0.003 A 
ATOM     34  C   UNL     1      -8.853  -7.521   8.949  0.00  0.00    +0.000 A 
ATOM     35  C   UNL     1      -8.283  -7.506   8.354  0.00  0.00    +0.003 A 
ATOM     36  C   UNL     1      -7.908  -8.203   8.124  0.00  0.00    +0.037 A 
ENDBRANCH  30  31
ENDBRANCH  29  30
ENDBRANCH  25  26
ENDBRANCH  22  23
ENDBRANCH  18  22
TORSDOF 7
ENDMDL
