MODEL 1
REMARK VINA RESULT:     -10.9      0.000      0.000
REMARK  Name = 
REMARK  3 active torsions:
REMARK  status: ('A' for Active; 'I' for Inactive)
REMARK    1  A    between atoms: C_6  and  C_7
REMARK    2  A    between atoms: C_10  and  C_12
REMARK    3  A    between atoms: C_17  and  C_19
REMARK                            x       y       z     vdW  Elec       q    Type
REMARK                         _______ _______ _______ _____ _____    ______ ____
ROOT
ATOM     12  C   UNL     1      -4.559   1.389  24.713  0.00  0.00    +0.100 C 
ATOM     13  C   UNL     1      -5.366   1.500  24.841  0.00  0.00    +0.033 C 
ATOM     14  C   UNL     1      -5.479   2.273  25.105  0.00  0.00    +0.094 C 
ATOM     15  N   UNL     1      -4.741   2.641  25.140  0.00  0.00    -0.276 N 
ATOM     16  C   UNL     1      -4.172   2.095  24.898  0.00  0.00    +0.103 C 
ATOM     17  C   UNL     1      -4.597   3.419  25.376  0.00  0.00    +0.249 C 
ATOM     18  O   UNL     1      -5.226   3.903  25.604  0.00  0.00    -0.270 OA
ENDROOT
BRANCH  17  19
ATOM     19  C   UNL     1      -3.827   3.712  25.383  0.00  0.00    +0.057 A 
ATOM     20  C   UNL     1      -3.393   3.713  26.084  0.00  0.00    +0.025 A 
ATOM     21  C   UNL     1      -2.621   4.007  26.091  0.00  0.00    +0.099 A 
ATOM     22  N   UNL     1      -2.285   4.298  25.397  0.00  0.00    -0.242 NA
ATOM     23  C   UNL     1      -2.719   4.296  24.695  0.00  0.00    +0.099 A 
ATOM     24  C   UNL     1      -3.489   4.003  24.688  0.00  0.00    +0.025 A 
ENDBRANCH  17  19
BRANCH  12  10
ATOM      7  C   UNL     1      -3.861  -0.589  24.316  0.00  0.00    +0.267 A 
ATOM      8  N   UNL     1      -3.434  -0.154  23.759  0.00  0.00    -0.106 NA
ATOM      9  N   UNL     1      -3.643   0.640  23.840  0.00  0.00    -0.111 NA
ATOM     10  C   UNL     1      -4.200   0.696  24.447  0.00  0.00    +0.228 A 
ATOM     11  O   UNL     1      -4.334  -0.063  24.741  0.00  0.00    -0.418 OA
BRANCH   7   6
ATOM      1  C   UNL     1      -3.055  -1.429  25.682  0.00  0.00    +0.132 C 
ATOM      2  N   UNL     1      -3.451  -1.791  25.055  0.00  0.00    -0.303 N 
ATOM      3  C   UNL     1      -3.546  -2.604  24.947  0.00  0.00    +0.179 A 
ATOM      4  N   UNL     1      -3.975  -2.720  24.252  0.00  0.00    -0.222 NA
ATOM      5  C   UNL     1      -4.145  -1.979  23.931  0.00  0.00    +0.123 A 
ATOM      6  C   UNL     1      -3.821  -1.405  24.428  0.00  0.00    +0.136 A 
ENDBRANCH   7   6
ENDBRANCH  12  10
TORSDOF 3
ENDMDL
MODEL 2
REMARK VINA RESULT:     -10.6      1.712      2.131
REMARK  Name = 
REMARK  3 active torsions:
REMARK  status: ('A' for Active; 'I' for Inactive)
REMARK    1  A    between atoms: C_6  and  C_7
REMARK    2  A    between atoms: C_10  and  C_12
REMARK    3  A    between atoms: C_17  and  C_19
REMARK                            x       y       z     vdW  Elec       q    Type
REMARK                         _______ _______ _______ _____ _____    ______ ____
ROOT
ATOM     12  C   UNL     1      -3.521   2.124  24.798  0.00  0.00    +0.100 C 
ATOM     13  C   UNL     1      -3.892   2.836  24.612  0.00  0.00    +0.033 C 
ATOM     14  C   UNL     1      -3.326   3.436  24.650  0.00  0.00    +0.094 C 
ATOM     15  N   UNL     1      -2.605   3.093  24.860  0.00  0.00    -0.276 N 
ATOM     16  C   UNL     1      -2.726   2.283  24.951  0.00  0.00    +0.103 C 
ATOM     17  C   UNL     1      -1.890   3.492  24.961  0.00  0.00    +0.249 C 
ATOM     18  O   UNL     1      -1.855   4.309  24.849  0.00  0.00    -0.270 OA
ENDROOT
BRANCH  17  19
ATOM     19  C   UNL     1      -1.212   3.074  25.172  0.00  0.00    +0.057 A 
ATOM     20  C   UNL     1      -0.719   2.764  24.587  0.00  0.00    +0.025 A 
ATOM     21  C   UNL     1      -0.040   2.346  24.799  0.00  0.00    +0.099 A 
ATOM     22  N   UNL     1       0.146   2.238  25.595  0.00  0.00    -0.242 NA
ATOM     23  C   UNL     1      -0.346   2.548  26.180  0.00  0.00    +0.099 A 
ATOM     24  C   UNL     1      -1.025   2.966  25.968  0.00  0.00    +0.025 A 
ENDBRANCH  17  19
BRANCH  12  10
ATOM      7  C   UNL     1      -4.092   0.068  24.723  0.00  0.00    +0.267 A 
ATOM      8  N   UNL     1      -4.780   0.413  25.017  0.00  0.00    -0.106 NA
ATOM      9  N   UNL     1      -4.650   1.226  25.082  0.00  0.00    -0.111 NA
ATOM     10  C   UNL     1      -3.881   1.382  24.826  0.00  0.00    +0.228 A 
ATOM     11  O   UNL     1      -3.536   0.667  24.604  0.00  0.00    -0.418 OA
BRANCH   7   6
ATOM      1  C   UNL     1      -3.413  -1.135  25.869  0.00  0.00    +0.132 C 
ATOM      2  N   UNL     1      -3.667  -1.288  25.099  0.00  0.00    -0.303 N 
ATOM      3  C   UNL     1      -3.653  -2.022  24.721  0.00  0.00    +0.179 A 
ATOM      4  N   UNL     1      -3.956  -1.922  23.960  0.00  0.00    -0.222 NA
ATOM      5  C   UNL     1      -4.158  -1.127  23.868  0.00  0.00    +0.123 A 
ATOM      6  C   UNL     1      -3.979  -0.736  24.572  0.00  0.00    +0.136 A 
ENDBRANCH   7   6
ENDBRANCH  12  10
TORSDOF 3
ENDMDL
MODEL 3
REMARK VINA RESULT:     -10.3      2.120      3.022
REMARK  Name = 
REMARK  3 active torsions:
REMARK  status: ('A' for Active; 'I' for Inactive)
REMARK    1  A    between atoms: C_6  and  C_7
REMARK    2  A    between atoms: C_10  and  C_12
REMARK    3  A    between atoms: C_17  and  C_19
REMARK                            x       y       z     vdW  Elec       q    Type
REMARK                         _______ _______ _______ _____ _____    ______ ____
ROOT
ATOM     12  C   UNL     1      -2.129   2.616  25.046  0.00  0.00    +0.100 C 
ATOM     13  C   UNL     1      -1.896   3.360  24.775  0.00  0.00    +0.033 C 
ATOM     14  C   UNL     1      -2.577   3.810  24.650  0.00  0.00    +0.094 C 
ATOM     15  N   UNL     1      -3.230   3.343  24.844  0.00  0.00    -0.276 N 
ATOM     16  C   UNL     1      -2.953   2.606  25.088  0.00  0.00    +0.103 C 
ATOM     17  C   UNL     1      -4.021   3.575  24.801  0.00  0.00    +0.249 C 
ATOM     18  O   UNL     1      -4.215   4.335  24.545  0.00  0.00    -0.270 OA
ENDROOT
BRANCH  17  19
ATOM     19  C   UNL     1      -4.617   3.046  25.013  0.00  0.00    +0.057 A 
ATOM     20  C   UNL     1      -4.953   3.085  25.765  0.00  0.00    +0.025 A 
ATOM     21  C   UNL     1      -5.550   2.556  25.979  0.00  0.00    +0.099 A 
ATOM     22  N   UNL     1      -5.809   1.988  25.439  0.00  0.00    -0.242 NA
ATOM     23  C   UNL     1      -5.473   1.949  24.687  0.00  0.00    +0.099 A 
ATOM     24  C   UNL     1      -4.877   2.478  24.475  0.00  0.00    +0.025 A 
ENDBRANCH  17  19
BRANCH  12  10
ATOM      7  C   UNL     1      -1.077   0.777  25.307  0.00  0.00    +0.267 A 
ATOM      8  N   UNL     1      -0.625   1.286  25.772  0.00  0.00    -0.106 NA
ATOM      9  N   UNL     1      -0.964   2.037  25.731  0.00  0.00    -0.111 NA
ATOM     10  C   UNL     1      -1.626   1.992  25.240  0.00  0.00    +0.228 A 
ATOM     11  O   UNL     1      -1.696   1.213  24.978  0.00  0.00    -0.418 OA
BRANCH   7   6
ATOM      1  C   UNL     1      -0.119   0.057  23.971  0.00  0.00    +0.132 C 
ATOM      2  N   UNL     1      -0.495  -0.359  24.576  0.00  0.00    -0.303 N 
ATOM      3  C   UNL     1      -0.497  -1.178  24.674  0.00  0.00    +0.179 A 
ATOM      4  N   UNL     1      -0.939  -1.354  25.349  0.00  0.00    -0.222 NA
ATOM      5  C   UNL     1      -1.210  -0.643  25.668  0.00  0.00    +0.123 A 
ATOM      6  C   UNL     1      -0.935  -0.028  25.190  0.00  0.00    +0.136 A 
ENDBRANCH   7   6
ENDBRANCH  12  10
TORSDOF 3
ENDMDL
MODEL 4
REMARK VINA RESULT:     -10.2      1.593      4.962
REMARK  Name = 
REMARK  3 active torsions:
REMARK  status: ('A' for Active; 'I' for Inactive)
REMARK    1  A    between atoms: C_6  and  C_7
REMARK    2  A    between atoms: C_10  and  C_12
REMARK    3  A    between atoms: C_17  and  C_19
REMARK                            x       y       z     vdW  Elec       q    Type
REMARK                         _______ _______ _______ _____ _____    ______ ____
ROOT
ATOM     12  C   UNL     1      -2.339   0.843  24.538  0.00  0.00    +0.100 C 
ATOM     13  C   UNL     1      -1.525   0.965  24.588  0.00  0.00    +0.033 C 
ATOM     14  C   UNL     1      -1.165   0.236  24.727  0.00  0.00    +0.094 C 
ATOM     15  N   UNL     1      -1.758  -0.338  24.762  0.00  0.00    -0.276 N 
ATOM     16  C   UNL     1      -2.483   0.037  24.646  0.00  0.00    +0.103 C 
ATOM     17  C   UNL     1      -1.644  -1.145  24.892  0.00  0.00    +0.249 C 
ATOM     18  O   UNL     1      -0.882  -1.441  25.000  0.00  0.00    -0.270 OA
ENDROOT
BRANCH  17  19
ATOM     19  C   UNL     1      -2.292  -1.654  24.914  0.00  0.00    +0.057 A 
ATOM     20  C   UNL     1      -2.480  -2.110  24.253  0.00  0.00    +0.025 A 
ATOM     21  C   UNL     1      -3.129  -2.621  24.274  0.00  0.00    +0.099 A 
ATOM     22  N   UNL     1      -3.589  -2.673  24.957  0.00  0.00    -0.242 NA
ATOM     23  C   UNL     1      -3.401  -2.216  25.617  0.00  0.00    +0.099 A 
ATOM     24  C   UNL     1      -2.753  -1.707  25.596  0.00  0.00    +0.025 A 
ENDBRANCH  17  19
BRANCH  12  10
ATOM      7  C   UNL     1      -3.867   2.333  24.602  0.00  0.00    +0.267 A 
ATOM      8  N   UNL     1      -3.710   2.300  23.793  0.00  0.00    -0.106 NA
ATOM      9  N   UNL     1      -3.118   1.738  23.670  0.00  0.00    -0.111 NA
ATOM     10  C   UNL     1      -2.910   1.423  24.404  0.00  0.00    +0.228 A 
ATOM     11  O   UNL     1      -3.373   1.791  24.980  0.00  0.00    -0.418 OA
BRANCH   7   6
ATOM      1  C   UNL     1      -5.575   1.910  24.957  0.00  0.00    +0.132 C 
ATOM      2  N   UNL     1      -5.206   2.627  25.132  0.00  0.00    -0.303 N 
ATOM      3  C   UNL     1      -5.558   3.277  25.501  0.00  0.00    +0.179 A 
ATOM      4  N   UNL     1      -4.990   3.872  25.566  0.00  0.00    -0.222 NA
ATOM      5  C   UNL     1      -4.288   3.591  25.237  0.00  0.00    +0.123 A 
ATOM      6  C   UNL     1      -4.421   2.822  24.969  0.00  0.00    +0.136 A 
ENDBRANCH   7   6
ENDBRANCH  12  10
TORSDOF 3
ENDMDL
MODEL 5
REMARK VINA RESULT:     -10.2      1.398      1.994
REMARK  Name = 
REMARK  3 active torsions:
REMARK  status: ('A' for Active; 'I' for Inactive)
REMARK    1  A    between atoms: C_6  and  C_7
REMARK    2  A    between atoms: C_10  and  C_12
REMARK    3  A    between atoms: C_17  and  C_19
REMARK                            x       y       z     vdW  Elec       q    Type
REMARK                         _______ _______ _______ _____ _____    ______ ____
ROOT
ATOM     12  C   UNL     1      -2.893   1.128  24.166  0.00  0.00    +0.100 C 
ATOM     13  C   UNL     1      -2.595   1.441  23.463  0.00  0.00    +0.033 C 
ATOM     14  C   UNL     1      -2.954   2.174  23.338  0.00  0.00    +0.094 C 
ATOM     15  N   UNL     1      -3.475   2.313  23.963  0.00  0.00    -0.276 N 
ATOM     16  C   UNL     1      -3.437   1.667  24.474  0.00  0.00    +0.103 C 
ATOM     17  C   UNL     1      -3.950   2.980  24.059  0.00  0.00    +0.249 C 
ATOM     18  O   UNL     1      -3.928   3.586  23.498  0.00  0.00    -0.270 OA
ENDROOT
BRANCH  17  19
ATOM     19  C   UNL     1      -4.445   3.043  24.715  0.00  0.00    +0.057 A 
ATOM     20  C   UNL     1      -4.215   3.497  25.364  0.00  0.00    +0.025 A 
ATOM     21  C   UNL     1      -4.711   3.559  26.021  0.00  0.00    +0.099 A 
ATOM     22  N   UNL     1      -5.437   3.168  26.028  0.00  0.00    -0.242 NA
ATOM     23  C   UNL     1      -5.667   2.714  25.378  0.00  0.00    +0.099 A 
ATOM     24  C   UNL     1      -5.172   2.652  24.723  0.00  0.00    +0.025 A 
ENDBRANCH  17  19
BRANCH  12  10
ATOM      7  C   UNL     1      -2.657  -0.898  24.795  0.00  0.00    +0.267 A 
ATOM      8  N   UNL     1      -2.071  -0.524  25.239  0.00  0.00    -0.106 NA
ATOM      9  N   UNL     1      -2.088   0.281  25.057  0.00  0.00    -0.111 NA
ATOM     10  C   UNL     1      -2.685   0.404  24.501  0.00  0.00    +0.228 A 
ATOM     11  O   UNL     1      -3.037  -0.325  24.339  0.00  0.00    -0.418 OA
BRANCH   7   6
ATOM      1  C   UNL     1      -1.585  -2.219  24.225  0.00  0.00    +0.132 C 
ATOM      2  N   UNL     1      -2.340  -2.311  24.543  0.00  0.00    -0.303 N 
ATOM      3  C   UNL     1      -2.735  -3.027  24.656  0.00  0.00    +0.179 A 
ATOM      4  N   UNL     1      -3.472  -2.862  24.988  0.00  0.00    -0.222 NA
ATOM      5  C   UNL     1      -3.533  -2.045  25.080  0.00  0.00    +0.123 A 
ATOM      6  C   UNL     1      -2.833  -1.704  24.806  0.00  0.00    +0.136 A 
ENDBRANCH   7   6
ENDBRANCH  12  10
TORSDOF 3
ENDMDL
MODEL 6
REMARK VINA RESULT:     -10.2      2.401      2.958
REMARK  Name = 
REMARK  3 active torsions:
REMARK  status: ('A' for Active; 'I' for Inactive)
REMARK    1  A    between atoms: C_6  and  C_7
REMARK    2  A    between atoms: C_10  and  C_12
REMARK    3  A    between atoms: C_17  and  C_19
REMARK                            x       y       z     vdW  Elec       q    Type
REMARK                         _______ _______ _______ _____ _____    ______ ____
ROOT
ATOM     12  C   UNL     1      -3.151   0.326  24.882  0.00  0.00    +0.100 C 
ATOM     13  C   UNL     1      -3.764  -0.227  24.874  0.00  0.00    +0.033 C 
ATOM     14  C   UNL     1      -4.479   0.185  24.856  0.00  0.00    +0.094 C 
ATOM     15  N   UNL     1      -4.308   0.992  24.854  0.00  0.00    -0.276 N 
ATOM     16  C   UNL     1      -3.488   1.079  24.870  0.00  0.00    +0.103 C 
ATOM     17  C   UNL     1      -4.861   1.605  24.838  0.00  0.00    +0.249 C 
ATOM     18  O   UNL     1      -5.667   1.431  24.822  0.00  0.00    -0.270 OA
ENDROOT
BRANCH  17  19
ATOM     19  C   UNL     1      -4.607   2.389  24.838  0.00  0.00    +0.057 A 
ATOM     20  C   UNL     1      -4.593   2.818  25.542  0.00  0.00    +0.025 A 
ATOM     21  C   UNL     1      -4.339   3.604  25.542  0.00  0.00    +0.099 A 
ATOM     22  N   UNL     1      -4.099   3.959  24.838  0.00  0.00    -0.242 NA
ATOM     23  C   UNL     1      -4.112   3.530  24.133  0.00  0.00    +0.099 A 
ATOM     24  C   UNL     1      -4.366   2.745  24.133  0.00  0.00    +0.025 A 
ENDBRANCH  17  19
BRANCH  12  10
ATOM      7  C   UNL     1      -1.067   0.018  24.537  0.00  0.00    +0.267 A 
ATOM      8  N   UNL     1      -1.137  -0.230  25.320  0.00  0.00    -0.106 NA
ATOM      9  N   UNL     1      -1.927  -0.146  25.545  0.00  0.00    -0.111 NA
ATOM     10  C   UNL     1      -2.345   0.156  24.900  0.00  0.00    +0.228 A 
ATOM     11  O   UNL     1      -1.813   0.257  24.277  0.00  0.00    -0.418 OA
BRANCH   7   6
ATOM      1  C   UNL     1      -0.007   1.441  24.262  0.00  0.00    +0.132 C 
ATOM      2  N   UNL     1       0.114   0.681  23.965  0.00  0.00    -0.303 N 
ATOM      3  C   UNL     1       0.744   0.441  23.489  0.00  0.00    +0.179 A 
ATOM      4  N   UNL     1       0.647  -0.361  23.321  0.00  0.00    -0.222 NA
ATOM      5  C   UNL     1      -0.044  -0.617  23.693  0.00  0.00    +0.123 A 
ATOM      6  C   UNL     1      -0.373   0.027  24.091  0.00  0.00    +0.136 A 
ENDBRANCH   7   6
ENDBRANCH  12  10
TORSDOF 3
ENDMDL
MODEL 7
REMARK VINA RESULT:     -10.0      2.177      2.743
REMARK  Name = 
REMARK  3 active torsions:
REMARK  status: ('A' for Active; 'I' for Inactive)
REMARK    1  A    between atoms: C_6  and  C_7
REMARK    2  A    between atoms: C_10  and  C_12
REMARK    3  A    between atoms: C_17  and  C_19
REMARK                            x       y       z     vdW  Elec       q    Type
REMARK                         _______ _______ _______ _____ _____    ______ ____
ROOT
ATOM     12  C   UNL     1      -1.018   1.161  25.051  0.00  0.00    +0.100 C 
ATOM     13  C   UNL     1      -0.286   1.363  24.729  0.00  0.00    +0.033 C 
ATOM     14  C   UNL     1      -0.277   2.179  24.607  0.00  0.00    +0.094 C 
ATOM     15  N   UNL     1      -1.004   2.482  24.854  0.00  0.00    -0.276 N 
ATOM     16  C   UNL     1      -1.462   1.853  25.128  0.00  0.00    +0.103 C 
ATOM     17  C   UNL     1      -1.232   3.274  24.830  0.00  0.00    +0.249 C 
ATOM     18  O   UNL     1      -0.712   3.844  24.539  0.00  0.00    -0.270 OA
ENDROOT
BRANCH  17  19
ATOM     19  C   UNL     1      -1.980   3.496  25.097  0.00  0.00    +0.057 A 
ATOM     20  C   UNL     1      -2.080   3.761  25.872  0.00  0.00    +0.025 A 
ATOM     21  C   UNL     1      -2.829   3.982  26.140  0.00  0.00    +0.099 A 
ATOM     22  N   UNL     1      -3.477   3.939  25.632  0.00  0.00    -0.242 NA
ATOM     23  C   UNL     1      -3.377   3.674  24.857  0.00  0.00    +0.099 A 
ATOM     24  C   UNL     1      -2.630   3.453  24.590  0.00  0.00    +0.025 A 
ENDBRANCH  17  19
BRANCH  12  10
ATOM      7  C   UNL     1      -1.865  -0.790  25.235  0.00  0.00    +0.267 A 
ATOM      8  N   UNL     1      -1.420  -0.743  25.928  0.00  0.00    -0.106 NA
ATOM      9  N   UNL     1      -1.049  -0.006  25.944  0.00  0.00    -0.111 NA
ATOM     10  C   UNL     1      -1.264   0.402  25.260  0.00  0.00    +0.228 A 
ATOM     11  O   UNL     1      -1.768  -0.082  24.822  0.00  0.00    -0.418 OA
BRANCH   7   6
ATOM      1  C   UNL     1      -3.589  -1.064  25.652  0.00  0.00    +0.132 C 
ATOM      2  N   UNL     1      -3.117  -1.558  25.188  0.00  0.00    -0.303 N 
ATOM      3  C   UNL     1      -3.356  -2.264  24.835  0.00  0.00    +0.179 A 
ATOM      4  N   UNL     1      -2.711  -2.575  24.424  0.00  0.00    -0.222 NA
ATOM      5  C   UNL     1      -2.074  -2.060  24.525  0.00  0.00    +0.123 A 
ATOM      6  C   UNL     1      -2.325  -1.432  24.997  0.00  0.00    +0.136 A 
ENDBRANCH   7   6
ENDBRANCH  12  10
TORSDOF 3
ENDMDL
