MODEL 1
REMARK VINA RESULT:     -11.6      0.000      0.000
REMARK  Name = 
REMARK  5 active torsions:
REMARK  status: ('A' for Active; 'I' for Inactive)
REMARK    1  A    between atoms: C_2  and  C_4
REMARK    2  A    between atoms: C_4  and  C_5
REMARK    3  A    between atoms: C_7  and  C_25
REMARK    4  A    between atoms: N_11  and  C_12
REMARK    5  A    between atoms: C_12  and  C_13
REMARK                            x       y       z     vdW  Elec       q    Type
REMARK                         _______ _______ _______ _____ _____    ______ ____
ROOT
ATOM      5  C   UNL     1      -3.516   2.517  24.834  0.00  0.00    +0.095 C 
ATOM      6  N   UNL     1      -2.736   2.564  24.569  0.00  0.00    -0.207 NA
ATOM      7  C   UNL     1      -2.255   1.960  24.276  0.00  0.00    +0.154 C 
ATOM      8  C   UNL     1      -2.436   1.162  24.176  0.00  0.00    +0.055 C 
ATOM      9  C   UNL     1      -3.142   0.769  24.344  0.00  0.00    -0.002 A 
ATOM     10  C   UNL     1      -3.254  -0.038  24.218  0.00  0.00    +0.072 A 
ATOM     11  N   UNL     1      -4.023  -0.229  24.450  0.00  0.00    -0.319 N 
ATOM     19  C   UNL     1      -4.386   0.462  24.719  0.00  0.00    +0.060 A 
ATOM     20  C   UNL     1      -3.842   1.079  24.654  0.00  0.00    +0.011 A 
ATOM     21  C   UNL     1      -4.007   1.857  24.871  0.00  0.00    -0.005 A 
ATOM     22  C   UNL     1      -4.809   1.988  25.180  0.00  0.00    -0.003 A 
ATOM     23  C   UNL     1      -5.353   1.372  25.246  0.00  0.00    +0.001 A 
ATOM     24  C   UNL     1      -5.142   0.609  25.015  0.00  0.00    +0.017 A 
ENDROOT
BRANCH   7  25
ATOM     25  C   UNL     1      -1.493   2.186  24.054  0.00  0.00    +0.242 C 
ATOM     26  O   UNL     1      -1.343   2.424  23.279  0.00  0.00    -0.273 OA
ATOM     27  N   UNL     1      -0.881   2.173  24.609  0.00  0.00    -0.273 N 
ATOM     28  C   UNL     1      -0.120   2.399  24.387  0.00  0.00    +0.126 C 
ATOM     29  C   UNL     1       0.491   2.386  24.941  0.00  0.00    +0.164 C 
ATOM     30  O   UNL     1       0.340   2.148  25.717  0.00  0.00    -0.350 OA
ATOM     31  C   UNL     1      -0.421   1.923  25.938  0.00  0.00    +0.164 C 
ATOM     32  C   UNL     1      -1.033   1.935  25.384  0.00  0.00    +0.126 C 
ENDBRANCH   7  25
BRANCH   5   4
ATOM      4  C   UNL     1      -3.847   3.226  25.095  0.00  0.00    +0.022 C 
BRANCH   4   2
ATOM      1  C   UNL     1      -3.977   4.076  23.953  0.00  0.00    +0.000 C 
ATOM      2  C   UNL     1      -3.670   3.933  24.706  0.00  0.00    +0.002 C 
ATOM      3  C   UNL     1      -3.188   4.494  25.070  0.00  0.00    +0.000 C 
ENDBRANCH   4   2
ENDBRANCH   5   4
BRANCH  11  12
ATOM     12  C   UNL     1      -4.368  -0.977  24.418  0.00  0.00    +0.170 C 
BRANCH  12  13
ATOM     13  C   UNL     1      -3.938  -1.641  24.650  0.00  0.00    +0.144 A 
ATOM     14  N   UNL     1      -3.462  -1.700  25.322  0.00  0.00    -0.227 NA
ATOM     15  C   UNL     1      -3.137  -2.458  25.338  0.00  0.00    +0.119 A 
ATOM     16  C   UNL     1      -3.412  -2.867  24.676  0.00  0.00    +0.098 A 
ATOM     17  N   UNL     1      -3.907  -2.362  24.252  0.00  0.00    -0.310 N 
ATOM     18  C   UNL     1      -4.302  -2.546  23.551  0.00  0.00    +0.132 C 
ENDBRANCH  12  13
ENDBRANCH  11  12
TORSDOF 5
ENDMDL
MODEL 2
REMARK VINA RESULT:     -11.3      1.639      3.133
REMARK  Name = 
REMARK  5 active torsions:
REMARK  status: ('A' for Active; 'I' for Inactive)
REMARK    1  A    between atoms: C_2  and  C_4
REMARK    2  A    between atoms: C_4  and  C_5
REMARK    3  A    between atoms: C_7  and  C_25
REMARK    4  A    between atoms: N_11  and  C_12
REMARK    5  A    between atoms: C_12  and  C_13
REMARK                            x       y       z     vdW  Elec       q    Type
REMARK                         _______ _______ _______ _____ _____    ______ ____
ROOT
ATOM      5  C   UNL     1      -1.745   3.039  25.243  0.00  0.00    +0.095 C 
ATOM      6  N   UNL     1      -2.482   3.280  24.961  0.00  0.00    -0.207 NA
ATOM      7  C   UNL     1      -3.095   2.816  24.662  0.00  0.00    +0.154 C 
ATOM      8  C   UNL     1      -3.123   1.997  24.571  0.00  0.00    +0.055 C 
ATOM      9  C   UNL     1      -2.545   1.438  24.758  0.00  0.00    -0.002 A 
ATOM     10  C   UNL     1      -2.641   0.628  24.640  0.00  0.00    +0.072 A 
ATOM     11  N   UNL     1      -1.951   0.250  24.890  0.00  0.00    -0.319 N 
ATOM     19  C   UNL     1      -1.428   0.827  25.162  0.00  0.00    +0.060 A 
ATOM     20  C   UNL     1      -1.796   1.562  25.081  0.00  0.00    +0.011 A 
ATOM     21  C   UNL     1      -1.440   2.275  25.297  0.00  0.00    -0.005 A 
ATOM     22  C   UNL     1      -0.639   2.201  25.622  0.00  0.00    -0.003 A 
ATOM     23  C   UNL     1      -0.271   1.467  25.704  0.00  0.00    +0.001 A 
ATOM     24  C   UNL     1      -0.667   0.780  25.474  0.00  0.00    +0.017 A 
ENDROOT
BRANCH   7  25
ATOM     25  C   UNL     1      -3.770   3.226  24.421  0.00  0.00    +0.242 C 
ATOM     26  O   UNL     1      -3.817   3.530  23.656  0.00  0.00    -0.273 OA
ATOM     27  N   UNL     1      -4.397   3.332  24.947  0.00  0.00    -0.273 N 
ATOM     28  C   UNL     1      -5.071   3.742  24.707  0.00  0.00    +0.126 C 
ATOM     29  C   UNL     1      -5.699   3.848  25.233  0.00  0.00    +0.164 C 
ATOM     30  O   UNL     1      -5.651   3.544  25.998  0.00  0.00    -0.350 OA
ATOM     31  C   UNL     1      -4.977   3.134  26.237  0.00  0.00    +0.164 C 
ATOM     32  C   UNL     1      -4.350   3.028  25.712  0.00  0.00    +0.126 C 
ENDBRANCH   7  25
BRANCH   5   4
ATOM      4  C   UNL     1      -1.249   3.642  25.508  0.00  0.00    +0.022 C 
BRANCH   4   2
ATOM      1  C   UNL     1      -0.722   4.339  24.376  0.00  0.00    +0.000 C 
ATOM      2  C   UNL     1      -1.173   4.336  25.067  0.00  0.00    +0.002 C 
ATOM      3  C   UNL     1      -1.549   5.027  25.318  0.00  0.00    +0.000 C 
ENDBRANCH   4   2
ENDBRANCH   5   4
BRANCH  11  12
ATOM     12  C   UNL     1      -1.808  -0.562  24.871  0.00  0.00    +0.170 C 
BRANCH  12  13
ATOM     13  C   UNL     1      -2.411  -1.092  25.058  0.00  0.00    +0.144 A 
ATOM     14  N   UNL     1      -3.059  -0.937  25.545  0.00  0.00    -0.227 NA
ATOM     15  C   UNL     1      -3.521  -1.620  25.580  0.00  0.00    +0.119 A 
ATOM     16  C   UNL     1      -3.159  -2.196  25.114  0.00  0.00    +0.098 A 
ATOM     17  N   UNL     1      -2.473  -1.870  24.792  0.00  0.00    -0.310 N 
ATOM     18  C   UNL     1      -1.942  -2.255  24.291  0.00  0.00    +0.132 C 
ENDBRANCH  12  13
ENDBRANCH  11  12
TORSDOF 5
ENDMDL
MODEL 3
REMARK VINA RESULT:     -11.0      1.687      4.224
REMARK  Name = 
REMARK  5 active torsions:
REMARK  status: ('A' for Active; 'I' for Inactive)
REMARK    1  A    between atoms: C_2  and  C_4
REMARK    2  A    between atoms: C_4  and  C_5
REMARK    3  A    between atoms: C_7  and  C_25
REMARK    4  A    between atoms: N_11  and  C_12
REMARK    5  A    between atoms: C_12  and  C_13
REMARK                            x       y       z     vdW  Elec       q    Type
REMARK                         _______ _______ _______ _____ _____    ______ ____
ROOT
ATOM      5  C   UNL     1      -3.162  -0.521  24.572  0.00  0.00    +0.095 C 
ATOM      6  N   UNL     1      -2.358  -0.685  24.657  0.00  0.00    -0.207 NA
ATOM      7  C   UNL     1      -1.744  -0.166  24.842  0.00  0.00    +0.154 C 
ATOM      8  C   UNL     1      -1.782   0.645  24.987  0.00  0.00    +0.055 C 
ATOM      9  C   UNL     1      -2.444   1.138  24.984  0.00  0.00    -0.002 A 
ATOM     10  C   UNL     1      -2.409   1.947  25.139  0.00  0.00    +0.072 A 
ATOM     11  N   UNL     1      -3.175   2.251  25.086  0.00  0.00    -0.319 N 
ATOM     19  C   UNL     1      -3.683   1.629  24.897  0.00  0.00    +0.060 A 
ATOM     20  C   UNL     1      -3.231   0.940  24.834  0.00  0.00    +0.011 A 
ATOM     21  C   UNL     1      -3.550   0.202  24.651  0.00  0.00    -0.005 A 
ATOM     22  C   UNL     1      -4.410   0.195  24.526  0.00  0.00    -0.003 A 
ATOM     23  C   UNL     1      -4.862   0.882  24.589  0.00  0.00    +0.001 A 
ATOM     24  C   UNL     1      -4.498   1.599  24.775  0.00  0.00    +0.017 A 
ENDROOT
BRANCH   7  25
ATOM     25  C   UNL     1      -0.992  -0.503  24.887  0.00  0.00    +0.242 C 
ATOM     26  O   UNL     1      -0.775  -0.939  25.553  0.00  0.00    -0.273 OA
ATOM     27  N   UNL     1      -0.457  -0.404  24.266  0.00  0.00    -0.273 N 
ATOM     28  C   UNL     1       0.294  -0.740  24.311  0.00  0.00    +0.126 C 
ATOM     29  C   UNL     1       0.828  -0.641  23.689  0.00  0.00    +0.164 C 
ATOM     30  O   UNL     1       0.610  -0.205  23.024  0.00  0.00    -0.350 OA
ATOM     31  C   UNL     1      -0.141   0.131  22.979  0.00  0.00    +0.164 C 
ATOM     32  C   UNL     1      -0.675   0.032  23.600  0.00  0.00    +0.126 C 
ENDBRANCH   7  25
BRANCH   5   4
ATOM      4  C   UNL     1      -3.640  -1.166  24.384  0.00  0.00    +0.022 C 
BRANCH   4   2
ATOM      1  C   UNL     1      -3.574  -2.041  25.512  0.00  0.00    +0.000 C 
ATOM      2  C   UNL     1      -3.475  -1.909  24.704  0.00  0.00    +0.002 C 
ATOM      3  C   UNL     1      -3.212  -2.520  24.214  0.00  0.00    +0.000 C 
ENDBRANCH   4   2
ENDBRANCH   5   4
BRANCH  11  12
ATOM     12  C   UNL     1      -3.394   3.037  25.201  0.00  0.00    +0.170 C 
BRANCH  12  13
ATOM     13  C   UNL     1      -2.819   3.628  25.223  0.00  0.00    +0.144 A 
ATOM     14  N   UNL     1      -2.222   3.745  24.665  0.00  0.00    -0.227 NA
ATOM     15  C   UNL     1      -1.774   4.394  24.905  0.00  0.00    +0.119 A 
ATOM     16  C   UNL     1      -2.093   4.678  25.611  0.00  0.00    +0.098 A 
ATOM     17  N   UNL     1      -2.738   4.204  25.808  0.00  0.00    -0.310 N 
ATOM     18  C   UNL     1      -3.220   4.292  26.472  0.00  0.00    +0.132 C 
ENDBRANCH  12  13
ENDBRANCH  11  12
TORSDOF 5
ENDMDL
MODEL 4
REMARK VINA RESULT:     -10.9      1.454      3.541
REMARK  Name = 
REMARK  5 active torsions:
REMARK  status: ('A' for Active; 'I' for Inactive)
REMARK    1  A    between atoms: C_2  and  C_4
REMARK    2  A    between atoms: C_4  and  C_5
REMARK    3  A    between atoms: C_7  and  C_25
REMARK    4  A    between atoms: N_11  and  C_12
REMARK    5  A    between atoms: C_12  and  C_13
REMARK                            x       y       z     vdW  Elec       q    Type
REMARK                         _______ _______ _______ _____ _____    ______ ____
ROOT
ATOM      5  C   UNL     1      -1.911  -0.654  25.070  0.00  0.00    +0.095 C 
ATOM      6  N   UNL     1      -1.339  -0.166  24.731  0.00  0.00    -0.207 NA
ATOM      7  C   UNL     1      -1.434   0.584  24.399  0.00  0.00    +0.154 C 
ATOM      8  C   UNL     1      -2.123   1.031  24.326  0.00  0.00    +0.055 C 
ATOM      9  C   UNL     1      -2.889   0.838  24.566  0.00  0.00    -0.002 A 
ATOM     10  C   UNL     1      -3.537   1.337  24.461  0.00  0.00    +0.072 A 
ATOM     11  N   UNL     1      -4.203   0.959  24.768  0.00  0.00    -0.319 N 
ATOM     19  C   UNL     1      -3.967   0.226  25.063  0.00  0.00    +0.060 A 
ATOM     20  C   UNL     1      -3.154   0.151  24.939  0.00  0.00    +0.011 A 
ATOM     21  C   UNL     1      -2.718  -0.513  25.163  0.00  0.00    -0.005 A 
ATOM     22  C   UNL     1      -3.179  -1.141  25.546  0.00  0.00    -0.003 A 
ATOM     23  C   UNL     1      -3.991  -1.067  25.671  0.00  0.00    +0.001 A 
ATOM     24  C   UNL     1      -4.385  -0.383  25.429  0.00  0.00    +0.017 A 
ENDROOT
BRANCH   7  25
ATOM     25  C   UNL     1      -0.747   0.933  24.102  0.00  0.00    +0.242 C 
ATOM     26  O   UNL     1      -0.492   0.755  23.338  0.00  0.00    -0.273 OA
ATOM     27  N   UNL     1      -0.317   1.459  24.570  0.00  0.00    -0.273 N 
ATOM     28  C   UNL     1       0.369   1.808  24.273  0.00  0.00    +0.126 C 
ATOM     29  C   UNL     1       0.800   2.334  24.741  0.00  0.00    +0.164 C 
ATOM     30  O   UNL     1       0.544   2.511  25.505  0.00  0.00    -0.350 OA
ATOM     31  C   UNL     1      -0.142   2.162  25.801  0.00  0.00    +0.164 C 
ATOM     32  C   UNL     1      -0.572   1.636  25.334  0.00  0.00    +0.126 C 
ENDBRANCH   7  25
BRANCH   5   4
ATOM      4  C   UNL     1      -1.639  -1.378  25.355  0.00  0.00    +0.022 C 
BRANCH   4   2
ATOM      1  C   UNL     1      -1.327  -2.211  24.236  0.00  0.00    +0.000 C 
ATOM      2  C   UNL     1      -1.089  -1.813  24.919  0.00  0.00    +0.002 C 
ATOM      3  C   UNL     1      -0.302  -1.849  25.165  0.00  0.00    +0.000 C 
ENDBRANCH   4   2
ENDBRANCH   5   4
BRANCH  11  12
ATOM     12  C   UNL     1      -4.971   1.260  24.778  0.00  0.00    +0.170 C 
BRANCH  12  13
ATOM     13  C   UNL     1      -5.116   2.012  25.084  0.00  0.00    +0.144 A 
ATOM     14  N   UNL     1      -4.544   2.565  25.304  0.00  0.00    -0.227 NA
ATOM     15  C   UNL     1      -4.933   3.237  25.579  0.00  0.00    +0.119 A 
ATOM     16  C   UNL     1      -5.745   3.101  25.530  0.00  0.00    +0.098 A 
ATOM     17  N   UNL     1      -5.858   2.344  25.223  0.00  0.00    -0.310 N 
ATOM     18  C   UNL     1      -6.586   1.981  25.082  0.00  0.00    +0.132 C 
ENDBRANCH  12  13
ENDBRANCH  11  12
TORSDOF 5
ENDMDL
MODEL 5
REMARK VINA RESULT:     -10.5      1.706      2.720
REMARK  Name = 
REMARK  5 active torsions:
REMARK  status: ('A' for Active; 'I' for Inactive)
REMARK    1  A    between atoms: C_2  and  C_4
REMARK    2  A    between atoms: C_4  and  C_5
REMARK    3  A    between atoms: C_7  and  C_25
REMARK    4  A    between atoms: N_11  and  C_12
REMARK    5  A    between atoms: C_12  and  C_13
REMARK                            x       y       z     vdW  Elec       q    Type
REMARK                         _______ _______ _______ _____ _____    ______ ____
ROOT
ATOM      5  C   UNL     1      -4.406   1.364  25.127  0.00  0.00    +0.095 C 
ATOM      6  N   UNL     1      -4.144   2.107  24.881  0.00  0.00    -0.207 NA
ATOM      7  C   UNL     1      -3.426   2.308  24.527  0.00  0.00    +0.154 C 
ATOM      8  C   UNL     1      -2.794   1.815  24.330  0.00  0.00    +0.055 C 
ATOM      9  C   UNL     1      -2.723   1.001  24.439  0.00  0.00    -0.002 A 
ATOM     10  C   UNL     1      -2.057   0.569  24.217  0.00  0.00    +0.072 A 
ATOM     11  N   UNL     1      -2.188  -0.222  24.413  0.00  0.00    -0.319 N 
ATOM     19  C   UNL     1      -2.936  -0.279  24.756  0.00  0.00    +0.060 A 
ATOM     20  C   UNL     1      -3.267   0.477  24.773  0.00  0.00    +0.011 A 
ATOM     21  C   UNL     1      -4.016   0.640  25.079  0.00  0.00    -0.005 A 
ATOM     22  C   UNL     1      -4.443  -0.051  25.388  0.00  0.00    -0.003 A 
ATOM     23  C   UNL     1      -4.113  -0.807  25.372  0.00  0.00    +0.001 A 
ATOM     24  C   UNL     1      -3.359  -0.920  25.056  0.00  0.00    +0.017 A 
ENDROOT
BRANCH   7  25
ATOM     25  C   UNL     1      -3.329   3.107  24.345  0.00  0.00    +0.242 C 
ATOM     26  O   UNL     1      -3.680   3.421  23.668  0.00  0.00    -0.273 OA
ATOM     27  N   UNL     1      -2.879   3.590  24.840  0.00  0.00    -0.273 N 
ATOM     28  C   UNL     1      -2.781   4.388  24.658  0.00  0.00    +0.126 C 
ATOM     29  C   UNL     1      -2.331   4.872  25.154  0.00  0.00    +0.164 C 
ATOM     30  O   UNL     1      -1.980   4.556  25.830  0.00  0.00    -0.350 OA
ATOM     31  C   UNL     1      -2.078   3.758  26.011  0.00  0.00    +0.164 C 
ATOM     32  C   UNL     1      -2.527   3.275  25.517  0.00  0.00    +0.126 C 
ENDBRANCH   7  25
BRANCH   5   4
ATOM      4  C   UNL     1      -5.158   1.345  25.465  0.00  0.00    +0.022 C 
BRANCH   4   2
ATOM      1  C   UNL     1      -6.128   1.976  24.627  0.00  0.00    +0.000 C 
ATOM      2  C   UNL     1      -5.689   1.961  25.325  0.00  0.00    +0.002 C 
ATOM      3  C   UNL     1      -5.781   2.561  25.885  0.00  0.00    +0.000 C 
ENDBRANCH   4   2
ENDBRANCH   5   4
BRANCH  11  12
ATOM     12  C   UNL     1      -1.665  -0.847  24.287  0.00  0.00    +0.170 C 
BRANCH  12  13
ATOM     13  C   UNL     1      -0.868  -0.694  24.135  0.00  0.00    +0.144 A 
ATOM     14  N   UNL     1      -0.575  -0.139  23.600  0.00  0.00    -0.227 NA
ATOM     15  C   UNL     1       0.249  -0.172  23.624  0.00  0.00    +0.119 A 
ATOM     16  C   UNL     1       0.464  -0.747  24.174  0.00  0.00    +0.098 A 
ATOM     17  N   UNL     1      -0.226  -1.070  24.490  0.00  0.00    -0.310 N 
ATOM     18  C   UNL     1      -0.267  -1.665  25.060  0.00  0.00    +0.132 C 
ENDBRANCH  12  13
ENDBRANCH  11  12
TORSDOF 5
ENDMDL
MODEL 6
REMARK VINA RESULT:     -10.5      1.536      4.297
REMARK  Name = 
REMARK  5 active torsions:
REMARK  status: ('A' for Active; 'I' for Inactive)
REMARK    1  A    between atoms: C_2  and  C_4
REMARK    2  A    between atoms: C_4  and  C_5
REMARK    3  A    between atoms: C_7  and  C_25
REMARK    4  A    between atoms: N_11  and  C_12
REMARK    5  A    between atoms: C_12  and  C_13
REMARK                            x       y       z     vdW  Elec       q    Type
REMARK                         _______ _______ _______ _____ _____    ______ ____
ROOT
ATOM      5  C   UNL     1      -4.618   1.751  24.739  0.00  0.00    +0.095 C 
ATOM      6  N   UNL     1      -4.568   0.949  24.925  0.00  0.00    -0.207 NA
ATOM      7  C   UNL     1      -3.893   0.494  25.063  0.00  0.00    +0.154 C 
ATOM      8  C   UNL     1      -3.103   0.730  25.049  0.00  0.00    +0.055 C 
ATOM      9  C   UNL     1      -2.791   1.478  24.893  0.00  0.00    -0.002 A 
ATOM     10  C   UNL     1      -1.983   1.644  24.896  0.00  0.00    +0.072 A 
ATOM     11  N   UNL     1      -1.886   2.444  24.718  0.00  0.00    -0.319 N 
ATOM     19  C   UNL     1      -2.635   2.773  24.606  0.00  0.00    +0.060 A 
ATOM     20  C   UNL     1      -3.194   2.175  24.714  0.00  0.00    +0.011 A 
ATOM     21  C   UNL     1      -4.008   2.296  24.645  0.00  0.00    -0.005 A 
ATOM     22  C   UNL     1      -4.242   3.109  24.448  0.00  0.00    -0.003 A 
ATOM     23  C   UNL     1      -3.684   3.706  24.340  0.00  0.00    +0.001 A 
ATOM     24  C   UNL     1      -2.879   3.537  24.419  0.00  0.00    +0.017 A 
ENDROOT
BRANCH   7  25
ATOM     25  C   UNL     1      -4.026  -0.301  25.238  0.00  0.00    +0.242 C 
ATOM     26  O   UNL     1      -4.154  -0.536  26.018  0.00  0.00    -0.273 OA
ATOM     27  N   UNL     1      -4.033  -0.861  24.631  0.00  0.00    -0.273 N 
ATOM     28  C   UNL     1      -4.166  -1.656  24.806  0.00  0.00    +0.126 C 
ATOM     29  C   UNL     1      -4.173  -2.216  24.199  0.00  0.00    +0.164 C 
ATOM     30  O   UNL     1      -4.046  -1.980  23.419  0.00  0.00    -0.350 OA
ATOM     31  C   UNL     1      -3.912  -1.186  23.245  0.00  0.00    +0.164 C 
ATOM     32  C   UNL     1      -3.906  -0.626  23.851  0.00  0.00    +0.126 C 
ENDBRANCH   7  25
BRANCH   5   4
ATOM      4  C   UNL     1      -5.382   2.045  24.634  0.00  0.00    +0.022 C 
BRANCH   4   2
ATOM      1  C   UNL     1      -5.928   2.136  25.951  0.00  0.00    +0.000 C 
ATOM      2  C   UNL     1      -5.975   1.857  25.176  0.00  0.00    +0.002 C 
ATOM      3  C   UNL     1      -6.615   1.391  24.942  0.00  0.00    +0.000 C 
ENDBRANCH   4   2
ENDBRANCH   5   4
BRANCH  11  12
ATOM     12  C   UNL     1      -1.168   2.845  24.663  0.00  0.00    +0.170 C 
BRANCH  12  13
ATOM     13  C   UNL     1      -0.579   2.718  25.225  0.00  0.00    +0.144 A 
ATOM     14  N   UNL     1      -0.656   2.820  26.041  0.00  0.00    -0.227 NA
ATOM     15  C   UNL     1       0.066   2.631  26.391  0.00  0.00    +0.119 A 
ATOM     16  C   UNL     1       0.590   2.411  25.792  0.00  0.00    +0.098 A 
ATOM     17  N   UNL     1       0.191   2.464  25.072  0.00  0.00    -0.310 N 
ATOM     18  C   UNL     1       0.507   2.295  24.329  0.00  0.00    +0.132 C 
ENDBRANCH  12  13
ENDBRANCH  11  12
TORSDOF 5
ENDMDL
MODEL 7
REMARK VINA RESULT:     -10.2      1.922      4.418
REMARK  Name = 
REMARK  5 active torsions:
REMARK  status: ('A' for Active; 'I' for Inactive)
REMARK    1  A    between atoms: C_2  and  C_4
REMARK    2  A    between atoms: C_4  and  C_5
REMARK    3  A    between atoms: C_7  and  C_25
REMARK    4  A    between atoms: N_11  and  C_12
REMARK    5  A    between atoms: C_12  and  C_13
REMARK                            x       y       z     vdW  Elec       q    Type
REMARK                         _______ _______ _______ _____ _____    ______ ____
ROOT
ATOM      5  C   UNL     1      -1.762   0.465  24.009  0.00  0.00    +0.095 C 
ATOM      6  N   UNL     1      -1.947  -0.202  24.458  0.00  0.00    -0.207 NA
ATOM      7  C   UNL     1      -2.624  -0.349  24.906  0.00  0.00    +0.154 C 
ATOM      8  C   UNL     1      -3.283   0.135  25.016  0.00  0.00    +0.055 C 
ATOM      9  C   UNL     1      -3.427   0.886  24.706  0.00  0.00    -0.002 A 
ATOM     10  C   UNL     1      -4.114   1.317  24.859  0.00  0.00    +0.072 A 
ATOM     11  N   UNL     1      -4.060   2.035  24.457  0.00  0.00    -0.319 N 
ATOM     19  C   UNL     1      -3.339   2.048  24.054  0.00  0.00    +0.060 A 
ATOM     20  C   UNL     1      -2.948   1.338  24.208  0.00  0.00    +0.011 A 
ATOM     21  C   UNL     1      -2.207   1.150  23.899  0.00  0.00    -0.005 A 
ATOM     22  C   UNL     1      -1.857   1.760  23.390  0.00  0.00    -0.003 A 
ATOM     23  C   UNL     1      -2.247   2.471  23.235  0.00  0.00    +0.001 A 
ATOM     24  C   UNL     1      -2.989   2.614  23.568  0.00  0.00    +0.017 A 
ENDROOT
BRANCH   7  25
ATOM     25  C   UNL     1      -2.645  -1.077  25.295  0.00  0.00    +0.242 C 
ATOM     26  O   UNL     1      -2.269  -1.165  26.023  0.00  0.00    -0.273 OA
ATOM     27  N   UNL     1      -3.043  -1.715  24.954  0.00  0.00    -0.273 N 
ATOM     28  C   UNL     1      -3.063  -2.442  25.343  0.00  0.00    +0.126 C 
ATOM     29  C   UNL     1      -3.461  -3.080  25.002  0.00  0.00    +0.164 C 
ATOM     30  O   UNL     1      -3.837  -2.991  24.273  0.00  0.00    -0.350 OA
ATOM     31  C   UNL     1      -3.815  -2.264  23.885  0.00  0.00    +0.164 C 
ATOM     32  C   UNL     1      -3.419  -1.626  24.225  0.00  0.00    +0.126 C 
ENDBRANCH   7  25
BRANCH   5   4
ATOM      4  C   UNL     1      -1.034   0.444  23.621  0.00  0.00    +0.022 C 
BRANCH   4   2
ATOM      1  C   UNL     1      -0.032  -0.555  23.825  0.00  0.00    +0.000 C 
ATOM      2  C   UNL     1      -0.362   0.176  24.019  0.00  0.00    +0.002 C 
ATOM      3  C   UNL     1      -0.021   0.639  24.610  0.00  0.00    +0.000 C 
ENDBRANCH   4   2
ENDBRANCH   5   4
BRANCH  11  12
ATOM     12  C   UNL     1      -4.625   2.635  24.456  0.00  0.00    +0.170 C 
BRANCH  12  13
ATOM     13  C   UNL     1      -5.283   2.583  24.951  0.00  0.00    +0.144 A 
ATOM     14  N   UNL     1      -5.811   1.950  24.991  0.00  0.00    -0.227 NA
ATOM     15  C   UNL     1      -6.383   2.131  25.557  0.00  0.00    +0.119 A 
ATOM     16  C   UNL     1      -6.209   2.876  25.866  0.00  0.00    +0.098 A 
ATOM     17  N   UNL     1      -5.529   3.155  25.491  0.00  0.00    -0.310 N 
ATOM     18  C   UNL     1      -5.161   3.880  25.633  0.00  0.00    +0.132 C 
ENDBRANCH  12  13
ENDBRANCH  11  12
TORSDOF 5
ENDMDL
