MODEL 1
REMARK VINA RESULT:     -11.2      0.000      0.000
REMARK  Name = 
REMARK  7 active torsions:
REMARK  status: ('A' for Active; 'I' for Inactive)
REMARK    1  A    between atoms: O_2  and  C_3
REMARK    2  A    between atoms: C_8  and  N_9
REMARK    3  A    between atoms: C_15  and  C_17
REMARK    4  A    between atoms: C_17  and  C_18
REMARK    5  A    between atoms: C_20  and  C_21
REMARK    6  A    between atoms: C_24  and  C_25
REMARK    7  A    between atoms: C_25  and  C_26
REMARK                            x       y       z     vdW  Elec       q    Type
REMARK                         _______ _______ _______ _____ _____    ______ ____
ROOT
ATOM      9  N   UNL     1      -3.538  -0.688  24.241  0.00  0.00    -0.302 N 
ATOM     10  C   UNL     1      -3.537  -0.256  24.944  0.00  0.00    +0.112 C 
ATOM     11  C   UNL     1      -3.488   0.567  24.923  0.00  0.00    +0.115 C 
ATOM     12  N   UNL     1      -3.441   0.959  24.199  0.00  0.00    -0.276 N 
ATOM     13  C   UNL     1      -3.442   0.529  23.495  0.00  0.00    +0.115 C 
ATOM     14  C   UNL     1      -3.491  -0.295  23.516  0.00  0.00    +0.112 C 
ATOM     15  C   UNL     1      -3.393   1.782  24.177  0.00  0.00    +0.226 C 
ATOM     16  O   UNL     1      -3.345   2.174  23.454  0.00  0.00    -0.275 OA
ENDROOT
BRANCH   9   8
ATOM      3  C   UNL     1      -2.930  -1.958  24.482  0.00  0.00    +0.152 A 
ATOM      4  C   UNL     1      -2.978  -2.781  24.502  0.00  0.00    +0.038 A 
ATOM      5  C   UNL     1      -3.685  -3.157  24.300  0.00  0.00    +0.003 A 
ATOM      6  C   UNL     1      -4.342  -2.710  24.080  0.00  0.00    +0.001 A 
ATOM      7  C   UNL     1      -4.293  -1.888  24.060  0.00  0.00    +0.018 A 
ATOM      8  C   UNL     1      -3.586  -1.511  24.261  0.00  0.00    +0.082 A 
BRANCH   3   2
ATOM      1  C   UNL     1      -1.543  -2.027  24.821  0.00  0.00    +0.253 C 
ATOM      2  O   UNL     1      -2.223  -1.582  24.683  0.00  0.00    -0.470 OA
ENDBRANCH   3   2
ENDBRANCH   9   8
BRANCH  15  17
ATOM     17  C   UNL     1      -3.392   2.214  24.881  0.00  0.00    +0.089 C 
BRANCH  17  18
ATOM     18  C   UNL     1      -2.835   2.812  24.997  0.00  0.00    +0.027 C 
ATOM     19  C   UNL     1      -2.029   2.632  24.989  0.00  0.00    +0.005 C 
ATOM     20  C   UNL     1      -1.473   3.230  25.105  0.00  0.00    +0.005 C 
ATOM     24  C   UNL     1      -1.721   4.006  25.228  0.00  0.00    +0.037 C 
ATOM     28  C   UNL     1      -2.526   4.186  25.235  0.00  0.00    -0.034 C 
ATOM     29  C   UNL     1      -3.083   3.588  25.120  0.00  0.00    -0.048 C 
ATOM     30  C   UNL     1      -3.888   3.768  25.127  0.00  0.00    +0.026 C 
BRANCH  20  21
ATOM     21  C   UNL     1      -0.667   3.050  25.098  0.00  0.00    +0.000 C 
ATOM     22  C   UNL     1      -0.283   2.851  25.800  0.00  0.00    +0.000 C 
ATOM     23  C   UNL     1      -0.247   3.070  24.388  0.00  0.00    +0.000 C 
ENDBRANCH  20  21
BRANCH  24  25
ATOM     25  C   UNL     1      -1.164   4.604  25.344  0.00  0.00    +0.110 C 
BRANCH  25  26
ATOM     26  C   UNL     1      -1.345   5.381  25.134  0.00  0.00    +0.073 C 
ATOM     27  N   UNL     1      -1.525   6.159  24.926  0.00  0.00    -0.196 NA
ENDBRANCH  25  26
ENDBRANCH  24  25
ENDBRANCH  17  18
ENDBRANCH  15  17
TORSDOF 7
ENDMDL
MODEL 2
REMARK VINA RESULT:     -10.8      1.576      5.849
REMARK  Name = 
REMARK  7 active torsions:
REMARK  status: ('A' for Active; 'I' for Inactive)
REMARK    1  A    between atoms: O_2  and  C_3
REMARK    2  A    between atoms: C_8  and  N_9
REMARK    3  A    between atoms: C_15  and  C_17
REMARK    4  A    between atoms: C_17  and  C_18
REMARK    5  A    between atoms: C_20  and  C_21
REMARK    6  A    between atoms: C_24  and  C_25
REMARK    7  A    between atoms: C_25  and  C_26
REMARK                            x       y       z     vdW  Elec       q    Type
REMARK                         _______ _______ _______ _____ _____    ______ ____
ROOT
ATOM      9  N   UNL     1      -1.096   3.024  25.145  0.00  0.00    -0.302 N 
ATOM     10  C   UNL     1      -1.296   2.557  24.495  0.00  0.00    +0.112 C 
ATOM     11  C   UNL     1      -1.252   1.736  24.547  0.00  0.00    +0.115 C 
ATOM     12  N   UNL     1      -1.009   1.380  25.251  0.00  0.00    -0.276 N 
ATOM     13  C   UNL     1      -0.809   1.845  25.902  0.00  0.00    +0.115 C 
ATOM     14  C   UNL     1      -0.853   2.668  25.849  0.00  0.00    +0.112 C 
ATOM     15  C   UNL     1      -0.965   0.558  25.304  0.00  0.00    +0.226 C 
ATOM     16  O   UNL     1      -0.722   0.202  26.006  0.00  0.00    -0.275 OA
ENDROOT
BRANCH   9   8
ATOM      3  C   UNL     1      -1.803   4.244  25.378  0.00  0.00    +0.152 A 
ATOM      4  C   UNL     1      -1.846   5.065  25.326  0.00  0.00    +0.038 A 
ATOM      5  C   UNL     1      -1.224   5.491  24.988  0.00  0.00    +0.003 A 
ATOM      6  C   UNL     1      -0.560   5.093  24.703  0.00  0.00    +0.001 A 
ATOM      7  C   UNL     1      -0.517   4.272  24.756  0.00  0.00    +0.018 A 
ATOM      8  C   UNL     1      -1.139   3.846  25.094  0.00  0.00    +0.082 A 
BRANCH   3   2
ATOM      1  C   UNL     1      -3.088   4.216  26.003  0.00  0.00    +0.253 C 
ATOM      2  O   UNL     1      -2.425   3.819  25.716  0.00  0.00    -0.470 OA
ENDBRANCH   3   2
ENDBRANCH   9   8
BRANCH  15  17
ATOM     17  C   UNL     1      -1.165   0.091  24.653  0.00  0.00    +0.089 C 
BRANCH  17  18
ATOM     18  C   UNL     1      -1.727  -0.507  24.732  0.00  0.00    +0.027 C 
ATOM     19  C   UNL     1      -2.494  -0.322  24.976  0.00  0.00    +0.005 C 
ATOM     20  C   UNL     1      -3.057  -0.920  25.055  0.00  0.00    +0.005 C 
ATOM     24  C   UNL     1      -2.854  -1.701  24.890  0.00  0.00    +0.037 C 
ATOM     28  C   UNL     1      -2.088  -1.887  24.647  0.00  0.00    -0.034 C 
ATOM     29  C   UNL     1      -1.525  -1.288  24.567  0.00  0.00    -0.048 C 
ATOM     30  C   UNL     1      -0.759  -1.474  24.324  0.00  0.00    +0.026 C 
BRANCH  20  21
ATOM     21  C   UNL     1      -3.824  -0.734  25.299  0.00  0.00    +0.000 C 
ATOM     22  C   UNL     1      -4.047  -0.856  26.083  0.00  0.00    +0.000 C 
ATOM     23  C   UNL     1      -4.366  -0.428  24.758  0.00  0.00    +0.000 C 
ENDBRANCH  20  21
BRANCH  24  25
ATOM     25  C   UNL     1      -3.418  -2.299  24.970  0.00  0.00    +0.110 C 
BRANCH  25  26
ATOM     26  C   UNL     1      -3.378  -2.969  24.489  0.00  0.00    +0.073 C 
ATOM     27  N   UNL     1      -3.339  -3.639  24.009  0.00  0.00    -0.196 NA
ENDBRANCH  25  26
ENDBRANCH  24  25
ENDBRANCH  17  18
ENDBRANCH  15  17
TORSDOF 7
ENDMDL
MODEL 3
REMARK VINA RESULT:     -10.6      1.255      2.172
REMARK  Name = 
REMARK  7 active torsions:
REMARK  status: ('A' for Active; 'I' for Inactive)
REMARK    1  A    between atoms: O_2  and  C_3
REMARK    2  A    between atoms: C_8  and  N_9
REMARK    3  A    between atoms: C_15  and  C_17
REMARK    4  A    between atoms: C_17  and  C_18
REMARK    5  A    between atoms: C_20  and  C_21
REMARK    6  A    between atoms: C_24  and  C_25
REMARK    7  A    between atoms: C_25  and  C_26
REMARK                            x       y       z     vdW  Elec       q    Type
REMARK                         _______ _______ _______ _____ _____    ______ ____
ROOT
ATOM      9  N   UNL     1      -2.301  -1.002  24.814  0.00  0.00    -0.302 N 
ATOM     10  C   UNL     1      -2.155  -0.448  24.220  0.00  0.00    +0.112 C 
ATOM     11  C   UNL     1      -1.765   0.256  24.400  0.00  0.00    +0.115 C 
ATOM     12  N   UNL     1      -1.520   0.407  25.173  0.00  0.00    -0.276 N 
ATOM     13  C   UNL     1      -1.666  -0.146  25.767  0.00  0.00    +0.115 C 
ATOM     14  C   UNL     1      -2.057  -0.851  25.587  0.00  0.00    +0.112 C 
ATOM     15  C   UNL     1      -1.130   1.111  25.353  0.00  0.00    +0.226 C 
ATOM     16  O   UNL     1      -0.886   1.261  26.126  0.00  0.00    -0.275 OA
ENDROOT
BRANCH   9   8
ATOM      3  C   UNL     1      -3.497  -1.699  24.462  0.00  0.00    +0.152 A 
ATOM      4  C   UNL     1      -3.887  -2.404  24.283  0.00  0.00    +0.038 A 
ATOM      5  C   UNL     1      -3.470  -3.116  24.278  0.00  0.00    +0.003 A 
ATOM      6  C   UNL     1      -2.664  -3.123  24.451  0.00  0.00    +0.001 A 
ATOM      7  C   UNL     1      -2.274  -2.419  24.630  0.00  0.00    +0.018 A 
ATOM      8  C   UNL     1      -2.691  -1.706  24.635  0.00  0.00    +0.082 A 
BRANCH   3   2
ATOM      1  C   UNL     1      -4.710  -0.973  24.250  0.00  0.00    +0.253 C 
ATOM      2  O   UNL     1      -3.914  -0.987  24.467  0.00  0.00    -0.470 OA
ENDBRANCH   3   2
ENDBRANCH   9   8
BRANCH  15  17
ATOM     17  C   UNL     1      -0.984   1.665  24.759  0.00  0.00    +0.089 C 
BRANCH  17  18
ATOM     18  C   UNL     1      -1.149   2.462  24.889  0.00  0.00    +0.027 C 
ATOM     19  C   UNL     1      -1.900   2.691  25.145  0.00  0.00    +0.005 C 
ATOM     20  C   UNL     1      -2.066   3.488  25.276  0.00  0.00    +0.005 C 
ATOM     24  C   UNL     1      -1.482   4.056  25.151  0.00  0.00    +0.037 C 
ATOM     28  C   UNL     1      -0.732   3.829  24.896  0.00  0.00    -0.034 C 
ATOM     29  C   UNL     1      -0.566   3.030  24.765  0.00  0.00    -0.048 C 
ATOM     30  C   UNL     1       0.185   2.803  24.509  0.00  0.00    +0.026 C 
BRANCH  20  21
ATOM     21  C   UNL     1      -2.817   3.716  25.532  0.00  0.00    +0.000 C 
ATOM     22  C   UNL     1      -3.445   3.737  24.998  0.00  0.00    +0.000 C 
ATOM     23  C   UNL     1      -2.938   3.924  26.322  0.00  0.00    +0.000 C 
ENDBRANCH  20  21
BRANCH  24  25
ATOM     25  C   UNL     1      -1.648   4.854  25.282  0.00  0.00    +0.110 C 
BRANCH  25  26
ATOM     26  C   UNL     1      -1.148   5.435  24.977  0.00  0.00    +0.073 C 
ATOM     27  N   UNL     1      -0.648   6.016  24.672  0.00  0.00    -0.196 NA
ENDBRANCH  25  26
ENDBRANCH  24  25
ENDBRANCH  17  18
ENDBRANCH  15  17
TORSDOF 7
ENDMDL
MODEL 4
REMARK VINA RESULT:     -10.1      1.187      5.473
REMARK  Name = 
REMARK  7 active torsions:
REMARK  status: ('A' for Active; 'I' for Inactive)
REMARK    1  A    between atoms: O_2  and  C_3
REMARK    2  A    between atoms: C_8  and  N_9
REMARK    3  A    between atoms: C_15  and  C_17
REMARK    4  A    between atoms: C_17  and  C_18
REMARK    5  A    between atoms: C_20  and  C_21
REMARK    6  A    between atoms: C_24  and  C_25
REMARK    7  A    between atoms: C_25  and  C_26
REMARK                            x       y       z     vdW  Elec       q    Type
REMARK                         _______ _______ _______ _____ _____    ______ ____
ROOT
ATOM      9  N   UNL     1      -2.257   3.245  24.597  0.00  0.00    -0.302 N 
ATOM     10  C   UNL     1      -2.588   2.775  25.189  0.00  0.00    +0.112 C 
ATOM     11  C   UNL     1      -2.946   2.058  24.996  0.00  0.00    +0.115 C 
ATOM     12  N   UNL     1      -2.973   1.809  24.210  0.00  0.00    -0.276 N 
ATOM     13  C   UNL     1      -2.642   2.278  23.617  0.00  0.00    +0.115 C 
ATOM     14  C   UNL     1      -2.284   2.996  23.811  0.00  0.00    +0.112 C 
ATOM     15  C   UNL     1      -3.331   1.092  24.016  0.00  0.00    +0.226 C 
ATOM     16  O   UNL     1      -3.358   0.843  23.231  0.00  0.00    -0.275 OA
ENDROOT
BRANCH   9   8
ATOM      3  C   UNL     1      -1.082   4.000  24.900  0.00  0.00    +0.152 A 
ATOM      4  C   UNL     1      -0.725   4.717  25.093  0.00  0.00    +0.038 A 
ATOM      5  C   UNL     1      -1.184   5.399  25.175  0.00  0.00    +0.003 A 
ATOM      6  C   UNL     1      -2.000   5.361  25.064  0.00  0.00    +0.001 A 
ATOM      7  C   UNL     1      -2.358   4.644  24.872  0.00  0.00    +0.018 A 
ATOM      8  C   UNL     1      -1.898   3.963  24.790  0.00  0.00    +0.082 A 
BRANCH   3   2
ATOM      1  C   UNL     1       0.173   3.330  25.035  0.00  0.00    +0.253 C 
ATOM      2  O   UNL     1      -0.623   3.319  24.819  0.00  0.00    -0.470 OA
ENDBRANCH   3   2
ENDBRANCH   9   8
BRANCH  15  17
ATOM     17  C   UNL     1      -3.662   0.623  24.610  0.00  0.00    +0.089 C 
BRANCH  17  18
ATOM     18  C   UNL     1      -3.491  -0.183  24.640  0.00  0.00    +0.027 C 
ATOM     19  C   UNL     1      -2.714  -0.436  24.759  0.00  0.00    +0.005 C 
ATOM     20  C   UNL     1      -2.543  -1.242  24.790  0.00  0.00    +0.005 C 
ATOM     24  C   UNL     1      -3.147  -1.796  24.702  0.00  0.00    +0.037 C 
ATOM     28  C   UNL     1      -3.924  -1.544  24.584  0.00  0.00    -0.034 C 
ATOM     29  C   UNL     1      -4.096  -0.737  24.553  0.00  0.00    -0.048 C 
ATOM     30  C   UNL     1      -4.872  -0.485  24.434  0.00  0.00    +0.026 C 
BRANCH  20  21
ATOM     21  C   UNL     1      -1.766  -1.494  24.909  0.00  0.00    +0.000 C 
ATOM     22  C   UNL     1      -1.458  -1.533  25.673  0.00  0.00    +0.000 C 
ATOM     23  C   UNL     1      -1.298  -1.708  24.263  0.00  0.00    +0.000 C 
ENDBRANCH  20  21
BRANCH  24  25
ATOM     25  C   UNL     1      -2.976  -2.603  24.733  0.00  0.00    +0.110 C 
BRANCH  25  26
ATOM     26  C   UNL     1      -3.502  -3.148  24.408  0.00  0.00    +0.073 C 
ATOM     27  N   UNL     1      -4.028  -3.695  24.084  0.00  0.00    -0.196 NA
ENDBRANCH  25  26
ENDBRANCH  24  25
ENDBRANCH  17  18
ENDBRANCH  15  17
TORSDOF 7
ENDMDL
MODEL 5
REMARK VINA RESULT:      -9.1      1.732      2.353
REMARK  Name = 
REMARK  7 active torsions:
REMARK  status: ('A' for Active; 'I' for Inactive)
REMARK    1  A    between atoms: O_2  and  C_3
REMARK    2  A    between atoms: C_8  and  N_9
REMARK    3  A    between atoms: C_15  and  C_17
REMARK    4  A    between atoms: C_17  and  C_18
REMARK    5  A    between atoms: C_20  and  C_21
REMARK    6  A    between atoms: C_24  and  C_25
REMARK    7  A    between atoms: C_25  and  C_26
REMARK                            x       y       z     vdW  Elec       q    Type
REMARK                         _______ _______ _______ _____ _____    ______ ____
ROOT
ATOM      9  N   UNL     1      -3.199  -1.159  24.525  0.00  0.00    -0.302 N 
ATOM     10  C   UNL     1      -3.545  -0.867  25.215  0.00  0.00    +0.112 C 
ATOM     11  C   UNL     1      -3.955  -0.152  25.201  0.00  0.00    +0.115 C 
ATOM     12  N   UNL     1      -4.020   0.272  24.496  0.00  0.00    -0.276 N 
ATOM     13  C   UNL     1      -3.676  -0.019  23.806  0.00  0.00    +0.115 C 
ATOM     14  C   UNL     1      -3.265  -0.735  23.820  0.00  0.00    +0.112 C 
ATOM     15  C   UNL     1      -4.430   0.988  24.482  0.00  0.00    +0.226 C 
ATOM     16  O   UNL     1      -4.496   1.411  23.778  0.00  0.00    -0.275 OA
ENDROOT
BRANCH   9   8
ATOM      3  C   UNL     1      -1.971  -1.880  24.638  0.00  0.00    +0.152 A 
ATOM      4  C   UNL     1      -1.561  -2.595  24.651  0.00  0.00    +0.038 A 
ATOM      5  C   UNL     1      -1.971  -3.307  24.564  0.00  0.00    +0.003 A 
ATOM      6  C   UNL     1      -2.789  -3.302  24.465  0.00  0.00    +0.001 A 
ATOM      7  C   UNL     1      -3.199  -2.587  24.452  0.00  0.00    +0.018 A 
ATOM      8  C   UNL     1      -2.789  -1.875  24.538  0.00  0.00    +0.082 A 
BRANCH   3   2
ATOM      1  C   UNL     1      -0.749  -1.174  24.864  0.00  0.00    +0.253 C 
ATOM      2  O   UNL     1      -1.562  -1.168  24.724  0.00  0.00    -0.470 OA
ENDBRANCH   3   2
ENDBRANCH   9   8
BRANCH  15  17
ATOM     17  C   UNL     1      -4.775   1.279  25.173  0.00  0.00    +0.089 C 
BRANCH  17  18
ATOM     18  C   UNL     1      -4.829   2.093  25.295  0.00  0.00    +0.027 C 
ATOM     19  C   UNL     1      -4.144   2.555  25.299  0.00  0.00    +0.005 C 
ATOM     20  C   UNL     1      -4.197   3.369  25.420  0.00  0.00    +0.005 C 
ATOM     24  C   UNL     1      -4.933   3.722  25.538  0.00  0.00    +0.037 C 
ATOM     28  C   UNL     1      -5.617   3.261  25.534  0.00  0.00    -0.034 C 
ATOM     29  C   UNL     1      -5.564   2.446  25.412  0.00  0.00    -0.048 C 
ATOM     30  C   UNL     1      -6.248   1.985  25.408  0.00  0.00    +0.026 C 
BRANCH  20  21
ATOM     21  C   UNL     1      -3.513   3.831  25.424  0.00  0.00    +0.000 C 
ATOM     22  C   UNL     1      -3.112   3.966  26.132  0.00  0.00    +0.000 C 
ATOM     23  C   UNL     1      -3.231   4.157  24.721  0.00  0.00    +0.000 C 
ENDBRANCH  20  21
BRANCH  24  25
ATOM     25  C   UNL     1      -4.986   4.537  25.660  0.00  0.00    +0.110 C 
BRANCH  25  26
ATOM     26  C   UNL     1      -5.722   4.908  25.647  0.00  0.00    +0.073 C 
ATOM     27  N   UNL     1      -6.459   5.280  25.636  0.00  0.00    -0.196 NA
ENDBRANCH  25  26
ENDBRANCH  24  25
ENDBRANCH  17  18
ENDBRANCH  15  17
TORSDOF 7
ENDMDL
MODEL 6
REMARK VINA RESULT:      -8.8      1.656      3.031
REMARK  Name = 
REMARK  7 active torsions:
REMARK  status: ('A' for Active; 'I' for Inactive)
REMARK    1  A    between atoms: O_2  and  C_3
REMARK    2  A    between atoms: C_8  and  N_9
REMARK    3  A    between atoms: C_15  and  C_17
REMARK    4  A    between atoms: C_17  and  C_18
REMARK    5  A    between atoms: C_20  and  C_21
REMARK    6  A    between atoms: C_24  and  C_25
REMARK    7  A    between atoms: C_25  and  C_26
REMARK                            x       y       z     vdW  Elec       q    Type
REMARK                         _______ _______ _______ _____ _____    ______ ____
ROOT
ATOM      9  N   UNL     1      -1.755  -0.316  24.671  0.00  0.00    -0.302 N 
ATOM     10  C   UNL     1      -1.878   0.185  25.315  0.00  0.00    +0.112 C 
ATOM     11  C   UNL     1      -2.238   0.918  25.206  0.00  0.00    +0.115 C 
ATOM     12  N   UNL     1      -2.475   1.153  24.452  0.00  0.00    -0.276 N 
ATOM     13  C   UNL     1      -2.353   0.654  23.806  0.00  0.00    +0.115 C 
ATOM     14  C   UNL     1      -1.992  -0.081  23.916  0.00  0.00    +0.112 C 
ATOM     15  C   UNL     1      -2.835   1.887  24.341  0.00  0.00    +0.226 C 
ATOM     16  O   UNL     1      -3.072   2.121  23.588  0.00  0.00    -0.275 OA
ENDROOT
BRANCH   9   8
ATOM      3  C   UNL     1      -1.850  -1.737  24.777  0.00  0.00    +0.152 A 
ATOM      4  C   UNL     1      -1.490  -2.471  24.886  0.00  0.00    +0.038 A 
ATOM      5  C   UNL     1      -0.673  -2.517  24.998  0.00  0.00    +0.003 A 
ATOM      6  C   UNL     1      -0.218  -1.830  25.000  0.00  0.00    +0.001 A 
ATOM      7  C   UNL     1      -0.578  -1.096  24.891  0.00  0.00    +0.018 A 
ATOM      8  C   UNL     1      -1.395  -1.050  24.780  0.00  0.00    +0.082 A 
BRANCH   3   2
ATOM      1  C   UNL     1      -3.124  -2.377  24.673  0.00  0.00    +0.253 C 
ATOM      2  O   UNL     1      -2.666  -1.691  24.665  0.00  0.00    -0.470 OA
ENDBRANCH   3   2
ENDBRANCH   9   8
BRANCH  15  17
ATOM     17  C   UNL     1      -2.958   2.387  24.987  0.00  0.00    +0.089 C 
BRANCH  17  18
ATOM     18  C   UNL     1      -3.706   2.704  25.126  0.00  0.00    +0.027 C 
ATOM     19  C   UNL     1      -4.362   2.204  25.178  0.00  0.00    +0.005 C 
ATOM     20  C   UNL     1      -5.111   2.521  25.317  0.00  0.00    +0.005 C 
ATOM     24  C   UNL     1      -5.205   3.335  25.404  0.00  0.00    +0.037 C 
ATOM     28  C   UNL     1      -4.550   3.834  25.353  0.00  0.00    -0.034 C 
ATOM     29  C   UNL     1      -3.800   3.517  25.214  0.00  0.00    -0.048 C 
ATOM     30  C   UNL     1      -3.146   4.017  25.163  0.00  0.00    +0.026 C 
BRANCH  20  21
ATOM     21  C   UNL     1      -5.766   2.021  25.368  0.00  0.00    +0.000 C 
ATOM     22  C   UNL     1      -5.964   1.675  26.090  0.00  0.00    +0.000 C 
ATOM     23  C   UNL     1      -6.223   1.869  24.698  0.00  0.00    +0.000 C 
ENDBRANCH  20  21
BRANCH  24  25
ATOM     25  C   UNL     1      -5.955   3.651  25.544  0.00  0.00    +0.110 C 
BRANCH  25  26
ATOM     26  C   UNL     1      -6.049   4.467  25.624  0.00  0.00    +0.073 C 
ATOM     27  N   UNL     1      -6.143   5.282  25.706  0.00  0.00    -0.196 NA
ENDBRANCH  25  26
ENDBRANCH  24  25
ENDBRANCH  17  18
ENDBRANCH  15  17
TORSDOF 7
ENDMDL
