MODEL 1
REMARK VINA RESULT:     -13.8      0.000      0.000
REMARK  Name = 
REMARK  2 active torsions:
REMARK  status: ('A' for Active; 'I' for Inactive)
REMARK    1  A    between atoms: C_2  and  C_22
REMARK    2  A    between atoms: C_10  and  C_17
REMARK                            x       y       z     vdW  Elec       q    Type
REMARK                         _______ _______ _______ _____ _____    ______ ____
ROOT
ATOM      1  O   UNL     1      -2.968  -0.040  24.226  0.00  0.00    -0.270 OA
ATOM      2  C   UNL     1      -3.645  -0.418  24.508  0.00  0.00    +0.249 C 
ATOM      3  N   UNL     1      -4.273   0.027  24.806  0.00  0.00    -0.276 N 
ATOM      4  C   UNL     1      -5.019   0.194  25.144  0.00  0.00    +0.096 C 
ATOM      5  C   UNL     1      -4.973   1.181  25.169  0.00  0.00    +0.043 C 
ATOM      6  C   UNL     1      -5.090   1.982  25.258  0.00  0.00    +0.011 C 
ATOM      7  C   UNL     1      -4.588   1.554  25.016  0.00  0.00    +0.058 C 
ATOM      8  C   UNL     1      -4.648   0.601  24.999  0.00  0.00    +0.099 C 
ATOM      9  C   UNL     1      -3.747   1.567  24.645  0.00  0.00    +0.042 A 
ATOM     10  C   UNL     1      -3.159   2.095  24.409  0.00  0.00    +0.018 A 
ATOM     11  C   UNL     1      -2.456   1.811  24.085  0.00  0.00    +0.006 A 
ATOM     12  C   UNL     1      -2.341   0.999  23.997  0.00  0.00    +0.061 A 
ATOM     13  C   UNL     1      -2.929   0.471  24.232  0.00  0.00    +0.261 A 
ATOM     14  O   UNL     1      -2.589  -0.258  24.049  0.00  0.00    -0.267 OA
ATOM     15  N   UNL     1      -3.632   0.755  24.557  0.00  0.00    -0.299 N 
ATOM     16  C   UNL     1      -4.094   1.184  24.781  0.00  0.00    +0.110 C 
ENDROOT
BRANCH   2  22
ATOM     22  C   UNL     1      -3.695  -1.241  24.492  0.00  0.00    +0.057 A 
ATOM     23  C   UNL     1      -4.064  -1.620  23.859  0.00  0.00    +0.025 A 
ATOM     24  C   UNL     1      -4.114  -2.444  23.843  0.00  0.00    +0.099 A 
ATOM     25  N   UNL     1      -3.794  -2.888  24.461  0.00  0.00    -0.242 NA
ATOM     26  C   UNL     1      -3.424  -2.510  25.093  0.00  0.00    +0.099 A 
ATOM     27  C   UNL     1      -3.375  -1.686  25.109  0.00  0.00    +0.025 A 
ENDBRANCH   2  22
BRANCH  10  17
ATOM     17  C   UNL     1      -3.274   2.907  24.498  0.00  0.00    +0.031 A 
ATOM     18  C   UNL     1      -3.687   3.398  23.979  0.00  0.00    +0.007 A 
ATOM     19  C   UNL     1      -3.665   4.165  24.281  0.00  0.00    +0.007 A 
ATOM     20  C   UNL     1      -3.238   4.148  24.987  0.00  0.00    +0.035 A 
ATOM     21  S   UNL     1      -2.997   3.372  25.121  0.00  0.00    -0.086 S 
ENDBRANCH  10  17
TORSDOF 2
ENDMDL
MODEL 2
REMARK VINA RESULT:     -13.1      1.960      4.235
REMARK  Name = 
REMARK  2 active torsions:
REMARK  status: ('A' for Active; 'I' for Inactive)
REMARK    1  A    between atoms: C_2  and  C_22
REMARK    2  A    between atoms: C_10  and  C_17
REMARK                            x       y       z     vdW  Elec       q    Type
REMARK                         _______ _______ _______ _____ _____    ______ ____
ROOT
ATOM      1  O   UNL     1      -1.354   1.186  25.397  0.00  0.00    -0.270 OA
ATOM      2  C   UNL     1      -1.784   1.773  25.008  0.00  0.00    +0.249 C 
ATOM      3  N   UNL     1      -2.473   1.576  24.597  0.00  0.00    -0.276 N 
ATOM      4  C   UNL     1      -3.159   1.679  24.132  0.00  0.00    +0.096 C 
ATOM      5  C   UNL     1      -3.479   0.745  24.100  0.00  0.00    +0.043 C 
ATOM      6  C   UNL     1      -3.868   0.040  23.979  0.00  0.00    +0.011 C 
ATOM      7  C   UNL     1      -3.292   0.264  24.311  0.00  0.00    +0.058 C 
ATOM      8  C   UNL     1      -2.996   1.171  24.333  0.00  0.00    +0.099 C 
ATOM      9  C   UNL     1      -2.592  -0.039  24.823  0.00  0.00    +0.042 A 
ATOM     10  C   UNL     1      -2.290  -0.734  25.149  0.00  0.00    +0.018 A 
ATOM     11  C   UNL     1      -1.597  -0.713  25.595  0.00  0.00    +0.006 A 
ATOM     12  C   UNL     1      -1.205   0.003  25.716  0.00  0.00    +0.061 A 
ATOM     13  C   UNL     1      -1.506   0.698  25.390  0.00  0.00    +0.261 A 
ATOM     14  O   UNL     1      -0.956   1.258  25.642  0.00  0.00    -0.267 OA
ATOM     15  N   UNL     1      -2.200   0.677  24.943  0.00  0.00    -0.299 N 
ATOM     16  C   UNL     1      -2.743   0.438  24.635  0.00  0.00    +0.110 C 
ENDROOT
BRANCH   2  22
ATOM     22  C   UNL     1      -1.526   2.556  25.029  0.00  0.00    +0.057 A 
ATOM     23  C   UNL     1      -1.825   3.074  25.597  0.00  0.00    +0.025 A 
ATOM     24  C   UNL     1      -1.567   3.858  25.617  0.00  0.00    +0.099 A 
ATOM     25  N   UNL     1      -1.010   4.123  25.069  0.00  0.00    -0.242 NA
ATOM     26  C   UNL     1      -0.712   3.606  24.501  0.00  0.00    +0.099 A 
ATOM     27  C   UNL     1      -0.970   2.822  24.480  0.00  0.00    +0.025 A 
ENDBRANCH   2  22
BRANCH  10  17
ATOM     17  C   UNL     1      -2.682  -1.450  25.028  0.00  0.00    +0.031 A 
ATOM     18  C   UNL     1      -3.323  -1.731  25.464  0.00  0.00    +0.007 A 
ATOM     19  C   UNL     1      -3.539  -2.465  25.156  0.00  0.00    +0.007 A 
ATOM     20  C   UNL     1      -3.031  -2.638  24.530  0.00  0.00    +0.035 A 
ATOM     21  S   UNL     1      -2.502  -2.011  24.451  0.00  0.00    -0.086 S 
ENDBRANCH  10  17
TORSDOF 2
ENDMDL
MODEL 3
REMARK VINA RESULT:     -13.0      1.619      4.258
REMARK  Name = 
REMARK  2 active torsions:
REMARK  status: ('A' for Active; 'I' for Inactive)
REMARK    1  A    between atoms: C_2  and  C_22
REMARK    2  A    between atoms: C_10  and  C_17
REMARK                            x       y       z     vdW  Elec       q    Type
REMARK                         _______ _______ _______ _____ _____    ______ ____
ROOT
ATOM      1  O   UNL     1      -3.726   1.710  25.004  0.00  0.00    -0.270 OA
ATOM      2  C   UNL     1      -2.952   1.998  24.986  0.00  0.00    +0.249 C 
ATOM      3  N   UNL     1      -2.319   1.475  24.900  0.00  0.00    -0.276 N 
ATOM      4  C   UNL     1      -1.529   1.214  24.829  0.00  0.00    +0.096 C 
ATOM      5  C   UNL     1      -1.683   0.241  24.747  0.00  0.00    +0.043 C 
ATOM      6  C   UNL     1      -1.641  -0.569  24.668  0.00  0.00    +0.011 C 
ATOM      7  C   UNL     1      -2.139  -0.080  24.743  0.00  0.00    +0.058 C 
ATOM      8  C   UNL     1      -1.974   0.857  24.822  0.00  0.00    +0.099 C 
ATOM      9  C   UNL     1      -3.051   0.016  24.805  0.00  0.00    +0.042 A 
ATOM     10  C   UNL     1      -3.744  -0.432  24.803  0.00  0.00    +0.018 A 
ATOM     11  C   UNL     1      -4.476  -0.059  24.881  0.00  0.00    +0.006 A 
ATOM     12  C   UNL     1      -4.515   0.761  24.960  0.00  0.00    +0.061 A 
ATOM     13  C   UNL     1      -3.822   1.209  24.962  0.00  0.00    +0.261 A 
ATOM     14  O   UNL     1      -4.113   1.976  25.051  0.00  0.00    -0.267 OA
ATOM     15  N   UNL     1      -3.090   0.836  24.885  0.00  0.00    -0.299 N 
ATOM     16  C   UNL     1      -2.635   0.351  24.813  0.00  0.00    +0.110 C 
ENDROOT
BRANCH   2  22
ATOM     22  C   UNL     1      -2.812   2.808  25.054  0.00  0.00    +0.057 A 
ATOM     23  C   UNL     1      -2.835   3.288  24.384  0.00  0.00    +0.025 A 
ATOM     24  C   UNL     1      -2.694   4.099  24.452  0.00  0.00    +0.099 A 
ATOM     25  N   UNL     1      -2.531   4.428  25.191  0.00  0.00    -0.242 NA
ATOM     26  C   UNL     1      -2.508   3.948  25.861  0.00  0.00    +0.099 A 
ATOM     27  C   UNL     1      -2.648   3.137  25.793  0.00  0.00    +0.025 A 
ENDBRANCH   2  22
BRANCH  10  17
ATOM     17  C   UNL     1      -3.705  -1.252  24.724  0.00  0.00    +0.031 A 
ATOM     18  C   UNL     1      -3.526  -1.789  25.323  0.00  0.00    +0.007 A 
ATOM     19  C   UNL     1      -3.548  -2.548  25.001  0.00  0.00    +0.007 A 
ATOM     20  C   UNL     1      -3.741  -2.480  24.202  0.00  0.00    +0.035 A 
ATOM     21  S   UNL     1      -3.838  -1.679  24.031  0.00  0.00    -0.086 S 
ENDBRANCH  10  17
TORSDOF 2
ENDMDL
