MODEL 1
REMARK VINA RESULT:     -15.5      0.000      0.000
REMARK  Name = 
REMARK  4 active torsions:
REMARK  status: ('A' for Active; 'I' for Inactive)
REMARK    1  A    between atoms: C_2  and  C_3
REMARK    2  A    between atoms: C_11  and  C_12
REMARK    3  A    between atoms: C_12  and  C_13
REMARK    4  A    between atoms: C_28  and  C_30
REMARK                            x       y       z     vdW  Elec       q    Type
REMARK                         _______ _______ _______ _____ _____    ______ ____
ROOT
ATOM      1  C   UNL     1      -2.263  -2.754  24.721  0.00  0.00    +0.005 C 
ATOM      2  C   UNL     1      -2.579  -1.998  24.620  0.00  0.00    +0.059 C 
ATOM      5  C   UNL     1      -3.240  -2.456  24.438  0.00  0.00    +0.154 C 
ATOM      6  O   UNL     1      -3.193  -3.279  24.463  0.00  0.00    -0.223 OA
ATOM      7  C   UNL     1      -3.951  -2.089  24.230  0.00  0.00    +0.033 C 
ATOM      8  C   UNL     1      -3.998  -1.267  24.205  0.00  0.00    +0.003 C 
ATOM      9  C   UNL     1      -3.337  -0.810  24.387  0.00  0.00    +0.006 C 
ATOM     10  C   UNL     1      -4.046  -0.444  24.180  0.00  0.00    +0.000 C 
ATOM     11  C   UNL     1      -3.384   0.014  24.362  0.00  0.00    +0.050 C 
ATOM     21  C   UNL     1      -2.723   0.471  24.545  0.00  0.00    +0.063 A 
ATOM     22  C   UNL     1      -2.012   0.105  24.753  0.00  0.00    +0.023 A 
ATOM     23  C   UNL     1      -1.965  -0.718  24.778  0.00  0.00    +0.034 C 
ATOM     24  C   UNL     1      -2.626  -1.176  24.595  0.00  0.00    +0.010 C 
ATOM     25  S   UNL     1      -1.456   0.696  24.903  0.00  0.00    -0.054 S 
ATOM     26  C   UNL     1      -1.822   1.426  24.789  0.00  0.00    +0.185 A 
ATOM     27  N   UNL     1      -1.467   2.165  24.880  0.00  0.00    -0.154 NA
ATOM     28  C   UNL     1      -1.904   2.851  24.745  0.00  0.00    +0.247 C 
ATOM     29  O   UNL     1      -2.696   2.799  24.520  0.00  0.00    -0.273 OA
ATOM     36  N   UNL     1      -2.604   1.287  24.567  0.00  0.00    -0.227 NA
ENDROOT
BRANCH  28  30
ATOM     30  C   UNL     1      -1.550   3.591  24.836  0.00  0.00    +0.079 C 
ATOM     31  C   UNL     1      -1.941   4.188  25.250  0.00  0.00    +0.009 C 
ATOM     32  C   UNL     1      -1.586   4.928  25.341  0.00  0.00    +0.000 C 
ATOM     33  C   UNL     1      -0.840   5.069  25.018  0.00  0.00    +0.000 C 
ATOM     34  C   UNL     1      -0.449   4.473  24.605  0.00  0.00    +0.000 C 
ATOM     35  C   UNL     1      -0.804   3.734  24.514  0.00  0.00    +0.009 C 
ENDBRANCH  28  30
BRANCH   2   3
ATOM      3  C   UNL     1      -1.807  -1.804  24.838  0.00  0.00    +0.184 C 
ATOM      4  O   UNL     1      -1.260  -2.401  24.995  0.00  0.00    -0.220 OA
ENDBRANCH   2   3
BRANCH  11  12
ATOM     12  C   UNL     1      -4.094   0.380  24.155  0.00  0.00    +0.093 C 
BRANCH  12  13
ATOM     13  C   UNL     1      -4.549   0.756  24.732  0.00  0.00    +0.248 C 
ATOM     14  O   UNL     1      -4.515   0.500  25.515  0.00  0.00    -0.273 OA
ATOM     15  N   UNL     1      -5.036   1.387  24.525  0.00  0.00    -0.154 NA
ATOM     16  C   UNL     1      -5.491   1.764  25.101  0.00  0.00    +0.186 A 
ATOM     17  N   UNL     1      -5.514   1.569  25.903  0.00  0.00    -0.221 NA
ATOM     18  C   UNL     1      -6.040   2.085  26.275  0.00  0.00    +0.108 A 
ATOM     19  C   UNL     1      -6.341   2.598  25.703  0.00  0.00    +0.059 A 
ATOM     20  S   UNL     1      -6.002   2.400  24.977  0.00  0.00    -0.049 S 
ENDBRANCH  12  13
ENDBRANCH  11  12
TORSDOF 4
ENDMDL
MODEL 2
REMARK VINA RESULT:     -14.3      1.197      4.649
REMARK  Name = 
REMARK  4 active torsions:
REMARK  status: ('A' for Active; 'I' for Inactive)
REMARK    1  A    between atoms: C_2  and  C_3
REMARK    2  A    between atoms: C_11  and  C_12
REMARK    3  A    between atoms: C_12  and  C_13
REMARK    4  A    between atoms: C_28  and  C_30
REMARK                            x       y       z     vdW  Elec       q    Type
REMARK                         _______ _______ _______ _____ _____    ______ ____
ROOT
ATOM      1  C   UNL     1      -0.208   3.998  25.349  0.00  0.00    +0.005 C 
ATOM      2  C   UNL     1      -0.907   3.610  25.145  0.00  0.00    +0.059 C 
ATOM      5  C   UNL     1      -1.148   4.394  25.062  0.00  0.00    +0.154 C 
ATOM      6  O   UNL     1      -0.618   5.008  25.213  0.00  0.00    -0.223 OA
ATOM      7  C   UNL     1      -1.922   4.565  24.827  0.00  0.00    +0.033 C 
ATOM      8  C   UNL     1      -2.452   3.952  24.676  0.00  0.00    +0.003 C 
ATOM      9  C   UNL     1      -2.210   3.169  24.759  0.00  0.00    +0.006 C 
ATOM     10  C   UNL     1      -2.982   3.339  24.525  0.00  0.00    +0.000 C 
ATOM     11  C   UNL     1      -2.741   2.555  24.608  0.00  0.00    +0.050 C 
ATOM     21  C   UNL     1      -2.499   1.771  24.691  0.00  0.00    +0.063 A 
ATOM     22  C   UNL     1      -1.726   1.600  24.926  0.00  0.00    +0.023 A 
ATOM     23  C   UNL     1      -1.196   2.213  25.077  0.00  0.00    +0.034 C 
ATOM     24  C   UNL     1      -1.437   2.997  24.994  0.00  0.00    +0.010 C 
ATOM     25  S   UNL     1      -1.647   0.779  24.960  0.00  0.00    -0.054 S 
ATOM     26  C   UNL     1      -2.369   0.443  24.748  0.00  0.00    +0.185 A 
ATOM     27  N   UNL     1      -2.536  -0.364  24.709  0.00  0.00    -0.154 NA
ATOM     28  C   UNL     1      -3.288  -0.619  24.486  0.00  0.00    +0.247 C 
ATOM     29  O   UNL     1      -3.874  -0.068  24.303  0.00  0.00    -0.273 OA
ATOM     36  N   UNL     1      -2.896   1.055  24.582  0.00  0.00    -0.227 NA
ENDROOT
BRANCH  28  30
ATOM     30  C   UNL     1      -3.454  -1.426  24.447  0.00  0.00    +0.079 C 
ATOM     31  C   UNL     1      -3.973  -1.713  23.872  0.00  0.00    +0.009 C 
ATOM     32  C   UNL     1      -4.140  -2.520  23.833  0.00  0.00    +0.000 C 
ATOM     33  C   UNL     1      -3.788  -3.040  24.368  0.00  0.00    +0.000 C 
ATOM     34  C   UNL     1      -3.270  -2.754  24.942  0.00  0.00    +0.000 C 
ATOM     35  C   UNL     1      -3.103  -1.947  24.982  0.00  0.00    +0.009 C 
ENDBRANCH  28  30
BRANCH   2   3
ATOM      3  C   UNL     1      -0.422   2.961  25.299  0.00  0.00    +0.184 C 
ATOM      4  O   UNL     1       0.338   3.075  25.598  0.00  0.00    -0.220 OA
ENDBRANCH   2   3
BRANCH  11  12
ATOM     12  C   UNL     1      -3.513   2.726  24.374  0.00  0.00    +0.093 C 
BRANCH  12  13
ATOM     13  C   UNL     1      -4.137   2.624  24.905  0.00  0.00    +0.248 C 
ATOM     14  O   UNL     1      -4.015   2.740  25.712  0.00  0.00    -0.273 OA
ATOM     15  N   UNL     1      -4.882   2.407  24.628  0.00  0.00    -0.154 NA
ATOM     16  C   UNL     1      -5.507   2.305  25.157  0.00  0.00    +0.186 A 
ATOM     17  N   UNL     1      -5.468   2.401  25.976  0.00  0.00    -0.221 NA
ATOM     18  C   UNL     1      -6.216   2.245  26.287  0.00  0.00    +0.108 A 
ATOM     19  C   UNL     1      -6.717   2.053  25.660  0.00  0.00    +0.059 A 
ATOM     20  S   UNL     1      -6.279   2.090  24.962  0.00  0.00    -0.049 S 
ENDBRANCH  12  13
ENDBRANCH  11  12
TORSDOF 4
ENDMDL
MODEL 3
REMARK VINA RESULT:     -13.8      1.686      5.740
REMARK  Name = 
REMARK  4 active torsions:
REMARK  status: ('A' for Active; 'I' for Inactive)
REMARK    1  A    between atoms: C_2  and  C_3
REMARK    2  A    between atoms: C_11  and  C_12
REMARK    3  A    between atoms: C_12  and  C_13
REMARK    4  A    between atoms: C_28  and  C_30
REMARK                            x       y       z     vdW  Elec       q    Type
REMARK                         _______ _______ _______ _____ _____    ______ ____
ROOT
ATOM      1  C   UNL     1      -2.611   4.762  25.233  0.00  0.00    +0.005 C 
ATOM      2  C   UNL     1      -2.289   4.004  25.182  0.00  0.00    +0.059 C 
ATOM      5  C   UNL     1      -1.602   4.443  25.300  0.00  0.00    +0.154 C 
ATOM      6  O   UNL     1      -1.645   5.263  25.387  0.00  0.00    -0.223 OA
ATOM      7  C   UNL     1      -0.870   4.063  25.333  0.00  0.00    +0.033 C 
ATOM      8  C   UNL     1      -0.826   3.244  25.246  0.00  0.00    +0.003 C 
ATOM      9  C   UNL     1      -1.514   2.805  25.128  0.00  0.00    +0.006 C 
ATOM     10  C   UNL     1      -0.783   2.425  25.160  0.00  0.00    +0.000 C 
ATOM     11  C   UNL     1      -1.471   1.985  25.041  0.00  0.00    +0.050 C 
ATOM     21  C   UNL     1      -2.158   1.546  24.923  0.00  0.00    +0.063 A 
ATOM     22  C   UNL     1      -2.891   1.927  24.890  0.00  0.00    +0.023 A 
ATOM     23  C   UNL     1      -2.934   2.745  24.977  0.00  0.00    +0.034 C 
ATOM     24  C   UNL     1      -2.246   3.185  25.095  0.00  0.00    +0.010 C 
ATOM     25  S   UNL     1      -3.470   1.352  24.768  0.00  0.00    -0.054 S 
ATOM     26  C   UNL     1      -3.097   0.618  24.724  0.00  0.00    +0.185 A 
ATOM     27  N   UNL     1      -3.470  -0.109  24.606  0.00  0.00    -0.154 NA
ATOM     28  C   UNL     1      -3.022  -0.801  24.575  0.00  0.00    +0.247 C 
ATOM     29  O   UNL     1      -2.202  -0.767  24.662  0.00  0.00    -0.273 OA
ATOM     36  N   UNL     1      -2.287   0.738  24.820  0.00  0.00    -0.227 NA
ENDROOT
BRANCH  28  30
ATOM     30  C   UNL     1      -3.394  -1.527  24.456  0.00  0.00    +0.079 C 
ATOM     31  C   UNL     1      -3.174  -2.183  24.908  0.00  0.00    +0.009 C 
ATOM     32  C   UNL     1      -3.547  -2.909  24.790  0.00  0.00    +0.000 C 
ATOM     33  C   UNL     1      -4.139  -2.981  24.219  0.00  0.00    +0.000 C 
ATOM     34  C   UNL     1      -4.358  -2.327  23.768  0.00  0.00    +0.000 C 
ATOM     35  C   UNL     1      -3.986  -1.600  23.886  0.00  0.00    +0.009 C 
ENDBRANCH  28  30
BRANCH   2   3
ATOM      3  C   UNL     1      -3.089   3.828  25.081  0.00  0.00    +0.184 C 
ATOM      4  O   UNL     1      -3.650   4.434  25.095  0.00  0.00    -0.220 OA
ENDBRANCH   2   3
BRANCH  11  12
ATOM     12  C   UNL     1      -0.739   1.605  25.074  0.00  0.00    +0.093 C 
BRANCH  12  13
ATOM     13  C   UNL     1      -0.403   1.297  24.385  0.00  0.00    +0.248 C 
ATOM     14  O   UNL     1      -0.609   1.611  23.651  0.00  0.00    -0.273 OA
ATOM     15  N   UNL     1       0.137   0.677  24.433  0.00  0.00    -0.154 NA
ATOM     16  C   UNL     1       0.473   0.368  23.745  0.00  0.00    +0.186 A 
ATOM     17  N   UNL     1       0.322   0.624  22.975  0.00  0.00    -0.221 NA
ATOM     18  C   UNL     1       0.774   0.165  22.461  0.00  0.00    +0.108 A 
ATOM     19  C   UNL     1       1.205  -0.375  22.913  0.00  0.00    +0.059 A 
ATOM     20  S   UNL     1       1.019  -0.249  23.707  0.00  0.00    -0.049 S 
ENDBRANCH  12  13
ENDBRANCH  11  12
TORSDOF 4
ENDMDL
MODEL 4
REMARK VINA RESULT:     -13.8      1.767      3.630
REMARK  Name = 
REMARK  4 active torsions:
REMARK  status: ('A' for Active; 'I' for Inactive)
REMARK    1  A    between atoms: C_2  and  C_3
REMARK    2  A    between atoms: C_11  and  C_12
REMARK    3  A    between atoms: C_12  and  C_13
REMARK    4  A    between atoms: C_28  and  C_30
REMARK                            x       y       z     vdW  Elec       q    Type
REMARK                         _______ _______ _______ _____ _____    ______ ____
ROOT
ATOM      1  C   UNL     1      -4.128  -2.232  24.344  0.00  0.00    +0.005 C 
ATOM      2  C   UNL     1      -3.454  -1.766  24.434  0.00  0.00    +0.059 C 
ATOM      5  C   UNL     1      -3.108  -2.514  24.406  0.00  0.00    +0.154 C 
ATOM      6  O   UNL     1      -3.581  -3.185  24.316  0.00  0.00    -0.223 OA
ATOM      7  C   UNL     1      -2.288  -2.593  24.466  0.00  0.00    +0.033 C 
ATOM      8  C   UNL     1      -1.816  -1.924  24.556  0.00  0.00    +0.003 C 
ATOM      9  C   UNL     1      -2.161  -1.176  24.584  0.00  0.00    +0.006 C 
ATOM     10  C   UNL     1      -1.343  -1.254  24.645  0.00  0.00    +0.000 C 
ATOM     11  C   UNL     1      -1.688  -0.505  24.673  0.00  0.00    +0.050 C 
ATOM     21  C   UNL     1      -2.033   0.243  24.702  0.00  0.00    +0.063 A 
ATOM     22  C   UNL     1      -2.853   0.322  24.641  0.00  0.00    +0.023 A 
ATOM     23  C   UNL     1      -3.326  -0.348  24.552  0.00  0.00    +0.034 C 
ATOM     24  C   UNL     1      -2.981  -1.097  24.523  0.00  0.00    +0.010 C 
ATOM     25  S   UNL     1      -3.036   1.125  24.686  0.00  0.00    -0.054 S 
ATOM     26  C   UNL     1      -2.330   1.543  24.776  0.00  0.00    +0.185 A 
ATOM     27  N   UNL     1      -2.256   2.362  24.843  0.00  0.00    -0.154 NA
ATOM     28  C   UNL     1      -1.511   2.703  24.930  0.00  0.00    +0.247 C 
ATOM     29  O   UNL     1      -0.838   2.225  24.949  0.00  0.00    -0.273 OA
ATOM     36  N   UNL     1      -1.711   0.998  24.785  0.00  0.00    -0.227 NA
ENDROOT
BRANCH  28  30
ATOM     30  C   UNL     1      -1.437   3.521  24.998  0.00  0.00    +0.079 C 
ATOM     31  C   UNL     1      -0.777   3.904  24.684  0.00  0.00    +0.009 C 
ATOM     32  C   UNL     1      -0.703   4.723  24.751  0.00  0.00    +0.000 C 
ATOM     33  C   UNL     1      -1.290   5.159  25.134  0.00  0.00    +0.000 C 
ATOM     34  C   UNL     1      -1.950   4.778  25.448  0.00  0.00    +0.000 C 
ATOM     35  C   UNL     1      -2.023   3.959  25.380  0.00  0.00    +0.009 C 
ENDBRANCH  28  30
BRANCH   2   3
ATOM      3  C   UNL     1      -4.034  -1.180  24.431  0.00  0.00    +0.184 C 
ATOM      4  O   UNL     1      -4.804  -1.362  24.195  0.00  0.00    -0.220 OA
ENDBRANCH   2   3
BRANCH  11  12
ATOM     12  C   UNL     1      -0.869  -0.584  24.734  0.00  0.00    +0.093 C 
BRANCH  12  13
ATOM     13  C   UNL     1      -0.391  -0.441  24.076  0.00  0.00    +0.248 C 
ATOM     14  O   UNL     1      -0.723  -0.421  23.322  0.00  0.00    -0.273 OA
ATOM     15  N   UNL     1       0.418  -0.320  24.174  0.00  0.00    -0.154 NA
ATOM     16  C   UNL     1       0.897  -0.177  23.518  0.00  0.00    +0.186 A 
ATOM     17  N   UNL     1       0.644  -0.140  22.733  0.00  0.00    -0.221 NA
ATOM     18  C   UNL     1       1.302   0.013  22.260  0.00  0.00    +0.108 A 
ATOM     19  C   UNL     1       1.962   0.071  22.753  0.00  0.00    +0.059 A 
ATOM     20  S   UNL     1       1.712  -0.046  23.530  0.00  0.00    -0.049 S 
ENDBRANCH  12  13
ENDBRANCH  11  12
TORSDOF 4
ENDMDL
MODEL 5
REMARK VINA RESULT:     -13.8      1.633      5.427
REMARK  Name = 
REMARK  4 active torsions:
REMARK  status: ('A' for Active; 'I' for Inactive)
REMARK    1  A    between atoms: C_2  and  C_3
REMARK    2  A    between atoms: C_11  and  C_12
REMARK    3  A    between atoms: C_12  and  C_13
REMARK    4  A    between atoms: C_28  and  C_30
REMARK                            x       y       z     vdW  Elec       q    Type
REMARK                         _______ _______ _______ _____ _____    ______ ____
ROOT
ATOM      1  C   UNL     1      -5.739   3.957  25.721  0.00  0.00    +0.005 C 
ATOM      2  C   UNL     1      -5.165   3.485  25.363  0.00  0.00    +0.059 C 
ATOM      5  C   UNL     1      -4.883   4.232  25.158  0.00  0.00    +0.154 C 
ATOM      6  O   UNL     1      -5.289   4.908  25.402  0.00  0.00    -0.223 OA
ATOM      7  C   UNL     1      -4.194   4.304  24.709  0.00  0.00    +0.033 C 
ATOM      8  C   UNL     1      -3.788   3.629  24.466  0.00  0.00    +0.003 C 
ATOM      9  C   UNL     1      -4.070   2.882  24.671  0.00  0.00    +0.006 C 
ATOM     10  C   UNL     1      -3.382   2.954  24.223  0.00  0.00    +0.000 C 
ATOM     11  C   UNL     1      -3.664   2.206  24.428  0.00  0.00    +0.050 C 
ATOM     21  C   UNL     1      -3.945   1.459  24.633  0.00  0.00    +0.063 A 
ATOM     22  C   UNL     1      -4.635   1.387  25.082  0.00  0.00    +0.023 A 
ATOM     23  C   UNL     1      -5.041   2.062  25.325  0.00  0.00    +0.034 C 
ATOM     24  C   UNL     1      -4.759   2.810  25.120  0.00  0.00    +0.010 C 
ATOM     25  S   UNL     1      -4.778   0.583  25.199  0.00  0.00    -0.054 S 
ATOM     26  C   UNL     1      -4.179   0.158  24.824  0.00  0.00    +0.185 A 
ATOM     27  N   UNL     1      -4.108  -0.663  24.802  0.00  0.00    -0.154 NA
ATOM     28  C   UNL     1      -3.476  -1.011  24.402  0.00  0.00    +0.247 C 
ATOM     29  O   UNL     1      -2.915  -0.538  24.024  0.00  0.00    -0.273 OA
ATOM     36  N   UNL     1      -3.665   0.700  24.474  0.00  0.00    -0.227 NA
ENDROOT
BRANCH  28  30
ATOM     30  C   UNL     1      -3.404  -1.833  24.380  0.00  0.00    +0.079 C 
ATOM     31  C   UNL     1      -2.753  -2.200  24.730  0.00  0.00    +0.009 C 
ATOM     32  C   UNL     1      -2.681  -3.021  24.708  0.00  0.00    +0.000 C 
ATOM     33  C   UNL     1      -3.260  -3.476  24.336  0.00  0.00    +0.000 C 
ATOM     34  C   UNL     1      -3.911  -3.110  23.986  0.00  0.00    +0.000 C 
ATOM     35  C   UNL     1      -3.983  -2.288  24.008  0.00  0.00    +0.009 C 
ENDBRANCH  28  30
BRANCH   2   3
ATOM      3  C   UNL     1      -5.646   2.902  25.693  0.00  0.00    +0.184 C 
ATOM      4  O   UNL     1      -6.274   3.114  26.186  0.00  0.00    -0.220 OA
ENDBRANCH   2   3
BRANCH  11  12
ATOM     12  C   UNL     1      -2.975   2.278  23.979  0.00  0.00    +0.093 C 
BRANCH  12  13
ATOM     13  C   UNL     1      -2.237   2.187  24.338  0.00  0.00    +0.248 C 
ATOM     14  O   UNL     1      -2.167   2.251  25.157  0.00  0.00    -0.273 OA
ATOM     15  N   UNL     1      -1.571   2.032  23.877  0.00  0.00    -0.154 NA
ATOM     16  C   UNL     1      -0.834   1.941  24.235  0.00  0.00    +0.186 A 
ATOM     17  N   UNL     1      -0.679   1.989  25.044  0.00  0.00    -0.221 NA
ATOM     18  C   UNL     1       0.129   1.864  25.157  0.00  0.00    +0.108 A 
ATOM     19  C   UNL     1       0.473   1.737  24.417  0.00  0.00    +0.059 A 
ATOM     20  S   UNL     1      -0.122   1.785  23.847  0.00  0.00    -0.049 S 
ENDBRANCH  12  13
ENDBRANCH  11  12
TORSDOF 4
ENDMDL
MODEL 6
REMARK VINA RESULT:     -13.6      2.043      4.173
REMARK  Name = 
REMARK  4 active torsions:
REMARK  status: ('A' for Active; 'I' for Inactive)
REMARK    1  A    between atoms: C_2  and  C_3
REMARK    2  A    between atoms: C_11  and  C_12
REMARK    3  A    between atoms: C_12  and  C_13
REMARK    4  A    between atoms: C_28  and  C_30
REMARK                            x       y       z     vdW  Elec       q    Type
REMARK                         _______ _______ _______ _____ _____    ______ ____
ROOT
ATOM      1  C   UNL     1      -5.002   3.718  25.825  0.00  0.00    +0.005 C 
ATOM      2  C   UNL     1      -4.673   3.059  25.453  0.00  0.00    +0.059 C 
ATOM      5  C   UNL     1      -5.467   2.838  25.461  0.00  0.00    +0.154 C 
ATOM      6  O   UNL     1      -6.033   3.339  25.790  0.00  0.00    -0.223 OA
ATOM      7  C   UNL     1      -5.696   2.113  25.138  0.00  0.00    +0.033 C 
ATOM      8  C   UNL     1      -5.131   1.611  24.809  0.00  0.00    +0.003 C 
ATOM      9  C   UNL     1      -4.337   1.833  24.801  0.00  0.00    +0.006 C 
ATOM     10  C   UNL     1      -4.566   1.110  24.479  0.00  0.00    +0.000 C 
ATOM     11  C   UNL     1      -3.771   1.331  24.472  0.00  0.00    +0.050 C 
ATOM     21  C   UNL     1      -2.977   1.553  24.464  0.00  0.00    +0.063 A 
ATOM     22  C   UNL     1      -2.747   2.278  24.787  0.00  0.00    +0.023 A 
ATOM     23  C   UNL     1      -3.313   2.779  25.116  0.00  0.00    +0.034 C 
ATOM     24  C   UNL     1      -4.108   2.558  25.124  0.00  0.00    +0.010 C 
ATOM     25  S   UNL     1      -1.930   2.347  24.701  0.00  0.00    -0.054 S 
ATOM     26  C   UNL     1      -1.653   1.666  24.326  0.00  0.00    +0.185 A 
ATOM     27  N   UNL     1      -0.868   1.504  24.131  0.00  0.00    -0.154 NA
ATOM     28  C   UNL     1      -0.674   0.797  23.755  0.00  0.00    +0.247 C 
ATOM     29  O   UNL     1      -1.265   0.250  23.573  0.00  0.00    -0.273 OA
ATOM     36  N   UNL     1      -2.300   1.176  24.180  0.00  0.00    -0.227 NA
ENDROOT
BRANCH  28  30
ATOM     30  C   UNL     1       0.111   0.635  23.561  0.00  0.00    +0.079 C 
ATOM     31  C   UNL     1       0.303  -0.063  23.165  0.00  0.00    +0.009 C 
ATOM     32  C   UNL     1       1.088  -0.225  22.970  0.00  0.00    +0.000 C 
ATOM     33  C   UNL     1       1.682   0.312  23.171  0.00  0.00    +0.000 C 
ATOM     34  C   UNL     1       1.490   1.009  23.567  0.00  0.00    +0.000 C 
ATOM     35  C   UNL     1       0.705   1.171  23.762  0.00  0.00    +0.009 C 
ENDBRANCH  28  30
BRANCH   2   3
ATOM      3  C   UNL     1      -3.993   3.510  25.575  0.00  0.00    +0.184 C 
ATOM      4  O   UNL     1      -4.045   4.241  25.956  0.00  0.00    -0.220 OA
ENDBRANCH   2   3
BRANCH  11  12
ATOM     12  C   UNL     1      -4.000   0.607  24.149  0.00  0.00    +0.093 C 
BRANCH  12  13
ATOM     13  C   UNL     1      -3.840  -0.094  24.554  0.00  0.00    +0.248 C 
ATOM     14  O   UNL     1      -3.670  -0.074  25.361  0.00  0.00    -0.273 OA
ATOM     15  N   UNL     1      -3.851  -0.814  24.153  0.00  0.00    -0.154 NA
ATOM     16  C   UNL     1      -3.692  -1.515  24.557  0.00  0.00    +0.186 A 
ATOM     17  N   UNL     1      -3.514  -1.581  25.361  0.00  0.00    -0.221 NA
ATOM     18  C   UNL     1      -3.395  -2.380  25.530  0.00  0.00    +0.108 A 
ATOM     19  C   UNL     1      -3.499  -2.807  24.831  0.00  0.00    +0.059 A 
ATOM     20  S   UNL     1      -3.683  -2.273  24.230  0.00  0.00    -0.049 S 
ENDBRANCH  12  13
ENDBRANCH  11  12
TORSDOF 4
ENDMDL
MODEL 7
REMARK VINA RESULT:     -13.6      1.477      3.358
REMARK  Name = 
REMARK  4 active torsions:
REMARK  status: ('A' for Active; 'I' for Inactive)
REMARK    1  A    between atoms: C_2  and  C_3
REMARK    2  A    between atoms: C_11  and  C_12
REMARK    3  A    between atoms: C_12  and  C_13
REMARK    4  A    between atoms: C_28  and  C_30
REMARK                            x       y       z     vdW  Elec       q    Type
REMARK                         _______ _______ _______ _____ _____    ______ ____
ROOT
ATOM      1  C   UNL     1      -3.707  -3.045  23.967  0.00  0.00    +0.005 C 
ATOM      2  C   UNL     1      -3.445  -2.333  24.290  0.00  0.00    +0.059 C 
ATOM      5  C   UNL     1      -2.790  -2.810  24.445  0.00  0.00    +0.154 C 
ATOM      6  O   UNL     1      -2.793  -3.602  24.216  0.00  0.00    -0.223 OA
ATOM      7  C   UNL     1      -2.132  -2.494  24.831  0.00  0.00    +0.033 C 
ATOM      8  C   UNL     1      -2.129  -1.703  25.061  0.00  0.00    +0.003 C 
ATOM      9  C   UNL     1      -2.783  -1.226  24.906  0.00  0.00    +0.006 C 
ATOM     10  C   UNL     1      -2.126  -0.911  25.291  0.00  0.00    +0.000 C 
ATOM     11  C   UNL     1      -2.781  -0.433  25.136  0.00  0.00    +0.050 C 
ATOM     21  C   UNL     1      -3.435   0.044  24.981  0.00  0.00    +0.063 A 
ATOM     22  C   UNL     1      -4.094  -0.272  24.595  0.00  0.00    +0.023 A 
ATOM     23  C   UNL     1      -4.096  -1.063  24.365  0.00  0.00    +0.034 C 
ATOM     24  C   UNL     1      -3.442  -1.541  24.520  0.00  0.00    +0.010 C 
ATOM     25  S   UNL     1      -4.654   0.329  24.517  0.00  0.00    -0.054 S 
ATOM     26  C   UNL     1      -4.344   1.014  24.854  0.00  0.00    +0.185 A 
ATOM     27  N   UNL     1      -4.720   1.747  24.897  0.00  0.00    -0.154 NA
ATOM     28  C   UNL     1      -4.339   2.386  25.252  0.00  0.00    +0.247 C 
ATOM     29  O   UNL     1      -3.581   2.293  25.565  0.00  0.00    -0.273 OA
ATOM     36  N   UNL     1      -3.591   0.838  25.141  0.00  0.00    -0.227 NA
ENDROOT
BRANCH  28  30
ATOM     30  C   UNL     1      -4.715   3.119  25.296  0.00  0.00    +0.079 C 
ATOM     31  C   UNL     1      -4.357   3.787  24.967  0.00  0.00    +0.009 C 
ATOM     32  C   UNL     1      -4.733   4.520  25.010  0.00  0.00    +0.000 C 
ATOM     33  C   UNL     1      -5.467   4.585  25.382  0.00  0.00    +0.000 C 
ATOM     34  C   UNL     1      -5.825   3.918  25.710  0.00  0.00    +0.000 C 
ATOM     35  C   UNL     1      -5.449   3.185  25.667  0.00  0.00    +0.009 C 
ENDBRANCH  28  30
BRANCH   2   3
ATOM      3  C   UNL     1      -4.190  -2.103  24.022  0.00  0.00    +0.184 C 
ATOM      4  O   UNL     1      -4.668  -2.642  23.618  0.00  0.00    -0.220 OA
ENDBRANCH   2   3
BRANCH  11  12
ATOM     12  C   UNL     1      -2.123  -0.118  25.522  0.00  0.00    +0.093 C 
BRANCH  12  13
ATOM     13  C   UNL     1      -1.604   0.378  25.114  0.00  0.00    +0.248 C 
ATOM     14  O   UNL     1      -1.561   0.343  24.291  0.00  0.00    -0.273 OA
ATOM     15  N   UNL     1      -1.130   0.909  25.530  0.00  0.00    -0.154 NA
ATOM     16  C   UNL     1      -0.611   1.405  25.123  0.00  0.00    +0.186 A 
ATOM     17  N   UNL     1      -0.508   1.432  24.305  0.00  0.00    -0.221 NA
ATOM     18  C   UNL     1       0.062   2.005  24.138  0.00  0.00    +0.108 A 
ATOM     19  C   UNL     1       0.311   2.332  24.854  0.00  0.00    +0.059 A 
ATOM     20  S   UNL     1      -0.105   1.961  25.463  0.00  0.00    -0.049 S 
ENDBRANCH  12  13
ENDBRANCH  11  12
TORSDOF 4
ENDMDL
