MODEL 1
REMARK VINA RESULT:      -9.3      0.000      0.000
REMARK  Name = 
REMARK  9 active torsions:
REMARK  status: ('A' for Active; 'I' for Inactive)
REMARK    1  A    between atoms: C_2  and  C_4
REMARK    2  A    between atoms: C_4  and  S_5
REMARK    3  A    between atoms: S_5  and  C_6
REMARK    4  A    between atoms: C_6  and  C_7
REMARK    5  A    between atoms: N_9  and  C_10
REMARK    6  A    between atoms: C_14  and  N_18
REMARK    7  A    between atoms: C_22  and  O_23
REMARK    8  A    between atoms: O_23  and  C_24
REMARK    9  A    between atoms: C_28  and  N_30
REMARK                            x       y       z     vdW  Elec       q    Type
REMARK                         _______ _______ _______ _____ _____    ______ ____
ROOT
ATOM     18  N   UNL     1      -1.287   0.378  24.449  0.00  0.00    -0.180 N 
ATOM     19  N   UNL     1      -1.491  -0.406  24.607  0.00  0.00    -0.040 NA
ATOM     20  N   UNL     1      -2.313  -0.448  24.662  0.00  0.00    -0.020 NA
ATOM     21  N   UNL     1      -2.617   0.309  24.539  0.00  0.00    -0.071 NA
ATOM     22  C   UNL     1      -1.983   0.819  24.407  0.00  0.00    +0.343 A 
ENDROOT
BRANCH  18  14
ATOM     10  C   UNL     1       1.252   0.623  23.302  0.00  0.00    +0.154 C 
ATOM     11  C   UNL     1       0.891   0.043  22.840  0.00  0.00    +0.166 C 
ATOM     12  O   UNL     1       0.128  -0.077  23.132  0.00  0.00    -0.350 OA
ATOM     13  C   UNL     1       0.018   0.430  23.774  0.00  0.00    +0.169 C 
ATOM     14  C   UNL     1      -0.522   0.668  24.351  0.00  0.00    +0.170 C 
ATOM     15  C   UNL     1      -0.160   1.249  24.812  0.00  0.00    +0.169 C 
ATOM     16  O   UNL     1       0.603   1.369  24.520  0.00  0.00    -0.350 OA
ATOM     17  C   UNL     1       0.712   0.863  23.879  0.00  0.00    +0.167 C 
BRANCH  10   9
ATOM      7  C   UNL     1       2.583   0.461  22.808  0.00  0.00    +0.252 C 
ATOM      8  O   UNL     1       2.382  -0.281  22.511  0.00  0.00    -0.272 OA
ATOM      9  N   UNL     1       2.017   0.914  23.204  0.00  0.00    -0.201 NA
BRANCH   7   6
ATOM      6  C   UNL     1       3.349   0.753  22.711  0.00  0.00    +0.145 C 
BRANCH   6   5
ATOM      5  S   UNL     1       3.991   0.332  23.013  0.00  0.00    -0.119 S 
BRANCH   5   4
ATOM      4  C   UNL     1       4.735   0.687  23.052  0.00  0.00    +0.172 C 
BRANCH   4   2
ATOM      1  O   UNL     1       5.826  -0.225  23.189  0.00  0.00    -0.245 OA
ATOM      2  C   UNL     1       5.330   0.348  23.513  0.00  0.00    +0.376 C 
ATOM      3  O   UNL     1       5.428   0.583  24.298  0.00  0.00    -0.245 OA
ENDBRANCH   4   2
ENDBRANCH   5   4
ENDBRANCH   6   5
ENDBRANCH   7   6
ENDBRANCH  10   9
ENDBRANCH  18  14
BRANCH  22  23
ATOM     23  O   UNL     1      -2.034   1.629  24.260  0.00  0.00    -0.421 OA
BRANCH  23  24
ATOM     24  C   UNL     1      -2.749   1.958  24.011  0.00  0.00    +0.150 A 
ATOM     25  C   UNL     1      -2.909   2.039  23.206  0.00  0.00    +0.038 A 
ATOM     26  C   UNL     1      -3.624   2.368  22.958  0.00  0.00    +0.004 A 
ATOM     27  C   UNL     1      -4.178   2.616  23.516  0.00  0.00    +0.015 A 
ATOM     28  C   UNL     1      -4.019   2.536  24.321  0.00  0.00    +0.051 A 
ATOM     29  C   UNL     1      -3.304   2.207  24.569  0.00  0.00    +0.052 A 
BRANCH  28  30
ATOM     30  N   UNL     1      -4.574   2.785  24.878  0.00  0.00    -0.303 N 
ATOM     31  C   UNL     1      -4.514   3.535  25.214  0.00  0.00    +0.123 C 
ATOM     32  C   UNL     1      -5.070   3.784  25.771  0.00  0.00    +0.164 C 
ATOM     33  O   UNL     1      -5.686   3.281  25.992  0.00  0.00    -0.350 OA
ATOM     34  C   UNL     1      -5.746   2.530  25.656  0.00  0.00    +0.164 C 
ATOM     35  C   UNL     1      -5.190   2.281  25.099  0.00  0.00    +0.123 C 
ENDBRANCH  28  30
ENDBRANCH  23  24
ENDBRANCH  22  23
TORSDOF 9
ENDMDL
MODEL 2
REMARK VINA RESULT:      -8.8      1.631      2.279
REMARK  Name = 
REMARK  9 active torsions:
REMARK  status: ('A' for Active; 'I' for Inactive)
REMARK    1  A    between atoms: C_2  and  C_4
REMARK    2  A    between atoms: C_4  and  S_5
REMARK    3  A    between atoms: S_5  and  C_6
REMARK    4  A    between atoms: C_6  and  C_7
REMARK    5  A    between atoms: N_9  and  C_10
REMARK    6  A    between atoms: C_14  and  N_18
REMARK    7  A    between atoms: C_22  and  O_23
REMARK    8  A    between atoms: O_23  and  C_24
REMARK    9  A    between atoms: C_28  and  N_30
REMARK                            x       y       z     vdW  Elec       q    Type
REMARK                         _______ _______ _______ _____ _____    ______ ____
ROOT
ATOM     18  N   UNL     1      -2.773  -1.088  25.361  0.00  0.00    -0.180 N 
ATOM     19  N   UNL     1      -2.831  -1.457  26.098  0.00  0.00    -0.040 NA
ATOM     20  N   UNL     1      -3.537  -1.216  26.448  0.00  0.00    -0.020 NA
ATOM     21  N   UNL     1      -3.916  -0.698  25.930  0.00  0.00    -0.071 NA
ATOM     22  C   UNL     1      -3.443  -0.619  25.258  0.00  0.00    +0.343 A 
ENDROOT
BRANCH  18  14
ATOM     10  C   UNL     1      -0.277  -0.590  24.202  0.00  0.00    +0.154 C 
ATOM     11  C   UNL     1      -0.297  -0.067  24.839  0.00  0.00    +0.166 C 
ATOM     12  O   UNL     1      -1.018  -0.166  25.228  0.00  0.00    -0.350 OA
ATOM     13  C   UNL     1      -1.444  -0.751  24.830  0.00  0.00    +0.169 C 
ATOM     14  C   UNL     1      -2.153  -1.173  24.825  0.00  0.00    +0.170 C 
ATOM     15  C   UNL     1      -2.132  -1.697  24.186  0.00  0.00    +0.169 C 
ATOM     16  O   UNL     1      -1.411  -1.597  23.798  0.00  0.00    -0.350 OA
ATOM     17  C   UNL     1      -0.986  -1.013  24.196  0.00  0.00    +0.167 C 
BRANCH  10   9
ATOM      7  C   UNL     1       0.732  -0.008  23.374  0.00  0.00    +0.252 C 
ATOM      8  O   UNL     1       0.502   0.744  23.622  0.00  0.00    -0.272 OA
ATOM      9  N   UNL     1       0.343  -0.676  23.664  0.00  0.00    -0.201 NA
BRANCH   7   6
ATOM      6  C   UNL     1       1.352  -0.094  22.836  0.00  0.00    +0.145 C 
BRANCH   6   5
ATOM      5  S   UNL     1       2.067   0.298  22.966  0.00  0.00    -0.119 S 
BRANCH   5   4
ATOM      4  C   UNL     1       2.708   0.161  22.465  0.00  0.00    +0.172 C 
BRANCH   4   2
ATOM      1  O   UNL     1       4.046  -0.084  22.902  0.00  0.00    -0.245 OA
ATOM      2  C   UNL     1       3.457   0.443  22.668  0.00  0.00    +0.376 C 
ATOM      3  O   UNL     1       3.615   1.252  22.636  0.00  0.00    -0.245 OA
ENDBRANCH   4   2
ENDBRANCH   5   4
ENDBRANCH   6   5
ENDBRANCH   7   6
ENDBRANCH  10   9
ENDBRANCH  18  14
BRANCH  22  23
ATOM     23  O   UNL     1      -3.611  -0.153  24.599  0.00  0.00    -0.421 OA
BRANCH  23  24
ATOM     24  C   UNL     1      -4.138   0.479  24.664  0.00  0.00    +0.150 A 
ATOM     25  C   UNL     1      -4.951   0.339  24.679  0.00  0.00    +0.038 A 
ATOM     26  C   UNL     1      -5.478   0.971  24.744  0.00  0.00    +0.004 A 
ATOM     27  C   UNL     1      -5.191   1.743  24.794  0.00  0.00    +0.015 A 
ATOM     28  C   UNL     1      -4.378   1.883  24.779  0.00  0.00    +0.051 A 
ATOM     29  C   UNL     1      -3.851   1.251  24.714  0.00  0.00    +0.052 A 
BRANCH  28  30
ATOM     30  N   UNL     1      -4.092   2.655  24.830  0.00  0.00    -0.303 N 
ATOM     31  C   UNL     1      -4.034   3.027  25.563  0.00  0.00    +0.123 C 
ATOM     32  C   UNL     1      -3.748   3.799  25.614  0.00  0.00    +0.164 C 
ATOM     33  O   UNL     1      -3.520   4.200  24.930  0.00  0.00    -0.350 OA
ATOM     34  C   UNL     1      -3.577   3.828  24.195  0.00  0.00    +0.164 C 
ATOM     35  C   UNL     1      -3.863   3.056  24.145  0.00  0.00    +0.123 C 
ENDBRANCH  28  30
ENDBRANCH  23  24
ENDBRANCH  22  23
TORSDOF 9
ENDMDL
MODEL 3
REMARK VINA RESULT:      -8.6      3.024      5.982
REMARK  Name = 
REMARK  9 active torsions:
REMARK  status: ('A' for Active; 'I' for Inactive)
REMARK    1  A    between atoms: C_2  and  C_4
REMARK    2  A    between atoms: C_4  and  S_5
REMARK    3  A    between atoms: S_5  and  C_6
REMARK    4  A    between atoms: C_6  and  C_7
REMARK    5  A    between atoms: N_9  and  C_10
REMARK    6  A    between atoms: C_14  and  N_18
REMARK    7  A    between atoms: C_22  and  O_23
REMARK    8  A    between atoms: O_23  and  C_24
REMARK    9  A    between atoms: C_28  and  N_30
REMARK                            x       y       z     vdW  Elec       q    Type
REMARK                         _______ _______ _______ _____ _____    ______ ____
ROOT
ATOM     18  N   UNL     1      -0.157   0.568  23.964  0.00  0.00    -0.180 N 
ATOM     19  N   UNL     1       0.379   0.604  23.337  0.00  0.00    -0.040 NA
ATOM     20  N   UNL     1       0.716  -0.144  23.247  0.00  0.00    -0.020 NA
ATOM     21  N   UNL     1       0.389  -0.642  23.817  0.00  0.00    -0.071 NA
ATOM     22  C   UNL     1      -0.150  -0.202  24.260  0.00  0.00    +0.343 A 
ENDROOT
BRANCH  18  14
ATOM     10  C   UNL     1      -2.181   2.497  23.932  0.00  0.00    +0.154 C 
ATOM     11  C   UNL     1      -2.272   2.116  23.206  0.00  0.00    +0.166 C 
ATOM     12  O   UNL     1      -1.696   1.527  23.154  0.00  0.00    -0.350 OA
ATOM     13  C   UNL     1      -1.249   1.545  23.848  0.00  0.00    +0.169 C 
ATOM     14  C   UNL     1      -0.617   1.192  24.244  0.00  0.00    +0.170 C 
ATOM     15  C   UNL     1      -0.527   1.574  24.970  0.00  0.00    +0.169 C 
ATOM     16  O   UNL     1      -1.103   2.162  25.022  0.00  0.00    -0.350 OA
ATOM     17  C   UNL     1      -1.549   2.144  24.329  0.00  0.00    +0.167 C 
BRANCH  10   9
ATOM      7  C   UNL     1      -3.465   3.081  24.165  0.00  0.00    +0.252 C 
ATOM      8  O   UNL     1      -3.827   2.416  23.836  0.00  0.00    -0.272 OA
ATOM      9  N   UNL     1      -2.641   3.121  24.213  0.00  0.00    -0.201 NA
BRANCH   7   6
ATOM      6  C   UNL     1      -3.925   3.705  24.446  0.00  0.00    +0.145 C 
BRANCH   6   5
ATOM      5  S   UNL     1      -4.627   3.550  24.850  0.00  0.00    -0.119 S 
BRANCH   5   4
ATOM      4  C   UNL     1      -4.908   4.087  25.410  0.00  0.00    +0.172 C 
BRANCH   4   2
ATOM      1  O   UNL     1      -5.839   3.264  26.115  0.00  0.00    -0.245 OA
ATOM      2  C   UNL     1      -5.653   3.979  25.748  0.00  0.00    +0.376 C 
ATOM      3  O   UNL     1      -6.212   4.585  25.719  0.00  0.00    -0.245 OA
ENDBRANCH   4   2
ENDBRANCH   5   4
ENDBRANCH   6   5
ENDBRANCH   7   6
ENDBRANCH  10   9
ENDBRANCH  18  14
BRANCH  22  23
ATOM     23  O   UNL     1      -0.604  -0.482  24.890  0.00  0.00    -0.421 OA
BRANCH  23  24
ATOM     24  C   UNL     1      -0.978  -1.216  24.834  0.00  0.00    +0.150 A 
ATOM     25  C   UNL     1      -0.553  -1.907  24.984  0.00  0.00    +0.038 A 
ATOM     26  C   UNL     1      -0.926  -2.641  24.929  0.00  0.00    +0.004 A 
ATOM     27  C   UNL     1      -1.724  -2.683  24.723  0.00  0.00    +0.015 A 
ATOM     28  C   UNL     1      -2.149  -1.992  24.573  0.00  0.00    +0.051 A 
ATOM     29  C   UNL     1      -1.775  -1.258  24.629  0.00  0.00    +0.052 A 
BRANCH  28  30
ATOM     30  N   UNL     1      -2.947  -2.035  24.368  0.00  0.00    -0.303 N 
ATOM     31  C   UNL     1      -3.393  -1.345  24.298  0.00  0.00    +0.123 C 
ATOM     32  C   UNL     1      -4.191  -1.388  24.093  0.00  0.00    +0.164 C 
ATOM     33  O   UNL     1      -4.543  -2.121  23.957  0.00  0.00    -0.350 OA
ATOM     34  C   UNL     1      -4.096  -2.812  24.026  0.00  0.00    +0.164 C 
ATOM     35  C   UNL     1      -3.298  -2.769  24.232  0.00  0.00    +0.123 C 
ENDBRANCH  28  30
ENDBRANCH  23  24
ENDBRANCH  22  23
TORSDOF 9
ENDMDL
MODEL 4
REMARK VINA RESULT:      -8.5      1.893      3.304
REMARK  Name = 
REMARK  9 active torsions:
REMARK  status: ('A' for Active; 'I' for Inactive)
REMARK    1  A    between atoms: C_2  and  C_4
REMARK    2  A    between atoms: C_4  and  S_5
REMARK    3  A    between atoms: S_5  and  C_6
REMARK    4  A    between atoms: C_6  and  C_7
REMARK    5  A    between atoms: N_9  and  C_10
REMARK    6  A    between atoms: C_14  and  N_18
REMARK    7  A    between atoms: C_22  and  O_23
REMARK    8  A    between atoms: O_23  and  C_24
REMARK    9  A    between atoms: C_28  and  N_30
REMARK                            x       y       z     vdW  Elec       q    Type
REMARK                         _______ _______ _______ _____ _____    ______ ____
ROOT
ATOM     18  N   UNL     1      -2.618   3.511  25.440  0.00  0.00    -0.180 N 
ATOM     19  N   UNL     1      -2.641   3.964  26.130  0.00  0.00    -0.040 NA
ATOM     20  N   UNL     1      -3.427   4.009  26.378  0.00  0.00    -0.020 NA
ATOM     21  N   UNL     1      -3.889   3.584  25.843  0.00  0.00    -0.071 NA
ATOM     22  C   UNL     1      -3.389   3.276  25.264  0.00  0.00    +0.343 A 
ENDROOT
BRANCH  18  14
ATOM     10  C   UNL     1      -0.214   2.218  24.834  0.00  0.00    +0.154 C 
ATOM     11  C   UNL     1      -0.431   1.885  25.556  0.00  0.00    +0.166 C 
ATOM     12  O   UNL     1      -1.142   2.230  25.793  0.00  0.00    -0.350 OA
ATOM     13  C   UNL     1      -1.365   2.776  25.215  0.00  0.00    +0.169 C 
ATOM     14  C   UNL     1      -1.943   3.326  25.005  0.00  0.00    +0.170 C 
ATOM     15  C   UNL     1      -1.725   3.659  24.281  0.00  0.00    +0.169 C 
ATOM     16  O   UNL     1      -1.014   3.314  24.046  0.00  0.00    -0.350 OA
ATOM     17  C   UNL     1      -0.791   2.769  24.622  0.00  0.00    +0.167 C 
BRANCH  10   9
ATOM      7  C   UNL     1       0.596   1.256  24.156  0.00  0.00    +0.252 C 
ATOM      8  O   UNL     1       0.056   0.664  24.350  0.00  0.00    -0.272 OA
ATOM      9  N   UNL     1       0.462   2.034  24.397  0.00  0.00    -0.201 NA
BRANCH   7   6
ATOM      6  C   UNL     1       1.272   1.071  23.720  0.00  0.00    +0.145 C 
BRANCH   6   5
ATOM      5  S   UNL     1       1.245   0.471  23.153  0.00  0.00    -0.119 S 
BRANCH   5   4
ATOM      4  C   UNL     1       1.943   0.107  22.905  0.00  0.00    +0.172 C 
BRANCH   4   2
ATOM      1  O   UNL     1       1.431  -0.438  21.688  0.00  0.00    -0.245 OA
ATOM      2  C   UNL     1       2.046  -0.087  22.109  0.00  0.00    +0.376 C 
ATOM      3  O   UNL     1       2.765   0.070  21.736  0.00  0.00    -0.245 OA
ENDBRANCH   4   2
ENDBRANCH   5   4
ENDBRANCH   6   5
ENDBRANCH   7   6
ENDBRANCH  10   9
ENDBRANCH  18  14
BRANCH  22  23
ATOM     23  O   UNL     1      -3.619   2.815  24.620  0.00  0.00    -0.421 OA
BRANCH  23  24
ATOM     24  C   UNL     1      -4.187   2.224  24.718  0.00  0.00    +0.150 A 
ATOM     25  C   UNL     1      -4.982   2.428  24.807  0.00  0.00    +0.038 A 
ATOM     26  C   UNL     1      -5.550   1.837  24.905  0.00  0.00    +0.004 A 
ATOM     27  C   UNL     1      -5.323   1.044  24.914  0.00  0.00    +0.015 A 
ATOM     28  C   UNL     1      -4.529   0.841  24.825  0.00  0.00    +0.051 A 
ATOM     29  C   UNL     1      -3.960   1.431  24.726  0.00  0.00    +0.052 A 
BRANCH  28  30
ATOM     30  N   UNL     1      -4.302   0.048  24.833  0.00  0.00    -0.303 N 
ATOM     31  C   UNL     1      -3.965  -0.278  25.511  0.00  0.00    +0.123 C 
ATOM     32  C   UNL     1      -3.739  -1.072  25.520  0.00  0.00    +0.164 C 
ATOM     33  O   UNL     1      -3.850  -1.539  24.850  0.00  0.00    -0.350 OA
ATOM     34  C   UNL     1      -4.188  -1.214  24.171  0.00  0.00    +0.164 C 
ATOM     35  C   UNL     1      -4.414  -0.420  24.162  0.00  0.00    +0.123 C 
ENDBRANCH  28  30
ENDBRANCH  23  24
ENDBRANCH  22  23
TORSDOF 9
ENDMDL
MODEL 5
REMARK VINA RESULT:      -8.1      2.839      4.679
REMARK  Name = 
REMARK  9 active torsions:
REMARK  status: ('A' for Active; 'I' for Inactive)
REMARK    1  A    between atoms: C_2  and  C_4
REMARK    2  A    between atoms: C_4  and  S_5
REMARK    3  A    between atoms: S_5  and  C_6
REMARK    4  A    between atoms: C_6  and  C_7
REMARK    5  A    between atoms: N_9  and  C_10
REMARK    6  A    between atoms: C_14  and  N_18
REMARK    7  A    between atoms: C_22  and  O_23
REMARK    8  A    between atoms: O_23  and  C_24
REMARK    9  A    between atoms: C_28  and  N_30
REMARK                            x       y       z     vdW  Elec       q    Type
REMARK                         _______ _______ _______ _____ _____    ______ ____
ROOT
ATOM     18  N   UNL     1       0.013   2.084  25.386  0.00  0.00    -0.180 N 
ATOM     19  N   UNL     1       0.583   2.142  25.981  0.00  0.00    -0.040 NA
ATOM     20  N   UNL     1       0.635   2.933  26.207  0.00  0.00    -0.020 NA
ATOM     21  N   UNL     1       0.098   3.365  25.753  0.00  0.00    -0.071 NA
ATOM     22  C   UNL     1      -0.286   2.840  25.246  0.00  0.00    +0.343 A 
ENDROOT
BRANCH  18  14
ATOM     10  C   UNL     1      -1.117  -0.459  25.104  0.00  0.00    +0.154 C 
ATOM     11  C   UNL     1      -1.237  -0.285  25.901  0.00  0.00    +0.166 C 
ATOM     12  O   UNL     1      -0.922   0.462  26.050  0.00  0.00    -0.350 OA
ATOM     13  C   UNL     1      -0.606   0.751  25.344  0.00  0.00    +0.169 C 
ATOM     14  C   UNL     1      -0.216   1.392  25.001  0.00  0.00    +0.170 C 
ATOM     15  C   UNL     1      -0.096   1.218  24.203  0.00  0.00    +0.169 C 
ATOM     16  O   UNL     1      -0.412   0.470  24.054  0.00  0.00    -0.350 OA
ATOM     17  C   UNL     1      -0.727   0.182  24.760  0.00  0.00    +0.167 C 
BRANCH  10   9
ATOM      7  C   UNL     1      -2.002  -1.574  24.986  0.00  0.00    +0.252 C 
ATOM      8  O   UNL     1      -2.428  -1.306  25.640  0.00  0.00    -0.272 OA
ATOM      9  N   UNL     1      -1.346  -1.151  24.718  0.00  0.00    -0.201 NA
BRANCH   7   6
ATOM      6  C   UNL     1      -2.231  -2.266  24.600  0.00  0.00    +0.145 C 
BRANCH   6   5
ATOM      5  S   UNL     1      -3.030  -2.471  24.560  0.00  0.00    -0.119 S 
BRANCH   5   4
ATOM      4  C   UNL     1      -3.347  -2.759  23.855  0.00  0.00    +0.172 C 
BRANCH   4   2
ATOM      1  O   UNL     1      -4.637  -2.240  23.526  0.00  0.00    -0.245 OA
ATOM      2  C   UNL     1      -4.163  -2.864  23.783  0.00  0.00    +0.376 C 
ATOM      3  O   UNL     1      -4.503  -3.593  23.968  0.00  0.00    -0.245 OA
ENDBRANCH   4   2
ENDBRANCH   5   4
ENDBRANCH   6   5
ENDBRANCH   7   6
ENDBRANCH  10   9
ENDBRANCH  18  14
BRANCH  22  23
ATOM     23  O   UNL     1      -0.868   3.035  24.694  0.00  0.00    -0.421 OA
BRANCH  23  24
ATOM     24  C   UNL     1      -1.453   3.584  24.889  0.00  0.00    +0.150 A 
ATOM     25  C   UNL     1      -1.250   4.370  25.033  0.00  0.00    +0.038 A 
ATOM     26  C   UNL     1      -1.835   4.919  25.228  0.00  0.00    +0.004 A 
ATOM     27  C   UNL     1      -2.623   4.679  25.279  0.00  0.00    +0.015 A 
ATOM     28  C   UNL     1      -2.826   3.893  25.136  0.00  0.00    +0.051 A 
ATOM     29  C   UNL     1      -2.241   3.344  24.941  0.00  0.00    +0.052 A 
BRANCH  28  30
ATOM     30  N   UNL     1      -3.614   3.654  25.188  0.00  0.00    -0.303 N 
ATOM     31  C   UNL     1      -3.971   3.266  24.555  0.00  0.00    +0.123 C 
ATOM     32  C   UNL     1      -4.759   3.027  24.607  0.00  0.00    +0.164 C 
ATOM     33  O   UNL     1      -5.191   3.178  25.293  0.00  0.00    -0.350 OA
ATOM     34  C   UNL     1      -4.834   3.567  25.928  0.00  0.00    +0.164 C 
ATOM     35  C   UNL     1      -4.046   3.806  25.876  0.00  0.00    +0.123 C 
ENDBRANCH  28  30
ENDBRANCH  23  24
ENDBRANCH  22  23
TORSDOF 9
ENDMDL
MODEL 6
REMARK VINA RESULT:      -7.8      1.886      3.408
REMARK  Name = 
REMARK  9 active torsions:
REMARK  status: ('A' for Active; 'I' for Inactive)
REMARK    1  A    between atoms: C_2  and  C_4
REMARK    2  A    between atoms: C_4  and  S_5
REMARK    3  A    between atoms: S_5  and  C_6
REMARK    4  A    between atoms: C_6  and  C_7
REMARK    5  A    between atoms: N_9  and  C_10
REMARK    6  A    between atoms: C_14  and  N_18
REMARK    7  A    between atoms: C_22  and  O_23
REMARK    8  A    between atoms: O_23  and  C_24
REMARK    9  A    between atoms: C_28  and  N_30
REMARK                            x       y       z     vdW  Elec       q    Type
REMARK                         _______ _______ _______ _____ _____    ______ ____
ROOT
ATOM     18  N   UNL     1      -4.292   0.704  24.931  0.00  0.00    -0.180 N 
ATOM     19  N   UNL     1      -4.800   0.296  25.439  0.00  0.00    -0.040 NA
ATOM     20  N   UNL     1      -5.359   0.832  25.723  0.00  0.00    -0.020 NA
ATOM     21  N   UNL     1      -5.198   1.570  25.392  0.00  0.00    -0.071 NA
ATOM     22  C   UNL     1      -4.538   1.491  24.903  0.00  0.00    +0.343 A 
ENDROOT
BRANCH  18  14
ATOM     10  C   UNL     1      -1.736  -0.376  24.586  0.00  0.00    +0.154 C 
ATOM     11  C   UNL     1      -1.771  -0.229  25.396  0.00  0.00    +0.166 C 
ATOM     12  O   UNL     1      -2.511   0.095  25.565  0.00  0.00    -0.350 OA
ATOM     13  C   UNL     1      -2.933   0.148  24.858  0.00  0.00    +0.169 C 
ATOM     14  C   UNL     1      -3.652   0.381  24.525  0.00  0.00    +0.170 C 
ATOM     15  C   UNL     1      -3.616   0.233  23.714  0.00  0.00    +0.169 C 
ATOM     16  O   UNL     1      -2.876  -0.091  23.546  0.00  0.00    -0.350 OA
ATOM     17  C   UNL     1      -2.454  -0.143  24.252  0.00  0.00    +0.167 C 
BRANCH  10   9
ATOM      7  C   UNL     1      -0.354  -0.338  24.222  0.00  0.00    +0.252 C 
ATOM      8  O   UNL     1      -0.255   0.346  24.673  0.00  0.00    -0.272 OA
ATOM      9  N   UNL     1      -1.095  -0.699  24.178  0.00  0.00    -0.201 NA
BRANCH   7   6
ATOM      6  C   UNL     1       0.286  -0.661  23.815  0.00  0.00    +0.145 C 
BRANCH   6   5
ATOM      5  S   UNL     1       0.773  -0.174  23.359  0.00  0.00    -0.119 S 
BRANCH   5   4
ATOM      4  C   UNL     1       1.459  -0.480  23.020  0.00  0.00    +0.172 C 
BRANCH   4   2
ATOM      1  O   UNL     1       2.445   0.515  22.735  0.00  0.00    -0.245 OA
ATOM      2  C   UNL     1       1.884  -0.031  22.473  0.00  0.00    +0.376 C 
ATOM      3  O   UNL     1       1.749  -0.127  21.665  0.00  0.00    -0.245 OA
ENDBRANCH   4   2
ENDBRANCH   5   4
ENDBRANCH   6   5
ENDBRANCH   7   6
ENDBRANCH  10   9
ENDBRANCH  18  14
BRANCH  22  23
ATOM     23  O   UNL     1      -4.186   2.092  24.462  0.00  0.00    -0.421 OA
BRANCH  23  24
ATOM     24  C   UNL     1      -4.011   2.816  24.818  0.00  0.00    +0.150 A 
ATOM     25  C   UNL     1      -4.614   3.265  25.157  0.00  0.00    +0.038 A 
ATOM     26  C   UNL     1      -4.439   3.989  25.513  0.00  0.00    +0.004 A 
ATOM     27  C   UNL     1      -3.661   4.263  25.530  0.00  0.00    +0.015 A 
ATOM     28  C   UNL     1      -3.058   3.814  25.190  0.00  0.00    +0.051 A 
ATOM     29  C   UNL     1      -3.233   3.090  24.834  0.00  0.00    +0.052 A 
BRANCH  28  30
ATOM     30  N   UNL     1      -2.281   4.088  25.207  0.00  0.00    -0.303 N 
ATOM     31  C   UNL     1      -1.662   3.567  25.365  0.00  0.00    +0.123 C 
ATOM     32  C   UNL     1      -0.884   3.841  25.381  0.00  0.00    +0.164 C 
ATOM     33  O   UNL     1      -0.725   4.639  25.240  0.00  0.00    -0.350 OA
ATOM     34  C   UNL     1      -1.344   5.161  25.082  0.00  0.00    +0.164 C 
ATOM     35  C   UNL     1      -2.122   4.886  25.066  0.00  0.00    +0.123 C 
ENDBRANCH  28  30
ENDBRANCH  23  24
ENDBRANCH  22  23
TORSDOF 9
ENDMDL
MODEL 7
REMARK VINA RESULT:      -7.8      1.948      2.834
REMARK  Name = 
REMARK  9 active torsions:
REMARK  status: ('A' for Active; 'I' for Inactive)
REMARK    1  A    between atoms: C_2  and  C_4
REMARK    2  A    between atoms: C_4  and  S_5
REMARK    3  A    between atoms: S_5  and  C_6
REMARK    4  A    between atoms: C_6  and  C_7
REMARK    5  A    between atoms: N_9  and  C_10
REMARK    6  A    between atoms: C_14  and  N_18
REMARK    7  A    between atoms: C_22  and  O_23
REMARK    8  A    between atoms: O_23  and  C_24
REMARK    9  A    between atoms: C_28  and  N_30
REMARK                            x       y       z     vdW  Elec       q    Type
REMARK                         _______ _______ _______ _____ _____    ______ ____
ROOT
ATOM     18  N   UNL     1      -1.516   1.633  23.551  0.00  0.00    -0.180 N 
ATOM     19  N   UNL     1      -1.749   2.125  22.931  0.00  0.00    -0.040 NA
ATOM     20  N   UNL     1      -2.571   2.195  22.959  0.00  0.00    -0.020 NA
ATOM     21  N   UNL     1      -2.845   1.747  23.595  0.00  0.00    -0.071 NA
ATOM     22  C   UNL     1      -2.193   1.400  23.961  0.00  0.00    +0.343 A 
ENDROOT
BRANCH  18  14
ATOM     10  C   UNL     1       0.910   0.270  23.266  0.00  0.00    +0.154 C 
ATOM     11  C   UNL     1       0.457  -0.018  22.640  0.00  0.00    +0.166 C 
ATOM     12  O   UNL     1      -0.281   0.351  22.669  0.00  0.00    -0.350 OA
ATOM     13  C   UNL     1      -0.283   0.867  23.314  0.00  0.00    +0.169 C 
ATOM     14  C   UNL     1      -0.741   1.413  23.730  0.00  0.00    +0.170 C 
ATOM     15  C   UNL     1      -0.287   1.701  24.356  0.00  0.00    +0.169 C 
ATOM     16  O   UNL     1       0.451   1.332  24.326  0.00  0.00    -0.350 OA
ATOM     17  C   UNL     1       0.453   0.817  23.682  0.00  0.00    +0.167 C 
BRANCH  10   9
ATOM      7  C   UNL     1       2.240  -0.033  22.839  0.00  0.00    +0.252 C 
ATOM      8  O   UNL     1       2.019   0.103  22.056  0.00  0.00    -0.272 OA
ATOM      9  N   UNL     1       1.685   0.051  23.445  0.00  0.00    -0.201 NA
BRANCH   7   6
ATOM      6  C   UNL     1       3.015  -0.252  23.018  0.00  0.00    +0.145 C 
BRANCH   6   5
ATOM      5  S   UNL     1       3.621   0.307  22.977  0.00  0.00    -0.119 S 
BRANCH   5   4
ATOM      4  C   UNL     1       4.402   0.060  22.881  0.00  0.00    +0.172 C 
BRANCH   4   2
ATOM      1  O   UNL     1       4.986   1.177  23.555  0.00  0.00    -0.245 OA
ATOM      2  C   UNL     1       4.996   0.375  23.361  0.00  0.00    +0.376 C 
ATOM      3  O   UNL     1       5.597  -0.112  23.647  0.00  0.00    -0.245 OA
ENDBRANCH   4   2
ENDBRANCH   5   4
ENDBRANCH   6   5
ENDBRANCH   7   6
ENDBRANCH  10   9
ENDBRANCH  18  14
BRANCH  22  23
ATOM     23  O   UNL     1      -2.213   0.906  24.621  0.00  0.00    -0.421 OA
BRANCH  23  24
ATOM     24  C   UNL     1      -2.904   0.495  24.807  0.00  0.00    +0.150 A 
ATOM     25  C   UNL     1      -3.524   0.881  25.191  0.00  0.00    +0.038 A 
ATOM     26  C   UNL     1      -4.215   0.470  25.377  0.00  0.00    +0.004 A 
ATOM     27  C   UNL     1      -4.286  -0.328  25.179  0.00  0.00    +0.015 A 
ATOM     28  C   UNL     1      -3.666  -0.714  24.795  0.00  0.00    +0.051 A 
ATOM     29  C   UNL     1      -2.975  -0.303  24.609  0.00  0.00    +0.052 A 
BRANCH  28  30
ATOM     30  N   UNL     1      -3.738  -1.512  24.598  0.00  0.00    -0.303 N 
ATOM     31  C   UNL     1      -3.372  -2.087  25.062  0.00  0.00    +0.123 C 
ATOM     32  C   UNL     1      -3.444  -2.885  24.864  0.00  0.00    +0.164 C 
ATOM     33  O   UNL     1      -3.881  -3.108  24.201  0.00  0.00    -0.350 OA
ATOM     34  C   UNL     1      -4.247  -2.532  23.736  0.00  0.00    +0.164 C 
ATOM     35  C   UNL     1      -4.176  -1.734  23.934  0.00  0.00    +0.123 C 
ENDBRANCH  28  30
ENDBRANCH  23  24
ENDBRANCH  22  23
TORSDOF 9
ENDMDL
MODEL 8
REMARK VINA RESULT:      -6.0     16.179     17.875
REMARK  Name = 
REMARK  9 active torsions:
REMARK  status: ('A' for Active; 'I' for Inactive)
REMARK    1  A    between atoms: C_2  and  C_4
REMARK    2  A    between atoms: C_4  and  S_5
REMARK    3  A    between atoms: S_5  and  C_6
REMARK    4  A    between atoms: C_6  and  C_7
REMARK    5  A    between atoms: N_9  and  C_10
REMARK    6  A    between atoms: C_14  and  N_18
REMARK    7  A    between atoms: C_22  and  O_23
REMARK    8  A    between atoms: O_23  and  C_24
REMARK    9  A    between atoms: C_28  and  N_30
REMARK                            x       y       z     vdW  Elec       q    Type
REMARK                         _______ _______ _______ _____ _____    ______ ____
ROOT
ATOM     18  N   UNL     1      -2.532  -9.798  11.036  0.00  0.00    -0.180 N 
ATOM     19  N   UNL     1      -1.897  -9.346  10.765  0.00  0.00    -0.040 NA
ATOM     20  N   UNL     1      -1.303  -9.372  11.338  0.00  0.00    -0.020 NA
ATOM     21  N   UNL     1      -1.571  -9.840  11.962  0.00  0.00    -0.071 NA
ATOM     22  C   UNL     1      -2.330 -10.103  11.776  0.00  0.00    +0.343 A 
ENDROOT
BRANCH  18  14
ATOM     10  C   UNL     1      -4.992  -9.138   9.882  0.00  0.00    +0.154 C 
ATOM     11  C   UNL     1      -4.720  -8.416  10.174  0.00  0.00    +0.166 C 
ATOM     12  O   UNL     1      -3.988  -8.545  10.531  0.00  0.00    -0.350 OA
ATOM     13  C   UNL     1      -3.807  -9.347  10.460  0.00  0.00    +0.169 C 
ATOM     14  C   UNL     1      -3.243  -9.922  10.638  0.00  0.00    +0.170 C 
ATOM     15  C   UNL     1      -3.515 -10.645  10.345  0.00  0.00    +0.169 C 
ATOM     16  O   UNL     1      -4.247 -10.515   9.988  0.00  0.00    -0.350 OA
ATOM     17  C   UNL     1      -4.428  -9.714  10.059  0.00  0.00    +0.167 C 
BRANCH  10   9
ATOM      7  C   UNL     1      -6.177  -8.620   9.274  0.00  0.00    +0.252 C 
ATOM      8  O   UNL     1      -5.940  -7.853   9.464  0.00  0.00    -0.272 OA
ATOM      9  N   UNL     1      -5.703  -9.263   9.483  0.00  0.00    -0.201 NA
BRANCH   7   6
ATOM      6  C   UNL     1      -6.888  -8.745   8.875  0.00  0.00    +0.145 C 
BRANCH   6   5
ATOM      5  S   UNL     1      -7.523  -8.231   8.993  0.00  0.00    -0.119 S 
BRANCH   5   4
ATOM      4  C   UNL     1      -8.270  -8.426   8.702  0.00  0.00    +0.172 C 
BRANCH   4   2
ATOM      1  O   UNL     1      -9.047  -7.375   8.124  0.00  0.00    -0.245 OA
ATOM      2  C   UNL     1      -8.888  -7.881   8.756  0.00  0.00    +0.376 C 
ATOM      3  O   UNL     1      -9.346  -7.843   9.441  0.00  0.00    -0.245 OA
ENDBRANCH   4   2
ENDBRANCH   5   4
ENDBRANCH   6   5
ENDBRANCH   7   6
ENDBRANCH  10   9
ENDBRANCH  18  14
BRANCH  22  23
ATOM     23  O   UNL     1      -2.805 -10.587  12.246  0.00  0.00    -0.421 OA
BRANCH  23  24
ATOM     24  C   UNL     1      -2.671 -10.631  13.059  0.00  0.00    +0.150 A 
ATOM     25  C   UNL     1      -1.905 -10.736  13.346  0.00  0.00    +0.038 A 
ATOM     26  C   UNL     1      -1.771 -10.780  14.159  0.00  0.00    +0.004 A 
ATOM     27  C   UNL     1      -2.404 -10.720  14.685  0.00  0.00    +0.015 A 
ATOM     28  C   UNL     1      -3.170 -10.616  14.398  0.00  0.00    +0.051 A 
ATOM     29  C   UNL     1      -3.304 -10.571  13.584  0.00  0.00    +0.052 A 
BRANCH  28  30
ATOM     30  N   UNL     1      -3.803 -10.556  14.924  0.00  0.00    -0.303 N 
ATOM     31  C   UNL     1      -3.662 -10.505  15.735  0.00  0.00    +0.123 C 
ATOM     32  C   UNL     1      -4.295 -10.445  16.261  0.00  0.00    +0.164 C 
ATOM     33  O   UNL     1      -5.069 -10.436  15.976  0.00  0.00    -0.350 OA
ATOM     34  C   UNL     1      -5.210 -10.487  15.164  0.00  0.00    +0.164 C 
ATOM     35  C   UNL     1      -4.578 -10.547  14.638  0.00  0.00    +0.123 C 
ENDBRANCH  28  30
ENDBRANCH  23  24
ENDBRANCH  22  23
TORSDOF 9
ENDMDL
