MODEL 1
REMARK VINA RESULT:     -11.6      0.000      0.000
REMARK  Name = 
REMARK  6 active torsions:
REMARK  status: ('A' for Active; 'I' for Inactive)
REMARK    1  A    between atoms: C_2  and  N_4
REMARK    2  A    between atoms: N_7  and  C_8
REMARK    3  A    between atoms: C_8  and  C_9
REMARK    4  A    between atoms: C_11  and  C_12
REMARK    5  A    between atoms: C_12  and  C_13
REMARK    6  A    between atoms: C_15  and  C_18
REMARK                            x       y       z     vdW  Elec       q    Type
REMARK                         _______ _______ _______ _____ _____    ______ ____
ROOT
ATOM      9  C   UNL     1      -4.446   2.841  25.272  0.00  0.00    +0.170 C 
ATOM     10  O   UNL     1      -4.286   2.079  24.999  0.00  0.00    -0.351 OA
ATOM     11  C   UNL     1      -5.005   1.689  24.896  0.00  0.00    +0.157 C 
ATOM     25  C   UNL     1      -5.610   2.210  25.106  0.00  0.00    +0.212 C 
ATOM     26  O   UNL     1      -6.419   2.046  25.087  0.00  0.00    -0.218 OA
ATOM     27  C   UNL     1      -5.264   2.922  25.339  0.00  0.00    +0.213 C 
ATOM     28  O   UNL     1      -5.667   3.596  25.592  0.00  0.00    -0.218 OA
ENDROOT
BRANCH   9   8
ATOM      8  C   UNL     1      -3.886   3.421  25.448  0.00  0.00    +0.149 C 
BRANCH   8   7
ATOM      4  N   UNL     1      -1.896   4.011  24.771  0.00  0.00    -0.189 NA
ATOM      5  C   UNL     1      -2.562   3.920  25.250  0.00  0.00    +0.339 C 
ATOM      6  O   UNL     1      -2.568   4.238  26.012  0.00  0.00    -0.249 OA
ATOM      7  N   UNL     1      -3.221   3.512  24.969  0.00  0.00    -0.185 NA
BRANCH   4   2
ATOM      1  C   UNL     1      -0.598   4.004  25.368  0.00  0.00    +0.023 C 
ATOM      2  C   UNL     1      -1.238   4.419  25.052  0.00  0.00    +0.097 C 
ATOM      3  C   UNL     1      -1.218   5.243  25.018  0.00  0.00    +0.023 C 
ENDBRANCH   4   2
ENDBRANCH   8   7
ENDBRANCH   9   8
BRANCH  11  12
ATOM     12  C   UNL     1      -5.102   0.914  24.631  0.00  0.00    +0.120 C 
BRANCH  12  13
ATOM     13  C   UNL     1      -4.622   0.313  24.930  0.00  0.00    +0.239 A 
ATOM     14  N   UNL     1      -4.139  -0.188  24.487  0.00  0.00    -0.191 NA
ATOM     15  C   UNL     1      -3.760  -0.703  25.008  0.00  0.00    +0.203 A 
ATOM     16  N   UNL     1      -4.008  -0.521  25.773  0.00  0.00    -0.056 NA
ATOM     17  O   UNL     1      -4.541   0.107  25.725  0.00  0.00    -0.337 OA
BRANCH  15  18
ATOM     18  C   UNL     1      -3.225  -1.296  24.800  0.00  0.00    +0.039 A 
ATOM     19  C   UNL     1      -2.414  -1.163  24.863  0.00  0.00    +0.005 A 
ATOM     20  C   UNL     1      -1.880  -1.756  24.654  0.00  0.00    +0.030 A 
ATOM     21  C   UNL     1      -2.159  -2.483  24.382  0.00  0.00    +0.140 A 
ATOM     22  F   UNL     1      -1.625  -3.077  24.173  0.00  0.00    -0.204 F 
ATOM     23  C   UNL     1      -2.970  -2.617  24.318  0.00  0.00    +0.030 A 
ATOM     24  C   UNL     1      -3.504  -2.024  24.527  0.00  0.00    +0.005 A 
ENDBRANCH  15  18
ENDBRANCH  12  13
ENDBRANCH  11  12
TORSDOF 6
ENDMDL
MODEL 2
REMARK VINA RESULT:     -11.1      1.785      3.285
REMARK  Name = 
REMARK  6 active torsions:
REMARK  status: ('A' for Active; 'I' for Inactive)
REMARK    1  A    between atoms: C_2  and  N_4
REMARK    2  A    between atoms: N_7  and  C_8
REMARK    3  A    between atoms: C_8  and  C_9
REMARK    4  A    between atoms: C_11  and  C_12
REMARK    5  A    between atoms: C_12  and  C_13
REMARK    6  A    between atoms: C_15  and  C_18
REMARK                            x       y       z     vdW  Elec       q    Type
REMARK                         _______ _______ _______ _____ _____    ______ ____
ROOT
ATOM      9  C   UNL     1      -1.593   2.561  25.353  0.00  0.00    +0.170 C 
ATOM     10  O   UNL     1      -1.651   1.746  25.235  0.00  0.00    -0.351 OA
ATOM     11  C   UNL     1      -0.886   1.440  25.188  0.00  0.00    +0.157 C 
ATOM     25  C   UNL     1      -0.356   2.066  25.278  0.00  0.00    +0.212 C 
ATOM     26  O   UNL     1       0.468   2.008  25.268  0.00  0.00    -0.218 OA
ATOM     27  C   UNL     1      -0.792   2.759  25.379  0.00  0.00    +0.213 C 
ATOM     28  O   UNL     1      -0.482   3.515  25.489  0.00  0.00    -0.218 OA
ENDROOT
BRANCH   9   8
ATOM      8  C   UNL     1      -2.224   3.086  25.430  0.00  0.00    +0.149 C 
BRANCH   8   7
ATOM      4  N   UNL     1      -4.382   3.024  25.105  0.00  0.00    -0.189 NA
ATOM      5  C   UNL     1      -3.648   3.209  25.433  0.00  0.00    +0.339 C 
ATOM      6  O   UNL     1      -3.604   3.702  26.092  0.00  0.00    -0.249 OA
ATOM      7  N   UNL     1      -2.958   2.901  25.102  0.00  0.00    -0.185 NA
BRANCH   4   2
ATOM      1  C   UNL     1      -5.551   2.856  25.910  0.00  0.00    +0.023 C 
ATOM      2  C   UNL     1      -5.071   3.332  25.436  0.00  0.00    +0.097 C 
ATOM      3  C   UNL     1      -5.282   4.116  25.293  0.00  0.00    +0.023 C 
ENDBRANCH   4   2
ENDBRANCH   8   7
ENDBRANCH   9   8
BRANCH  11  12
ATOM     12  C   UNL     1      -0.688   0.648  25.073  0.00  0.00    +0.120 C 
BRANCH  12  13
ATOM     13  C   UNL     1      -1.241   0.058  25.235  0.00  0.00    +0.239 A 
ATOM     14  N   UNL     1      -1.759  -0.284  24.690  0.00  0.00    -0.191 NA
ATOM     15  C   UNL     1      -2.212  -0.848  25.088  0.00  0.00    +0.203 A 
ATOM     16  N   UNL     1      -1.974  -0.855  25.878  0.00  0.00    -0.056 NA
ATOM     17  O   UNL     1      -1.374  -0.296  25.969  0.00  0.00    -0.337 OA
BRANCH  15  18
ATOM     18  C   UNL     1      -2.799  -1.321  24.753  0.00  0.00    +0.039 A 
ATOM     19  C   UNL     1      -3.502  -0.981  24.487  0.00  0.00    +0.005 A 
ATOM     20  C   UNL     1      -4.089  -1.454  24.152  0.00  0.00    +0.030 A 
ATOM     21  C   UNL     1      -3.972  -2.268  24.084  0.00  0.00    +0.140 A 
ATOM     22  F   UNL     1      -4.559  -2.742  23.749  0.00  0.00    -0.204 F 
ATOM     23  C   UNL     1      -3.269  -2.608  24.350  0.00  0.00    +0.030 A 
ATOM     24  C   UNL     1      -2.682  -2.135  24.685  0.00  0.00    +0.005 A 
ENDBRANCH  15  18
ENDBRANCH  12  13
ENDBRANCH  11  12
TORSDOF 6
ENDMDL
MODEL 3
REMARK VINA RESULT:     -10.6      2.710      5.682
REMARK  Name = 
REMARK  6 active torsions:
REMARK  status: ('A' for Active; 'I' for Inactive)
REMARK    1  A    between atoms: C_2  and  N_4
REMARK    2  A    between atoms: N_7  and  C_8
REMARK    3  A    between atoms: C_8  and  C_9
REMARK    4  A    between atoms: C_11  and  C_12
REMARK    5  A    between atoms: C_12  and  C_13
REMARK    6  A    between atoms: C_15  and  C_18
REMARK                            x       y       z     vdW  Elec       q    Type
REMARK                         _______ _______ _______ _____ _____    ______ ____
ROOT
ATOM      9  C   UNL     1      -0.977  -0.017  24.360  0.00  0.00    +0.170 C 
ATOM     10  O   UNL     1      -1.403   0.679  24.485  0.00  0.00    -0.351 OA
ATOM     11  C   UNL     1      -0.903   1.315  24.325  0.00  0.00    +0.157 C 
ATOM     25  C   UNL     1      -0.169   1.013  24.102  0.00  0.00    +0.212 C 
ATOM     26  O   UNL     1       0.495   1.457  23.894  0.00  0.00    -0.218 OA
ATOM     27  C   UNL     1      -0.214   0.190  24.123  0.00  0.00    +0.213 C 
ATOM     28  O   UNL     1       0.396  -0.335  23.940  0.00  0.00    -0.218 OA
ENDROOT
BRANCH   9   8
ATOM      8  C   UNL     1      -1.263  -0.785  24.455  0.00  0.00    +0.149 C 
BRANCH   8   7
ATOM      4  N   UNL     1      -3.184  -1.780  24.747  0.00  0.00    -0.189 NA
ATOM      5  C   UNL     1      -2.392  -1.655  24.552  0.00  0.00    +0.339 C 
ATOM      6  O   UNL     1      -1.937  -2.278  24.259  0.00  0.00    -0.249 OA
ATOM      7  N   UNL     1      -2.055  -0.909  24.650  0.00  0.00    -0.185 NA
BRANCH   4   2
ATOM      1  C   UNL     1      -3.997  -2.682  23.993  0.00  0.00    +0.023 C 
ATOM      2  C   UNL     1      -3.521  -2.526  24.649  0.00  0.00    +0.097 C 
ATOM      3  C   UNL     1      -3.383  -3.117  25.207  0.00  0.00    +0.023 C 
ENDBRANCH   4   2
ENDBRANCH   8   7
ENDBRANCH   9   8
BRANCH  11  12
ATOM     12  C   UNL     1      -1.104   2.113  24.380  0.00  0.00    +0.120 C 
BRANCH  12  13
ATOM     13  C   UNL     1      -1.879   2.354  24.232  0.00  0.00    +0.239 A 
ATOM     14  N   UNL     1      -2.461   2.493  24.800  0.00  0.00    -0.191 NA
ATOM     15  C   UNL     1      -3.150   2.723  24.409  0.00  0.00    +0.203 A 
ATOM     16  N   UNL     1      -2.995   2.726  23.599  0.00  0.00    -0.056 NA
ATOM     17  O   UNL     1      -2.209   2.498  23.489  0.00  0.00    -0.337 OA
BRANCH  15  18
ATOM     18  C   UNL     1      -3.869   2.915  24.766  0.00  0.00    +0.039 A 
ATOM     19  C   UNL     1      -4.488   2.371  24.770  0.00  0.00    +0.005 A 
ATOM     20  C   UNL     1      -5.206   2.563  25.127  0.00  0.00    +0.030 A 
ATOM     21  C   UNL     1      -5.304   3.302  25.481  0.00  0.00    +0.140 A 
ATOM     22  F   UNL     1      -6.022   3.495  25.839  0.00  0.00    -0.204 F 
ATOM     23  C   UNL     1      -4.685   3.847  25.478  0.00  0.00    +0.030 A 
ATOM     24  C   UNL     1      -3.967   3.655  25.121  0.00  0.00    +0.005 A 
ENDBRANCH  15  18
ENDBRANCH  12  13
ENDBRANCH  11  12
TORSDOF 6
ENDMDL
MODEL 4
REMARK VINA RESULT:     -10.6      2.457      5.280
REMARK  Name = 
REMARK  6 active torsions:
REMARK  status: ('A' for Active; 'I' for Inactive)
REMARK    1  A    between atoms: C_2  and  N_4
REMARK    2  A    between atoms: N_7  and  C_8
REMARK    3  A    between atoms: C_8  and  C_9
REMARK    4  A    between atoms: C_11  and  C_12
REMARK    5  A    between atoms: C_12  and  C_13
REMARK    6  A    between atoms: C_15  and  C_18
REMARK                            x       y       z     vdW  Elec       q    Type
REMARK                         _______ _______ _______ _____ _____    ______ ____
ROOT
ATOM      9  C   UNL     1      -2.610  -0.029  24.736  0.00  0.00    +0.170 C 
ATOM     10  O   UNL     1      -2.080   0.602  24.766  0.00  0.00    -0.351 OA
ATOM     11  C   UNL     1      -1.315   0.295  24.719  0.00  0.00    +0.157 C 
ATOM     25  C   UNL     1      -1.374  -0.526  24.660  0.00  0.00    +0.212 C 
ATOM     26  O   UNL     1      -0.742  -1.053  24.600  0.00  0.00    -0.218 OA
ATOM     27  C   UNL     1      -2.174  -0.727  24.670  0.00  0.00    +0.213 C 
ATOM     28  O   UNL     1      -2.483  -1.490  24.624  0.00  0.00    -0.218 OA
ENDROOT
BRANCH   9   8
ATOM      8  C   UNL     1      -3.432   0.026  24.767  0.00  0.00    +0.149 C 
BRANCH   8   7
ATOM      4  N   UNL     1      -4.879   1.660  24.700  0.00  0.00    -0.189 NA
ATOM      5  C   UNL     1      -4.504   0.959  24.922  0.00  0.00    +0.339 C 
ATOM      6  O   UNL     1      -4.825   0.491  25.520  0.00  0.00    -0.249 OA
ATOM      7  N   UNL     1      -3.808   0.727  24.546  0.00  0.00    -0.185 NA
BRANCH   4   2
ATOM      1  C   UNL     1      -6.298   1.573  24.842  0.00  0.00    +0.023 C 
ATOM      2  C   UNL     1      -5.575   1.892  25.077  0.00  0.00    +0.097 C 
ATOM      3  C   UNL     1      -5.548   2.445  25.688  0.00  0.00    +0.023 C 
ENDBRANCH   4   2
ENDBRANCH   8   7
ENDBRANCH   9   8
BRANCH  11  12
ATOM     12  C   UNL     1      -0.617   0.733  24.729  0.00  0.00    +0.120 C 
BRANCH  12  13
ATOM     13  C   UNL     1      -0.597   1.468  25.103  0.00  0.00    +0.239 A 
ATOM     14  N   UNL     1      -0.872   2.180  24.788  0.00  0.00    -0.191 NA
ATOM     15  C   UNL     1      -0.744   2.772  25.348  0.00  0.00    +0.203 A 
ATOM     16  N   UNL     1      -0.389   2.428  26.008  0.00  0.00    -0.056 NA
ATOM     17  O   UNL     1      -0.298   1.622  25.857  0.00  0.00    -0.337 OA
BRANCH  15  18
ATOM     18  C   UNL     1      -0.937   3.570  25.261  0.00  0.00    +0.039 A 
ATOM     19  C   UNL     1      -0.412   4.085  24.889  0.00  0.00    +0.005 A 
ATOM     20  C   UNL     1      -0.605   4.882  24.803  0.00  0.00    +0.030 A 
ATOM     21  C   UNL     1      -1.325   5.164  25.089  0.00  0.00    +0.140 A 
ATOM     22  F   UNL     1      -1.519   5.962  25.003  0.00  0.00    -0.204 F 
ATOM     23  C   UNL     1      -1.852   4.650  25.461  0.00  0.00    +0.030 A 
ATOM     24  C   UNL     1      -1.658   3.852  25.548  0.00  0.00    +0.005 A 
ENDBRANCH  15  18
ENDBRANCH  12  13
ENDBRANCH  11  12
TORSDOF 6
ENDMDL
MODEL 5
REMARK VINA RESULT:     -10.6      2.041      4.823
REMARK  Name = 
REMARK  6 active torsions:
REMARK  status: ('A' for Active; 'I' for Inactive)
REMARK    1  A    between atoms: C_2  and  N_4
REMARK    2  A    between atoms: N_7  and  C_8
REMARK    3  A    between atoms: C_8  and  C_9
REMARK    4  A    between atoms: C_11  and  C_12
REMARK    5  A    between atoms: C_12  and  C_13
REMARK    6  A    between atoms: C_15  and  C_18
REMARK                            x       y       z     vdW  Elec       q    Type
REMARK                         _______ _______ _______ _____ _____    ______ ____
ROOT
ATOM      9  C   UNL     1      -3.976   0.750  24.776  0.00  0.00    +0.170 C 
ATOM     10  O   UNL     1      -3.799   1.555  24.808  0.00  0.00    -0.351 OA
ATOM     11  C   UNL     1      -4.508   1.971  24.870  0.00  0.00    +0.157 C 
ATOM     25  C   UNL     1      -5.124   1.423  24.878  0.00  0.00    +0.212 C 
ATOM     26  O   UNL     1      -5.929   1.599  24.934  0.00  0.00    -0.218 OA
ATOM     27  C   UNL     1      -4.796   0.668  24.819  0.00  0.00    +0.213 C 
ATOM     28  O   UNL     1      -5.214  -0.043  24.807  0.00  0.00    -0.218 OA
ENDROOT
BRANCH   9   8
ATOM      8  C   UNL     1      -3.431   0.135  24.712  0.00  0.00    +0.149 C 
BRANCH   8   7
ATOM      4  N   UNL     1      -1.297  -0.210  25.017  0.00  0.00    -0.189 NA
ATOM      5  C   UNL     1      -2.081  -0.328  24.790  0.00  0.00    +0.339 C 
ATOM      6  O   UNL     1      -2.300  -1.029  24.414  0.00  0.00    -0.249 OA
ATOM      7  N   UNL     1      -2.646   0.253  24.939  0.00  0.00    -0.185 NA
BRANCH   4   2
ATOM      1  C   UNL     1      -0.246  -0.736  24.204  0.00  0.00    +0.023 C 
ATOM      2  C   UNL     1      -0.732  -0.792  24.868  0.00  0.00    +0.097 C 
ATOM      3  C   UNL     1      -0.652  -1.431  25.384  0.00  0.00    +0.023 C 
ENDBRANCH   4   2
ENDBRANCH   8   7
ENDBRANCH   9   8
BRANCH  11  12
ATOM     12  C   UNL     1      -4.587   2.791  24.918  0.00  0.00    +0.120 C 
BRANCH  12  13
ATOM     13  C   UNL     1      -3.983   3.243  25.254  0.00  0.00    +0.239 A 
ATOM     14  N   UNL     1      -3.320   3.535  24.860  0.00  0.00    -0.191 NA
ATOM     15  C   UNL     1      -2.864   3.955  25.405  0.00  0.00    +0.203 A 
ATOM     16  N   UNL     1      -3.247   3.924  26.135  0.00  0.00    -0.056 NA
ATOM     17  O   UNL     1      -3.939   3.484  26.042  0.00  0.00    -0.337 OA
BRANCH  15  18
ATOM     18  C   UNL     1      -2.152   4.340  25.246  0.00  0.00    +0.039 A 
ATOM     19  C   UNL     1      -2.129   5.161  25.186  0.00  0.00    +0.005 A 
ATOM     20  C   UNL     1      -1.417   5.546  25.028  0.00  0.00    +0.030 A 
ATOM     21  C   UNL     1      -0.726   5.106  24.929  0.00  0.00    +0.140 A 
ATOM     22  F   UNL     1      -0.012   5.490  24.770  0.00  0.00    -0.204 F 
ATOM     23  C   UNL     1      -0.747   4.284  24.989  0.00  0.00    +0.030 A 
ATOM     24  C   UNL     1      -1.460   3.899  25.147  0.00  0.00    +0.005 A 
ENDBRANCH  15  18
ENDBRANCH  12  13
ENDBRANCH  11  12
TORSDOF 6
ENDMDL
MODEL 6
REMARK VINA RESULT:      -8.4     17.007     18.831
REMARK  Name = 
REMARK  6 active torsions:
REMARK  status: ('A' for Active; 'I' for Inactive)
REMARK    1  A    between atoms: C_2  and  N_4
REMARK    2  A    between atoms: N_7  and  C_8
REMARK    3  A    between atoms: C_8  and  C_9
REMARK    4  A    between atoms: C_11  and  C_12
REMARK    5  A    between atoms: C_12  and  C_13
REMARK    6  A    between atoms: C_15  and  C_18
REMARK                            x       y       z     vdW  Elec       q    Type
REMARK                         _______ _______ _______ _____ _____    ______ ____
ROOT
ATOM      9  C   UNL     1      11.396   8.017  20.183  0.00  0.00    +0.170 C 
ATOM     10  O   UNL     1      12.141   7.670  20.253  0.00  0.00    -0.351 OA
ATOM     11  C   UNL     1      12.236   7.425  21.035  0.00  0.00    +0.157 C 
ATOM     25  C   UNL     1      11.549   7.622  21.448  0.00  0.00    +0.212 C 
ATOM     26  O   UNL     1      11.407   7.477  22.248  0.00  0.00    -0.218 OA
ATOM     27  C   UNL     1      11.030   7.988  20.922  0.00  0.00    +0.213 C 
ATOM     28  O   UNL     1      10.277   8.273  21.103  0.00  0.00    -0.218 OA
ENDROOT
BRANCH   9   8
ATOM      8  C   UNL     1      11.073   8.338  19.495  0.00  0.00    +0.149 C 
BRANCH   8   7
ATOM      4  N   UNL     1      11.496   8.399  17.354  0.00  0.00    -0.189 NA
ATOM      5  C   UNL     1      11.099   8.477  18.073  0.00  0.00    +0.339 C 
ATOM      6  O   UNL     1      10.329   8.774  18.088  0.00  0.00    -0.249 OA
ATOM      7  N   UNL     1      11.470   8.260  18.776  0.00  0.00    -0.185 NA
BRANCH   4   2
ATOM      1  C   UNL     1      11.519   9.093  16.106  0.00  0.00    +0.023 C 
ATOM      2  C   UNL     1      11.124   8.617  16.651  0.00  0.00    +0.097 C 
ATOM      3  C   UNL     1      10.357   8.358  16.493  0.00  0.00    +0.023 C 
ENDBRANCH   4   2
ENDBRANCH   8   7
ENDBRANCH   9   8
BRANCH  11  12
ATOM     12  C   UNL     1      12.900   7.050  21.348  0.00  0.00    +0.120 C 
BRANCH  12  13
ATOM     13  C   UNL     1      13.648   7.211  21.037  0.00  0.00    +0.239 A 
ATOM     14  N   UNL     1      14.114   6.689  20.601  0.00  0.00    -0.191 NA
ATOM     15  C   UNL     1      14.815   7.077  20.403  0.00  0.00    +0.203 A 
ATOM     16  N   UNL     1      14.782   7.839  20.716  0.00  0.00    -0.056 NA
ATOM     17  O   UNL     1      14.060   7.923  21.108  0.00  0.00    -0.337 OA
BRANCH  15  18
ATOM     18  C   UNL     1      15.439   6.758  19.967  0.00  0.00    +0.039 A 
ATOM     19  C   UNL     1      16.097   6.448  20.354  0.00  0.00    +0.005 A 
ATOM     20  C   UNL     1      16.721   6.129  19.918  0.00  0.00    +0.030 A 
ATOM     21  C   UNL     1      16.685   6.121  19.094  0.00  0.00    +0.140 A 
ATOM     22  F   UNL     1      17.309   5.802  18.657  0.00  0.00    -0.204 F 
ATOM     23  C   UNL     1      16.027   6.432  18.706  0.00  0.00    +0.030 A 
ATOM     24  C   UNL     1      15.403   6.751  19.142  0.00  0.00    +0.005 A 
ENDBRANCH  15  18
ENDBRANCH  12  13
ENDBRANCH  11  12
TORSDOF 6
ENDMDL
MODEL 7
REMARK VINA RESULT:      -8.0     16.768     19.307
REMARK  Name = 
REMARK  6 active torsions:
REMARK  status: ('A' for Active; 'I' for Inactive)
REMARK    1  A    between atoms: C_2  and  N_4
REMARK    2  A    between atoms: N_7  and  C_8
REMARK    3  A    between atoms: C_8  and  C_9
REMARK    4  A    between atoms: C_11  and  C_12
REMARK    5  A    between atoms: C_12  and  C_13
REMARK    6  A    between atoms: C_15  and  C_18
REMARK                            x       y       z     vdW  Elec       q    Type
REMARK                         _______ _______ _______ _____ _____    ______ ____
ROOT
ATOM      9  C   UNL     1      14.950   7.119  19.057  0.00  0.00    +0.170 C 
ATOM     10  O   UNL     1      14.596   7.446  19.727  0.00  0.00    -0.351 OA
ATOM     11  C   UNL     1      14.943   7.103  20.392  0.00  0.00    +0.157 C 
ATOM     25  C   UNL     1      15.510   6.563  20.134  0.00  0.00    +0.212 C 
ATOM     26  O   UNL     1      15.989   6.094  20.616  0.00  0.00    -0.218 OA
ATOM     27  C   UNL     1      15.515   6.572  19.309  0.00  0.00    +0.213 C 
ATOM     28  O   UNL     1      15.999   6.116  18.821  0.00  0.00    -0.218 OA
ENDROOT
BRANCH   9   8
ATOM      8  C   UNL     1      14.770   7.304  18.274  0.00  0.00    +0.149 C 
BRANCH   8   7
ATOM      4  N   UNL     1      13.735   8.883  17.178  0.00  0.00    -0.189 NA
ATOM      5  C   UNL     1      14.063   8.149  17.364  0.00  0.00    +0.339 C 
ATOM      6  O   UNL     1      14.013   7.527  16.825  0.00  0.00    -0.249 OA
ATOM      7  N   UNL     1      14.442   8.038  18.088  0.00  0.00    -0.185 NA
BRANCH   4   2
ATOM      1  C   UNL     1      12.537   9.091  16.427  0.00  0.00    +0.023 C 
ATOM      2  C   UNL     1      13.356   8.995  16.455  0.00  0.00    +0.097 C 
ATOM      3  C   UNL     1      13.797   9.010  15.757  0.00  0.00    +0.023 C 
ENDBRANCH   4   2
ENDBRANCH   8   7
ENDBRANCH   9   8
BRANCH  11  12
ATOM     12  C   UNL     1      14.754   7.270  21.177  0.00  0.00    +0.120 C 
BRANCH  12  13
ATOM     13  C   UNL     1      14.024   7.608  21.362  0.00  0.00    +0.239 A 
ATOM     14  N   UNL     1      13.315   7.201  21.472  0.00  0.00    -0.191 NA
ATOM     15  C   UNL     1      12.728   7.753  21.648  0.00  0.00    +0.203 A 
ATOM     16  N   UNL     1      13.073   8.502  21.646  0.00  0.00    -0.056 NA
ATOM     17  O   UNL     1      13.875   8.413  21.470  0.00  0.00    -0.337 OA
BRANCH  15  18
ATOM     18  C   UNL     1      11.934   7.585  21.798  0.00  0.00    +0.039 A 
ATOM     19  C   UNL     1      11.622   6.849  21.597  0.00  0.00    +0.005 A 
ATOM     20  C   UNL     1      10.828   6.681  21.747  0.00  0.00    +0.030 A 
ATOM     21  C   UNL     1      10.347   7.251  22.099  0.00  0.00    +0.140 A 
ATOM     22  F   UNL     1       9.553   7.083  22.250  0.00  0.00    -0.204 F 
ATOM     23  C   UNL     1      10.658   7.987  22.301  0.00  0.00    +0.030 A 
ATOM     24  C   UNL     1      11.452   8.155  22.150  0.00  0.00    +0.005 A 
ENDBRANCH  15  18
ENDBRANCH  12  13
ENDBRANCH  11  12
TORSDOF 6
ENDMDL
