MODEL 1
REMARK VINA RESULT:     -11.7      0.000      0.000
REMARK  Name = 
REMARK  4 active torsions:
REMARK  status: ('A' for Active; 'I' for Inactive)
REMARK    1  A    between atoms: O_2  and  C_3
REMARK    2  A    between atoms: C_3  and  C_5
REMARK    3  A    between atoms: C_11  and  C_13
REMARK    4  A    between atoms: C_18  and  C_20
REMARK                            x       y       z     vdW  Elec       q    Type
REMARK                         _______ _______ _______ _____ _____    ______ ____
ROOT
ATOM      5  C   UNL     1      -3.479   2.262  24.831  0.00  0.00    +0.195 C 
ATOM      6  C   UNL     1      -4.019   1.640  24.782  0.00  0.00    +0.125 C 
ATOM      7  N   UNL     1      -3.751   0.860  24.793  0.00  0.00    -0.272 N 
ATOM      8  C   UNL     1      -2.943   0.702  24.852  0.00  0.00    +0.115 C 
ATOM      9  C   UNL     1      -2.404   1.324  24.902  0.00  0.00    +0.116 C 
ATOM     10  N   UNL     1      -2.672   2.104  24.891  0.00  0.00    -0.264 N 
ATOM     11  C   UNL     1      -2.133   2.726  24.941  0.00  0.00    +0.255 C 
ATOM     12  O   UNL     1      -2.400   3.507  24.930  0.00  0.00    -0.269 OA
ATOM     18  C   UNL     1      -4.291   0.237  24.743  0.00  0.00    +0.249 C 
ATOM     19  O   UNL     1      -5.099   0.395  24.683  0.00  0.00    -0.270 OA
ENDROOT
BRANCH  18  20
ATOM     20  C   UNL     1      -4.022  -0.542  24.754  0.00  0.00    +0.056 A 
ATOM     21  C   UNL     1      -3.917  -0.951  24.045  0.00  0.00    +0.005 A 
ATOM     22  C   UNL     1      -3.648  -1.731  24.055  0.00  0.00    +0.002 A 
ATOM     23  C   UNL     1      -3.485  -2.102  24.774  0.00  0.00    +0.030 A 
ATOM     24  C   UNL     1      -3.592  -1.693  25.482  0.00  0.00    +0.140 A 
ATOM     25  F   UNL     1      -3.429  -2.064  26.201  0.00  0.00    -0.204 F 
ATOM     26  C   UNL     1      -3.860  -0.914  25.472  0.00  0.00    +0.034 A 
ENDBRANCH  18  20
BRANCH  11  13
ATOM     13  C   UNL     1      -1.325   2.568  25.000  0.00  0.00    +0.083 A 
ATOM     14  C   UNL     1      -0.906   2.441  25.699  0.00  0.00    +0.012 A 
ATOM     15  C   UNL     1      -0.117   2.304  25.503  0.00  0.00    +0.008 A 
ATOM     16  C   UNL     1      -0.048   2.346  24.682  0.00  0.00    +0.036 A 
ATOM     17  S   UNL     1      -0.795   2.509  24.371  0.00  0.00    -0.082 S 
ENDBRANCH  11  13
BRANCH   5   3
ATOM      3  C   UNL     1      -3.748   3.042  24.821  0.00  0.00    +0.337 C 
ATOM      4  O   UNL     1      -3.729   3.476  24.119  0.00  0.00    -0.248 OA
BRANCH   3   2
ATOM      1  C   UNL     1      -4.695   3.883  25.483  0.00  0.00    +0.256 C 
ATOM      2  O   UNL     1      -4.036   3.389  25.513  0.00  0.00    -0.443 OA
ENDBRANCH   3   2
ENDBRANCH   5   3
TORSDOF 4
ENDMDL
MODEL 2
REMARK VINA RESULT:     -11.0      1.551      2.743
REMARK  Name = 
REMARK  4 active torsions:
REMARK  status: ('A' for Active; 'I' for Inactive)
REMARK    1  A    between atoms: O_2  and  C_3
REMARK    2  A    between atoms: C_3  and  C_5
REMARK    3  A    between atoms: C_11  and  C_13
REMARK    4  A    between atoms: C_18  and  C_20
REMARK                            x       y       z     vdW  Elec       q    Type
REMARK                         _______ _______ _______ _____ _____    ______ ____
ROOT
ATOM      5  C   UNL     1      -2.719   1.639  24.448  0.00  0.00    +0.195 C 
ATOM      6  C   UNL     1      -2.367   0.896  24.371  0.00  0.00    +0.125 C 
ATOM      7  N   UNL     1      -2.795   0.216  24.557  0.00  0.00    -0.272 N 
ATOM      8  C   UNL     1      -3.575   0.278  24.820  0.00  0.00    +0.115 C 
ATOM      9  C   UNL     1      -3.926   1.020  24.897  0.00  0.00    +0.116 C 
ATOM     10  N   UNL     1      -3.499   1.701  24.711  0.00  0.00    -0.264 N 
ATOM     11  C   UNL     1      -3.850   2.443  24.788  0.00  0.00    +0.255 C 
ATOM     12  O   UNL     1      -3.423   3.124  24.602  0.00  0.00    -0.269 OA
ATOM     18  C   UNL     1      -2.443  -0.527  24.480  0.00  0.00    +0.249 C 
ATOM     19  O   UNL     1      -1.664  -0.589  24.216  0.00  0.00    -0.270 OA
ENDROOT
BRANCH  18  20
ATOM     20  C   UNL     1      -2.871  -1.207  24.666  0.00  0.00    +0.056 A 
ATOM     21  C   UNL     1      -2.832  -1.521  25.427  0.00  0.00    +0.005 A 
ATOM     22  C   UNL     1      -3.261  -2.202  25.614  0.00  0.00    +0.002 A 
ATOM     23  C   UNL     1      -3.727  -2.567  25.040  0.00  0.00    +0.030 A 
ATOM     24  C   UNL     1      -3.766  -2.251  24.279  0.00  0.00    +0.140 A 
ATOM     25  F   UNL     1      -4.232  -2.615  23.704  0.00  0.00    -0.204 F 
ATOM     26  C   UNL     1      -3.338  -1.571  24.092  0.00  0.00    +0.034 A 
ENDBRANCH  18  20
BRANCH  11  13
ATOM     13  C   UNL     1      -4.629   2.504  25.051  0.00  0.00    +0.083 A 
ATOM     14  C   UNL     1      -5.298   2.222  24.659  0.00  0.00    +0.012 A 
ATOM     15  C   UNL     1      -5.959   2.403  25.119  0.00  0.00    +0.008 A 
ATOM     16  C   UNL     1      -5.699   2.797  25.795  0.00  0.00    +0.036 A 
ATOM     17  S   UNL     1      -4.877   2.860  25.754  0.00  0.00    -0.082 S 
ENDBRANCH  11  13
BRANCH   5   3
ATOM      3  C   UNL     1      -2.291   2.319  24.262  0.00  0.00    +0.337 C 
ATOM      4  O   UNL     1      -2.394   2.684  23.529  0.00  0.00    -0.248 OA
BRANCH   3   2
ATOM      1  C   UNL     1      -1.063   2.991  24.549  0.00  0.00    +0.256 C 
ATOM      2  O   UNL     1      -1.760   2.634  24.809  0.00  0.00    -0.443 OA
ENDBRANCH   3   2
ENDBRANCH   5   3
TORSDOF 4
ENDMDL
MODEL 3
REMARK VINA RESULT:     -10.9      1.611      3.819
REMARK  Name = 
REMARK  4 active torsions:
REMARK  status: ('A' for Active; 'I' for Inactive)
REMARK    1  A    between atoms: O_2  and  C_3
REMARK    2  A    between atoms: C_3  and  C_5
REMARK    3  A    between atoms: C_11  and  C_13
REMARK    4  A    between atoms: C_18  and  C_20
REMARK                            x       y       z     vdW  Elec       q    Type
REMARK                         _______ _______ _______ _____ _____    ______ ____
ROOT
ATOM      5  C   UNL     1      -3.989   1.988  24.965  0.00  0.00    +0.195 C 
ATOM      6  C   UNL     1      -3.423   2.585  25.036  0.00  0.00    +0.125 C 
ATOM      7  N   UNL     1      -2.621   2.391  25.059  0.00  0.00    -0.272 N 
ATOM      8  C   UNL     1      -2.386   1.602  25.012  0.00  0.00    +0.115 C 
ATOM      9  C   UNL     1      -2.952   1.006  24.941  0.00  0.00    +0.116 C 
ATOM     10  N   UNL     1      -3.754   1.199  24.918  0.00  0.00    -0.264 N 
ATOM     11  C   UNL     1      -4.319   0.604  24.847  0.00  0.00    +0.255 C 
ATOM     12  O   UNL     1      -5.121   0.796  24.824  0.00  0.00    -0.269 OA
ATOM     18  C   UNL     1      -2.055   2.988  25.129  0.00  0.00    +0.249 C 
ATOM     19  O   UNL     1      -2.291   3.777  25.177  0.00  0.00    -0.270 OA
ENDROOT
BRANCH  18  20
ATOM     20  C   UNL     1      -1.254   2.794  25.153  0.00  0.00    +0.056 A 
ATOM     21  C   UNL     1      -0.839   2.671  24.450  0.00  0.00    +0.005 A 
ATOM     22  C   UNL     1      -0.037   2.477  24.473  0.00  0.00    +0.002 A 
ATOM     23  C   UNL     1       0.350   2.406  25.198  0.00  0.00    +0.030 A 
ATOM     24  C   UNL     1      -0.066   2.529  25.900  0.00  0.00    +0.140 A 
ATOM     25  F   UNL     1       0.321   2.458  26.626  0.00  0.00    -0.204 F 
ATOM     26  C   UNL     1      -0.867   2.723  25.878  0.00  0.00    +0.034 A 
ENDBRANCH  18  20
BRANCH  11  13
ATOM     13  C   UNL     1      -4.084  -0.186  24.800  0.00  0.00    +0.083 A 
ATOM     14  C   UNL     1      -3.866  -0.666  25.435  0.00  0.00    +0.012 A 
ATOM     15  C   UNL     1      -3.672  -1.410  25.137  0.00  0.00    +0.008 A 
ATOM     16  C   UNL     1      -3.770  -1.391  24.318  0.00  0.00    +0.036 A 
ATOM     17  S   UNL     1      -4.024  -0.634  24.110  0.00  0.00    -0.082 S 
ENDBRANCH  11  13
BRANCH   5   3
ATOM      3  C   UNL     1      -4.791   2.182  24.942  0.00  0.00    +0.337 C 
ATOM      4  O   UNL     1      -5.182   2.234  24.217  0.00  0.00    -0.248 OA
BRANCH   3   2
ATOM      1  C   UNL     1      -5.768   2.922  25.675  0.00  0.00    +0.256 C 
ATOM      2  O   UNL     1      -5.201   2.324  25.644  0.00  0.00    -0.443 OA
ENDBRANCH   3   2
ENDBRANCH   5   3
TORSDOF 4
ENDMDL
MODEL 4
REMARK VINA RESULT:     -10.5      2.358      4.359
REMARK  Name = 
REMARK  4 active torsions:
REMARK  status: ('A' for Active; 'I' for Inactive)
REMARK    1  A    between atoms: O_2  and  C_3
REMARK    2  A    between atoms: C_3  and  C_5
REMARK    3  A    between atoms: C_11  and  C_13
REMARK    4  A    between atoms: C_18  and  C_20
REMARK                            x       y       z     vdW  Elec       q    Type
REMARK                         _______ _______ _______ _____ _____    ______ ____
ROOT
ATOM      5  C   UNL     1      -1.340   0.478  24.427  0.00  0.00    +0.195 C 
ATOM      6  C   UNL     1      -1.407   1.298  24.359  0.00  0.00    +0.125 C 
ATOM      7  N   UNL     1      -2.135   1.664  24.486  0.00  0.00    -0.272 N 
ATOM      8  C   UNL     1      -2.796   1.211  24.681  0.00  0.00    +0.115 C 
ATOM      9  C   UNL     1      -2.730   0.392  24.749  0.00  0.00    +0.116 C 
ATOM     10  N   UNL     1      -2.001   0.025  24.622  0.00  0.00    -0.264 N 
ATOM     11  C   UNL     1      -1.934  -0.794  24.690  0.00  0.00    +0.255 C 
ATOM     12  O   UNL     1      -1.206  -1.161  24.564  0.00  0.00    -0.269 OA
ATOM     18  C   UNL     1      -2.202   2.484  24.418  0.00  0.00    +0.249 C 
ATOM     19  O   UNL     1      -1.540   2.937  24.223  0.00  0.00    -0.270 OA
ENDROOT
BRANCH  18  20
ATOM     20  C   UNL     1      -2.930   2.850  24.545  0.00  0.00    +0.056 A 
ATOM     21  C   UNL     1      -3.473   2.911  23.926  0.00  0.00    +0.005 A 
ATOM     22  C   UNL     1      -4.202   3.277  24.053  0.00  0.00    +0.002 A 
ATOM     23  C   UNL     1      -4.387   3.581  24.797  0.00  0.00    +0.030 A 
ATOM     24  C   UNL     1      -3.844   3.519  25.415  0.00  0.00    +0.140 A 
ATOM     25  F   UNL     1      -4.029   3.823  26.159  0.00  0.00    -0.204 F 
ATOM     26  C   UNL     1      -3.116   3.154  25.289  0.00  0.00    +0.034 A 
ENDBRANCH  18  20
BRANCH  11  13
ATOM     13  C   UNL     1      -2.596  -1.247  24.885  0.00  0.00    +0.083 A 
ATOM     14  C   UNL     1      -2.925  -1.326  25.637  0.00  0.00    +0.012 A 
ATOM     15  C   UNL     1      -3.577  -1.829  25.578  0.00  0.00    +0.008 A 
ATOM     16  C   UNL     1      -3.651  -2.060  24.790  0.00  0.00    +0.036 A 
ATOM     17  S   UNL     1      -3.044  -1.701  24.361  0.00  0.00    -0.082 S 
ENDBRANCH  11  13
BRANCH   5   3
ATOM      3  C   UNL     1      -0.612   0.112  24.301  0.00  0.00    +0.337 C 
ATOM      4  O   UNL     1      -0.156  -0.134  24.943  0.00  0.00    -0.248 OA
BRANCH   3   2
ATOM      1  C   UNL     1       0.470   0.018  23.371  0.00  0.00    +0.256 C 
ATOM      2  O   UNL     1      -0.339  -0.008  23.531  0.00  0.00    -0.443 OA
ENDBRANCH   3   2
ENDBRANCH   5   3
TORSDOF 4
ENDMDL
MODEL 5
REMARK VINA RESULT:     -10.2      1.745      2.062
REMARK  Name = 
REMARK  4 active torsions:
REMARK  status: ('A' for Active; 'I' for Inactive)
REMARK    1  A    between atoms: O_2  and  C_3
REMARK    2  A    between atoms: C_3  and  C_5
REMARK    3  A    between atoms: C_11  and  C_13
REMARK    4  A    between atoms: C_18  and  C_20
REMARK                            x       y       z     vdW  Elec       q    Type
REMARK                         _______ _______ _______ _____ _____    ______ ____
ROOT
ATOM      5  C   UNL     1      -3.819   1.766  24.796  0.00  0.00    +0.195 C 
ATOM      6  C   UNL     1      -3.714   0.947  24.763  0.00  0.00    +0.125 C 
ATOM      7  N   UNL     1      -2.965   0.624  24.885  0.00  0.00    -0.272 N 
ATOM      8  C   UNL     1      -2.322   1.117  25.039  0.00  0.00    +0.115 C 
ATOM      9  C   UNL     1      -2.427   1.934  25.071  0.00  0.00    +0.116 C 
ATOM     10  N   UNL     1      -3.176   2.259  24.950  0.00  0.00    -0.264 N 
ATOM     11  C   UNL     1      -3.282   3.076  24.982  0.00  0.00    +0.255 C 
ATOM     12  O   UNL     1      -4.030   3.401  24.861  0.00  0.00    -0.269 OA
ATOM     18  C   UNL     1      -2.859  -0.195  24.852  0.00  0.00    +0.249 C 
ATOM     19  O   UNL     1      -3.503  -0.688  24.698  0.00  0.00    -0.270 OA
ENDROOT
BRANCH  18  20
ATOM     20  C   UNL     1      -2.110  -0.518  24.974  0.00  0.00    +0.056 A 
ATOM     21  C   UNL     1      -1.864  -0.710  25.737  0.00  0.00    +0.005 A 
ATOM     22  C   UNL     1      -1.114  -1.034  25.859  0.00  0.00    +0.002 A 
ATOM     23  C   UNL     1      -0.613  -1.166  25.218  0.00  0.00    +0.030 A 
ATOM     24  C   UNL     1      -0.860  -0.974  24.454  0.00  0.00    +0.140 A 
ATOM     25  F   UNL     1      -0.358  -1.106  23.813  0.00  0.00    -0.204 F 
ATOM     26  C   UNL     1      -1.609  -0.651  24.332  0.00  0.00    +0.034 A 
ENDBRANCH  18  20
BRANCH  11  13
ATOM     13  C   UNL     1      -2.638   3.569  25.136  0.00  0.00    +0.083 A 
ATOM     14  C   UNL     1      -2.384   3.816  25.881  0.00  0.00    +0.012 A 
ATOM     15  C   UNL     1      -1.725   4.301  25.777  0.00  0.00    +0.008 A 
ATOM     16  C   UNL     1      -1.572   4.355  24.969  0.00  0.00    +0.036 A 
ATOM     17  S   UNL     1      -2.137   3.902  24.572  0.00  0.00    -0.082 S 
ENDBRANCH  11  13
BRANCH   5   3
ATOM      3  C   UNL     1      -4.568   2.089  24.675  0.00  0.00    +0.337 C 
ATOM      4  O   UNL     1      -4.766   2.407  23.940  0.00  0.00    -0.248 OA
BRANCH   3   2
ATOM      1  C   UNL     1      -5.920   1.986  25.125  0.00  0.00    +0.256 C 
ATOM      2  O   UNL     1      -5.119   2.095  25.289  0.00  0.00    -0.443 OA
ENDBRANCH   3   2
ENDBRANCH   5   3
TORSDOF 4
ENDMDL
