MODEL 1
REMARK VINA RESULT:     -12.7      0.000      0.000
REMARK  Name = 
REMARK  4 active torsions:
REMARK  status: ('A' for Active; 'I' for Inactive)
REMARK    1  A    between atoms: C_5  and  C_6
REMARK    2  A    between atoms: N_17  and  C_18
REMARK    3  A    between atoms: C_18  and  C_19
REMARK    4  A    between atoms: C_23  and  C_25
REMARK                            x       y       z     vdW  Elec       q    Type
REMARK                         _______ _______ _______ _____ _____    ______ ____
ROOT
ATOM      1  O   UNL     1      -1.239   1.388  25.479  0.00  0.00    -0.267 OA
ATOM      2  C   UNL     1      -1.582   0.650  25.344  0.00  0.00    +0.261 A 
ATOM      3  C   UNL     1      -1.276  -0.021  25.715  0.00  0.00    +0.061 A 
ATOM      4  C   UNL     1      -1.619  -0.759  25.580  0.00  0.00    +0.006 A 
ATOM      5  C   UNL     1      -2.269  -0.827  25.075  0.00  0.00    +0.013 A 
ATOM     12  C   UNL     1      -2.574  -0.156  24.705  0.00  0.00    +0.041 A 
ATOM     13  C   UNL     1      -3.241   0.098  24.126  0.00  0.00    +0.054 C 
ATOM     14  C   UNL     1      -3.774  -0.164  23.751  0.00  0.00    +0.011 C 
ATOM     15  C   UNL     1      -3.432   0.563  23.886  0.00  0.00    +0.039 C 
ATOM     16  C   UNL     1      -3.164   1.514  23.921  0.00  0.00    +0.074 C 
ATOM     17  N   UNL     1      -2.518   1.457  24.447  0.00  0.00    -0.269 NA
ATOM     27  C   UNL     1      -2.994   1.020  24.149  0.00  0.00    +0.078 C 
ATOM     28  C   UNL     1      -2.733   0.308  24.492  0.00  0.00    +0.110 C 
ATOM     29  N   UNL     1      -2.231   0.582  24.840  0.00  0.00    -0.299 N 
ENDROOT
BRANCH   5   6
ATOM      6  C   UNL     1      -2.612  -1.565  24.941  0.00  0.00    +0.020 A 
ATOM      7  C   UNL     1      -3.243  -1.818  25.408  0.00  0.00    +0.003 A 
ATOM      8  C   UNL     1      -3.586  -2.556  25.273  0.00  0.00    +0.021 A 
ATOM      9  C   UNL     1      -3.298  -3.042  24.672  0.00  0.00    +0.099 A 
ATOM     10  N   UNL     1      -2.667  -2.789  24.205  0.00  0.00    -0.242 NA
ATOM     11  C   UNL     1      -2.324  -2.051  24.340  0.00  0.00    +0.099 A 
ENDBRANCH   5   6
BRANCH  17  18
ATOM     18  C   UNL     1      -1.879   1.700  24.910  0.00  0.00    +0.099 C 
BRANCH  18  19
ATOM     19  C   UNL     1      -1.687   2.500  24.961  0.00  0.00    -0.005 A 
ATOM     20  C   UNL     1      -1.019   2.790  24.574  0.00  0.00    -0.003 A 
ATOM     21  C   UNL     1      -0.827   3.591  24.626  0.00  0.00    +0.000 A 
ATOM     22  C   UNL     1      -1.304   4.102  25.064  0.00  0.00    +0.010 A 
ATOM     23  C   UNL     1      -1.972   3.813  25.451  0.00  0.00    +0.068 A 
ATOM     24  C   UNL     1      -2.164   3.012  25.400  0.00  0.00    +0.007 A 
BRANCH  23  25
ATOM     25  C   UNL     1      -2.449   4.324  25.889  0.00  0.00    +0.100 C 
ATOM     26  N   UNL     1      -2.927   4.834  26.327  0.00  0.00    -0.191 NA
ENDBRANCH  23  25
ENDBRANCH  18  19
ENDBRANCH  17  18
TORSDOF 4
ENDMDL
MODEL 2
REMARK VINA RESULT:     -12.6      0.812      4.645
REMARK  Name = 
REMARK  4 active torsions:
REMARK  status: ('A' for Active; 'I' for Inactive)
REMARK    1  A    between atoms: C_5  and  C_6
REMARK    2  A    between atoms: N_17  and  C_18
REMARK    3  A    between atoms: C_18  and  C_19
REMARK    4  A    between atoms: C_23  and  C_25
REMARK                            x       y       z     vdW  Elec       q    Type
REMARK                         _______ _______ _______ _____ _____    ______ ____
ROOT
ATOM      1  O   UNL     1      -1.682   0.306  25.596  0.00  0.00    -0.267 OA
ATOM      2  C   UNL     1      -1.611   1.122  25.495  0.00  0.00    +0.261 A 
ATOM      3  C   UNL     1      -0.989   1.529  25.851  0.00  0.00    +0.061 A 
ATOM      4  C   UNL     1      -0.918   2.345  25.750  0.00  0.00    +0.006 A 
ATOM      5  C   UNL     1      -1.470   2.753  25.292  0.00  0.00    +0.013 A 
ATOM     12  C   UNL     1      -2.092   2.346  24.936  0.00  0.00    +0.041 A 
ATOM     13  C   UNL     1      -2.825   2.489  24.400  0.00  0.00    +0.054 C 
ATOM     14  C   UNL     1      -3.171   3.000  24.066  0.00  0.00    +0.011 C 
ATOM     15  C   UNL     1      -3.238   2.195  24.168  0.00  0.00    +0.039 C 
ATOM     16  C   UNL     1      -3.486   1.238  24.173  0.00  0.00    +0.074 C 
ATOM     17  N   UNL     1      -2.873   0.937  24.654  0.00  0.00    -0.269 NA
ATOM     27  C   UNL     1      -3.078   1.568  24.395  0.00  0.00    +0.078 C 
ATOM     28  C   UNL     1      -2.474   2.035  24.728  0.00  0.00    +0.110 C 
ATOM     29  N   UNL     1      -2.163   1.530  25.037  0.00  0.00    -0.299 N 
ENDROOT
BRANCH   5   6
ATOM      6  C   UNL     1      -1.399   3.569  25.191  0.00  0.00    +0.020 A 
ATOM      7  C   UNL     1      -0.863   3.871  24.641  0.00  0.00    +0.003 A 
ATOM      8  C   UNL     1      -0.793   4.687  24.540  0.00  0.00    +0.021 A 
ATOM      9  C   UNL     1      -1.257   5.201  24.988  0.00  0.00    +0.099 A 
ATOM     10  N   UNL     1      -1.793   4.898  25.537  0.00  0.00    -0.242 NA
ATOM     11  C   UNL     1      -1.864   4.082  25.639  0.00  0.00    +0.099 A 
ENDBRANCH   5   6
BRANCH  17  18
ATOM     18  C   UNL     1      -2.421   0.385  25.069  0.00  0.00    +0.099 C 
BRANCH  18  19
ATOM     19  C   UNL     1      -2.669  -0.400  25.115  0.00  0.00    -0.005 A 
ATOM     20  C   UNL     1      -3.331  -0.598  25.566  0.00  0.00    -0.003 A 
ATOM     21  C   UNL     1      -3.580  -1.383  25.612  0.00  0.00    +0.000 A 
ATOM     22  C   UNL     1      -3.166  -1.971  25.208  0.00  0.00    +0.010 A 
ATOM     23  C   UNL     1      -2.504  -1.774  24.757  0.00  0.00    +0.068 A 
ATOM     24  C   UNL     1      -2.255  -0.988  24.711  0.00  0.00    +0.007 A 
BRANCH  23  25
ATOM     25  C   UNL     1      -2.089  -2.362  24.353  0.00  0.00    +0.100 C 
ATOM     26  N   UNL     1      -1.674  -2.949  23.948  0.00  0.00    -0.191 NA
ENDBRANCH  23  25
ENDBRANCH  18  19
ENDBRANCH  17  18
TORSDOF 4
ENDMDL
MODEL 3
REMARK VINA RESULT:     -12.5      1.230      4.661
REMARK  Name = 
REMARK  4 active torsions:
REMARK  status: ('A' for Active; 'I' for Inactive)
REMARK    1  A    between atoms: C_5  and  C_6
REMARK    2  A    between atoms: N_17  and  C_18
REMARK    3  A    between atoms: C_18  and  C_19
REMARK    4  A    between atoms: C_23  and  C_25
REMARK                            x       y       z     vdW  Elec       q    Type
REMARK                         _______ _______ _______ _____ _____    ______ ____
ROOT
ATOM      1  O   UNL     1      -2.562   0.029  24.244  0.00  0.00    -0.267 OA
ATOM      2  C   UNL     1      -2.510   0.831  24.432  0.00  0.00    +0.261 A 
ATOM      3  C   UNL     1      -1.783   1.218  24.388  0.00  0.00    +0.061 A 
ATOM      4  C   UNL     1      -1.731   2.020  24.576  0.00  0.00    +0.006 A 
ATOM      5  C   UNL     1      -2.405   2.434  24.809  0.00  0.00    +0.013 A 
ATOM     12  C   UNL     1      -3.132   2.046  24.853  0.00  0.00    +0.041 A 
ATOM     13  C   UNL     1      -4.013   2.204  25.062  0.00  0.00    +0.054 C 
ATOM     14  C   UNL     1      -4.446   2.714  25.272  0.00  0.00    +0.011 C 
ATOM     15  C   UNL     1      -4.494   1.923  25.085  0.00  0.00    +0.039 C 
ATOM     16  C   UNL     1      -4.752   0.986  24.903  0.00  0.00    +0.074 C 
ATOM     17  N   UNL     1      -4.008   0.676  24.683  0.00  0.00    -0.269 NA
ATOM     27  C   UNL     1      -4.278   1.302  24.890  0.00  0.00    +0.078 C 
ATOM     28  C   UNL     1      -3.576   1.749  24.865  0.00  0.00    +0.110 C 
ATOM     29  N   UNL     1      -3.184   1.245  24.665  0.00  0.00    -0.299 N 
ENDROOT
BRANCH   5   6
ATOM      6  C   UNL     1      -2.353   3.236  24.997  0.00  0.00    +0.020 A 
ATOM      7  C   UNL     1      -2.147   3.467  25.761  0.00  0.00    +0.003 A 
ATOM      8  C   UNL     1      -2.095   4.269  25.949  0.00  0.00    +0.021 A 
ATOM      9  C   UNL     1      -2.249   4.839  25.373  0.00  0.00    +0.099 A 
ATOM     10  N   UNL     1      -2.455   4.608  24.609  0.00  0.00    -0.242 NA
ATOM     11  C   UNL     1      -2.507   3.806  24.421  0.00  0.00    +0.099 A 
ENDBRANCH   5   6
BRANCH  17  18
ATOM     18  C   UNL     1      -3.447   0.123  24.438  0.00  0.00    +0.099 C 
BRANCH  18  19
ATOM     19  C   UNL     1      -3.671  -0.658  24.301  0.00  0.00    -0.005 A 
ATOM     20  C   UNL     1      -4.120  -0.849  23.636  0.00  0.00    -0.003 A 
ATOM     21  C   UNL     1      -4.345  -1.631  23.498  0.00  0.00    +0.000 A 
ATOM     22  C   UNL     1      -4.119  -2.223  24.027  0.00  0.00    +0.010 A 
ATOM     23  C   UNL     1      -3.670  -2.033  24.692  0.00  0.00    +0.068 A 
ATOM     24  C   UNL     1      -3.446  -1.251  24.829  0.00  0.00    +0.007 A 
BRANCH  23  25
ATOM     25  C   UNL     1      -3.445  -2.625  25.221  0.00  0.00    +0.100 C 
ATOM     26  N   UNL     1      -3.220  -3.217  25.750  0.00  0.00    -0.191 NA
ENDBRANCH  23  25
ENDBRANCH  18  19
ENDBRANCH  17  18
TORSDOF 4
ENDMDL
