MODEL 1
REMARK VINA RESULT:     -11.2      0.000      0.000
REMARK  Name = 
REMARK  4 active torsions:
REMARK  status: ('A' for Active; 'I' for Inactive)
REMARK    1  A    between atoms: C_5  and  C_8
REMARK    2  A    between atoms: C_17  and  N_25
REMARK    3  A    between atoms: N_28  and  C_29
REMARK    4  A    between atoms: C_29  and  C_30
REMARK                            x       y       z     vdW  Elec       q    Type
REMARK                         _______ _______ _______ _____ _____    ______ ____
ROOT
ATOM      8  C   UNL     1      -3.524   0.783  24.984  0.00  0.00    +0.000 A 
ATOM      9  C   UNL     1      -3.539   0.039  25.339  0.00  0.00    +0.001 A 
ATOM     10  C   UNL     1      -2.893  -0.469  25.259  0.00  0.00    +0.017 A 
ATOM     11  C   UNL     1      -2.233  -0.232  24.825  0.00  0.00    +0.078 A 
ATOM     12  N   UNL     1      -1.652  -0.818  24.814  0.00  0.00    -0.178 NA
ATOM     13  C   UNL     1      -0.914  -0.805  24.446  0.00  0.00    +0.264 C 
ATOM     14  O   UNL     1      -0.456  -1.484  24.539  0.00  0.00    -0.271 OA
ATOM     15  C   UNL     1      -0.574  -0.202  23.998  0.00  0.00    +0.156 C 
ATOM     16  C   UNL     1       0.176  -0.412  23.729  0.00  0.00    +0.051 C 
ATOM     17  C   UNL     1       0.613   0.115  23.268  0.00  0.00    +0.101 C 
ATOM     18  C   UNL     1       0.299   0.853  23.078  0.00  0.00    +0.043 C 
ATOM     19  C   UNL     1      -0.451   1.065  23.347  0.00  0.00    +0.096 C 
ATOM     20  N   UNL     1      -0.888   0.538  23.807  0.00  0.00    -0.269 N 
ATOM     21  C   UNL     1      -1.620   0.855  24.017  0.00  0.00    +0.251 C 
ATOM     22  O   UNL     1      -1.773   1.615  23.737  0.00  0.00    -0.270 OA
ATOM     23  C   UNL     1      -2.218   0.513  24.470  0.00  0.00    +0.069 A 
ATOM     24  C   UNL     1      -2.864   1.020  24.550  0.00  0.00    +0.006 A 
ENDROOT
BRANCH   8   5
ATOM      1 CL   UNL     1      -6.106   2.813  25.302  0.00  0.00    -0.082 Cl
ATOM      2  C   UNL     1      -5.460   2.306  25.223  0.00  0.00    +0.058 A 
ATOM      3  C   UNL     1      -5.568   1.548  24.916  0.00  0.00    +0.011 A 
ATOM      4  C   UNL     1      -4.922   1.040  24.836  0.00  0.00    +0.001 A 
ATOM      5  C   UNL     1      -4.170   1.291  25.063  0.00  0.00    +0.000 A 
ATOM      6  C   UNL     1      -4.063   2.049  25.371  0.00  0.00    +0.001 A 
ATOM      7  C   UNL     1      -4.709   2.557  25.450  0.00  0.00    +0.011 A 
ENDBRANCH   8   5
BRANCH  17  25
ATOM     25  N   UNL     1       1.364  -0.097  22.999  0.00  0.00    -0.189 NA
ATOM     26  C   UNL     1       2.004   0.408  23.121  0.00  0.00    +0.340 C 
ATOM     27  O   UNL     1       1.894   1.126  23.513  0.00  0.00    -0.249 OA
ATOM     28  N   UNL     1       2.755   0.196  22.853  0.00  0.00    -0.182 NA
BRANCH  28  29
ATOM     29  C   UNL     1       3.395   0.700  22.975  0.00  0.00    +0.143 C 
BRANCH  29  30
ATOM     30  C   UNL     1       4.131   0.522  22.646  0.00  0.00    -0.003 C 
ATOM     31  C   UNL     1       4.804   0.513  23.122  0.00  0.00    -0.003 C 
ENDBRANCH  29  30
ENDBRANCH  28  29
ENDBRANCH  17  25
TORSDOF 4
ENDMDL
MODEL 2
REMARK VINA RESULT:     -10.1      1.520      2.313
REMARK  Name = 
REMARK  4 active torsions:
REMARK  status: ('A' for Active; 'I' for Inactive)
REMARK    1  A    between atoms: C_5  and  C_8
REMARK    2  A    between atoms: C_17  and  N_25
REMARK    3  A    between atoms: N_28  and  C_29
REMARK    4  A    between atoms: C_29  and  C_30
REMARK                            x       y       z     vdW  Elec       q    Type
REMARK                         _______ _______ _______ _____ _____    ______ ____
ROOT
ATOM      8  C   UNL     1      -3.768   2.805  24.955  0.00  0.00    +0.000 A 
ATOM      9  C   UNL     1      -3.608   3.611  24.888  0.00  0.00    +0.001 A 
ATOM     10  C   UNL     1      -2.837   3.867  24.746  0.00  0.00    +0.017 A 
ATOM     11  C   UNL     1      -2.227   3.317  24.670  0.00  0.00    +0.078 A 
ATOM     12  N   UNL     1      -1.502   3.687  24.530  0.00  0.00    -0.178 NA
ATOM     13  C   UNL     1      -0.761   3.343  24.422  0.00  0.00    +0.264 C 
ATOM     14  O   UNL     1      -0.138   3.867  24.291  0.00  0.00    -0.271 OA
ATOM     15  C   UNL     1      -0.560   2.542  24.427  0.00  0.00    +0.156 C 
ATOM     16  C   UNL     1       0.247   2.433  24.297  0.00  0.00    +0.051 C 
ATOM     17  C   UNL     1       0.563   1.671  24.281  0.00  0.00    +0.101 C 
ATOM     18  C   UNL     1       0.072   1.019  24.396  0.00  0.00    +0.043 C 
ATOM     19  C   UNL     1      -0.735   1.127  24.527  0.00  0.00    +0.096 C 
ATOM     20  N   UNL     1      -1.051   1.889  24.543  0.00  0.00    -0.269 N 
ATOM     21  C   UNL     1      -1.865   1.875  24.680  0.00  0.00    +0.251 C 
ATOM     22  O   UNL     1      -2.199   1.127  24.774  0.00  0.00    -0.270 OA
ATOM     23  C   UNL     1      -2.388   2.510  24.737  0.00  0.00    +0.069 A 
ATOM     24  C   UNL     1      -3.158   2.255  24.880  0.00  0.00    +0.006 A 
ENDROOT
BRANCH   8   5
ATOM      1 CL   UNL     1      -6.853   1.781  25.527  0.00  0.00    -0.082 Cl
ATOM      2  C   UNL     1      -6.082   2.037  25.384  0.00  0.00    +0.058 A 
ATOM      3  C   UNL     1      -5.689   1.798  24.700  0.00  0.00    +0.011 A 
ATOM      4  C   UNL     1      -4.917   2.054  24.557  0.00  0.00    +0.001 A 
ATOM      5  C   UNL     1      -4.540   2.549  25.098  0.00  0.00    +0.000 A 
ATOM      6  C   UNL     1      -4.934   2.788  25.783  0.00  0.00    +0.001 A 
ATOM      7  C   UNL     1      -5.705   2.532  25.926  0.00  0.00    +0.011 A 
ENDBRANCH   8   5
BRANCH  17  25
ATOM     25  N   UNL     1       1.371   1.563  24.150  0.00  0.00    -0.189 NA
ATOM     26  C   UNL     1       1.628   1.083  23.531  0.00  0.00    +0.340 C 
ATOM     27  O   UNL     1       1.078   0.712  23.041  0.00  0.00    -0.249 OA
ATOM     28  N   UNL     1       2.436   0.975  23.400  0.00  0.00    -0.182 NA
BRANCH  28  29
ATOM     29  C   UNL     1       2.693   0.496  22.781  0.00  0.00    +0.143 C 
BRANCH  29  30
ATOM     30  C   UNL     1       3.431   0.628  22.435  0.00  0.00    -0.003 C 
ATOM     31  C   UNL     1       4.108   0.296  22.768  0.00  0.00    -0.003 C 
ENDBRANCH  29  30
ENDBRANCH  28  29
ENDBRANCH  17  25
TORSDOF 4
ENDMDL
MODEL 3
REMARK VINA RESULT:      -9.0      1.954      2.564
REMARK  Name = 
REMARK  4 active torsions:
REMARK  status: ('A' for Active; 'I' for Inactive)
REMARK    1  A    between atoms: C_5  and  C_8
REMARK    2  A    between atoms: C_17  and  N_25
REMARK    3  A    between atoms: N_28  and  C_29
REMARK    4  A    between atoms: C_29  and  C_30
REMARK                            x       y       z     vdW  Elec       q    Type
REMARK                         _______ _______ _______ _____ _____    ______ ____
ROOT
ATOM      8  C   UNL     1      -2.258  -0.402  24.473  0.00  0.00    +0.000 A 
ATOM      9  C   UNL     1      -2.324   0.228  25.002  0.00  0.00    +0.001 A 
ATOM     10  C   UNL     1      -1.696   0.756  25.093  0.00  0.00    +0.017 A 
ATOM     11  C   UNL     1      -1.005   0.655  24.655  0.00  0.00    +0.078 A 
ATOM     12  N   UNL     1      -0.449   1.240  24.827  0.00  0.00    -0.178 NA
ATOM     13  C   UNL     1       0.307   1.340  24.514  0.00  0.00    +0.264 C 
ATOM     14  O   UNL     1       0.731   1.986  24.803  0.00  0.00    -0.271 OA
ATOM     15  C   UNL     1       0.696   0.880  23.950  0.00  0.00    +0.156 C 
ATOM     16  C   UNL     1       1.450   1.172  23.790  0.00  0.00    +0.051 C 
ATOM     17  C   UNL     1       1.932   0.791  23.239  0.00  0.00    +0.101 C 
ATOM     18  C   UNL     1       1.660   0.117  22.850  0.00  0.00    +0.043 C 
ATOM     19  C   UNL     1       0.905  -0.176  23.010  0.00  0.00    +0.096 C 
ATOM     20  N   UNL     1       0.423   0.205  23.560  0.00  0.00    -0.269 N 
ATOM     21  C   UNL     1      -0.305  -0.175  23.638  0.00  0.00    +0.251 C 
ATOM     22  O   UNL     1      -0.411  -0.843  23.167  0.00  0.00    -0.270 OA
ATOM     23  C   UNL     1      -0.940   0.025  24.125  0.00  0.00    +0.069 A 
ATOM     24  C   UNL     1      -1.567  -0.503  24.035  0.00  0.00    +0.006 A 
ENDROOT
BRANCH   8   5
ATOM      1 CL   UNL     1      -4.767  -2.515  24.110  0.00  0.00    -0.082 Cl
ATOM      2  C   UNL     1      -4.140  -1.987  24.201  0.00  0.00    +0.058 A 
ATOM      3  C   UNL     1      -4.183  -1.235  23.865  0.00  0.00    +0.011 A 
ATOM      4  C   UNL     1      -3.556  -0.706  23.956  0.00  0.00    +0.001 A 
ATOM      5  C   UNL     1      -2.886  -0.930  24.382  0.00  0.00    +0.000 A 
ATOM      6  C   UNL     1      -2.843  -1.683  24.718  0.00  0.00    +0.001 A 
ATOM      7  C   UNL     1      -3.471  -2.211  24.627  0.00  0.00    +0.011 A 
ENDBRANCH   8   5
BRANCH  17  25
ATOM     25  N   UNL     1       2.686   1.084  23.079  0.00  0.00    -0.189 NA
ATOM     26  C   UNL     1       3.339   0.581  23.100  0.00  0.00    +0.340 C 
ATOM     27  O   UNL     1       3.237  -0.218  23.282  0.00  0.00    -0.249 OA
ATOM     28  N   UNL     1       4.093   0.874  22.940  0.00  0.00    -0.182 NA
BRANCH  28  29
ATOM     29  C   UNL     1       4.745   0.370  22.961  0.00  0.00    +0.143 C 
BRANCH  29  30
ATOM     30  C   UNL     1       5.380   0.537  23.461  0.00  0.00    -0.003 C 
ATOM     31  C   UNL     1       6.074   0.095  23.409  0.00  0.00    -0.003 C 
ENDBRANCH  29  30
ENDBRANCH  28  29
ENDBRANCH  17  25
TORSDOF 4
ENDMDL
MODEL 4
REMARK VINA RESULT:      -8.3      2.478      6.094
REMARK  Name = 
REMARK  4 active torsions:
REMARK  status: ('A' for Active; 'I' for Inactive)
REMARK    1  A    between atoms: C_5  and  C_8
REMARK    2  A    between atoms: C_17  and  N_25
REMARK    3  A    between atoms: N_28  and  C_29
REMARK    4  A    between atoms: C_29  and  C_30
REMARK                            x       y       z     vdW  Elec       q    Type
REMARK                         _______ _______ _______ _____ _____    ______ ____
ROOT
ATOM      8  C   UNL     1       0.618   0.042  23.470  0.00  0.00    +0.000 A 
ATOM      9  C   UNL     1       0.463  -0.637  23.912  0.00  0.00    +0.001 A 
ATOM     10  C   UNL     1      -0.272  -0.734  24.274  0.00  0.00    +0.017 A 
ATOM     11  C   UNL     1      -0.851  -0.152  24.196  0.00  0.00    +0.078 A 
ATOM     12  N   UNL     1      -1.541  -0.356  24.599  0.00  0.00    -0.178 NA
ATOM     13  C   UNL     1      -2.246   0.068  24.661  0.00  0.00    +0.264 C 
ATOM     14  O   UNL     1      -2.840  -0.289  25.108  0.00  0.00    -0.271 OA
ATOM     15  C   UNL     1      -2.435   0.801  24.334  0.00  0.00    +0.156 C 
ATOM     16  C   UNL     1      -3.202   1.030  24.530  0.00  0.00    +0.051 C 
ATOM     17  C   UNL     1      -3.501   1.749  24.257  0.00  0.00    +0.101 C 
ATOM     18  C   UNL     1      -3.033   2.239  23.789  0.00  0.00    +0.043 C 
ATOM     19  C   UNL     1      -2.264   2.011  23.592  0.00  0.00    +0.096 C 
ATOM     20  N   UNL     1      -1.965   1.292  23.864  0.00  0.00    -0.269 N 
ATOM     21  C   UNL     1      -1.191   1.170  23.607  0.00  0.00    +0.251 C 
ATOM     22  O   UNL     1      -0.871   1.769  23.140  0.00  0.00    -0.270 OA
ATOM     23  C   UNL     1      -0.695   0.528  23.754  0.00  0.00    +0.069 A 
ATOM     24  C   UNL     1       0.039   0.624  23.391  0.00  0.00    +0.006 A 
ENDROOT
BRANCH   8   5
ATOM      1 CL   UNL     1       3.556   0.429  22.018  0.00  0.00    -0.082 Cl
ATOM      2  C   UNL     1       2.822   0.332  22.381  0.00  0.00    +0.058 A 
ATOM      3  C   UNL     1       2.657   0.723  23.089  0.00  0.00    +0.011 A 
ATOM      4  C   UNL     1       1.922   0.626  23.452  0.00  0.00    +0.001 A 
ATOM      5  C   UNL     1       1.353   0.139  23.107  0.00  0.00    +0.000 A 
ATOM      6  C   UNL     1       1.518  -0.252  22.399  0.00  0.00    +0.001 A 
ATOM      7  C   UNL     1       2.253  -0.155  22.036  0.00  0.00    +0.011 A 
ENDBRANCH   8   5
BRANCH  17  25
ATOM     25  N   UNL     1      -4.270   1.977  24.454  0.00  0.00    -0.189 NA
ATOM     26  C   UNL     1      -4.396   2.652  24.911  0.00  0.00    +0.340 C 
ATOM     27  O   UNL     1      -3.754   3.100  25.171  0.00  0.00    -0.249 OA
ATOM     28  N   UNL     1      -5.164   2.880  25.108  0.00  0.00    -0.182 NA
BRANCH  28  29
ATOM     29  C   UNL     1      -5.290   3.555  25.564  0.00  0.00    +0.143 C 
BRANCH  29  30
ATOM     30  C   UNL     1      -6.055   3.849  25.664  0.00  0.00    -0.003 C 
ATOM     31  C   UNL     1      -6.186   4.663  25.675  0.00  0.00    -0.003 C 
ENDBRANCH  29  30
ENDBRANCH  28  29
ENDBRANCH  17  25
TORSDOF 4
ENDMDL
MODEL 5
REMARK VINA RESULT:      -7.4      2.948      4.898
REMARK  Name = 
REMARK  4 active torsions:
REMARK  status: ('A' for Active; 'I' for Inactive)
REMARK    1  A    between atoms: C_5  and  C_8
REMARK    2  A    between atoms: C_17  and  N_25
REMARK    3  A    between atoms: N_28  and  C_29
REMARK    4  A    between atoms: C_29  and  C_30
REMARK                            x       y       z     vdW  Elec       q    Type
REMARK                         _______ _______ _______ _____ _____    ______ ____
ROOT
ATOM      8  C   UNL     1      -1.075   3.249  25.329  0.00  0.00    +0.000 A 
ATOM      9  C   UNL     1      -0.351   2.941  25.576  0.00  0.00    +0.001 A 
ATOM     10  C   UNL     1      -0.271   2.129  25.699  0.00  0.00    +0.017 A 
ATOM     11  C   UNL     1      -0.913   1.626  25.576  0.00  0.00    +0.078 A 
ATOM     12  N   UNL     1      -0.716   0.840  25.730  0.00  0.00    -0.178 NA
ATOM     13  C   UNL     1      -1.192   0.170  25.675  0.00  0.00    +0.264 C 
ATOM     14  O   UNL     1      -0.829  -0.545  25.868  0.00  0.00    -0.271 OA
ATOM     15  C   UNL     1      -1.985   0.119  25.452  0.00  0.00    +0.156 C 
ATOM     16  C   UNL     1      -2.255  -0.660  25.470  0.00  0.00    +0.051 C 
ATOM     17  C   UNL     1      -3.036  -0.832  25.266  0.00  0.00    +0.101 C 
ATOM     18  C   UNL     1      -3.546  -0.224  25.044  0.00  0.00    +0.043 C 
ATOM     19  C   UNL     1      -3.278   0.556  25.025  0.00  0.00    +0.096 C 
ATOM     20  N   UNL     1      -2.497   0.727  25.229  0.00  0.00    -0.269 N 
ATOM     21  C   UNL     1      -2.342   1.536  25.174  0.00  0.00    +0.251 C 
ATOM     22  O   UNL     1      -2.975   2.006  24.934  0.00  0.00    -0.270 OA
ATOM     23  C   UNL     1      -1.637   1.936  25.329  0.00  0.00    +0.069 A 
ATOM     24  C   UNL     1      -1.718   2.747  25.205  0.00  0.00    +0.006 A 
ENDROOT
BRANCH   8   5
ATOM      1 CL   UNL     1      -1.399   6.496  24.836  0.00  0.00    -0.082 Cl
ATOM      2  C   UNL     1      -1.319   5.684  24.959  0.00  0.00    +0.058 A 
ATOM      3  C   UNL     1      -0.664   5.285  24.655  0.00  0.00    +0.011 A 
ATOM      4  C   UNL     1      -0.583   4.473  24.779  0.00  0.00    +0.001 A 
ATOM      5  C   UNL     1      -1.156   4.061  25.205  0.00  0.00    +0.000 A 
ATOM      6  C   UNL     1      -1.811   4.462  25.509  0.00  0.00    +0.001 A 
ATOM      7  C   UNL     1      -1.892   5.274  25.385  0.00  0.00    +0.011 A 
ENDBRANCH   8   5
BRANCH  17  25
ATOM     25  N   UNL     1      -3.304  -1.612  25.285  0.00  0.00    -0.189 NA
ATOM     26  C   UNL     1      -3.420  -2.026  24.581  0.00  0.00    +0.340 C 
ATOM     27  O   UNL     1      -3.268  -1.660  23.858  0.00  0.00    -0.249 OA
ATOM     28  N   UNL     1      -3.689  -2.806  24.600  0.00  0.00    -0.182 NA
BRANCH  28  29
ATOM     29  C   UNL     1      -3.805  -3.219  23.896  0.00  0.00    +0.143 C 
BRANCH  29  30
ATOM     30  C   UNL     1      -4.473  -3.694  23.801  0.00  0.00    -0.003 C 
ATOM     31  C   UNL     1      -4.837  -3.752  23.064  0.00  0.00    -0.003 C 
ENDBRANCH  29  30
ENDBRANCH  28  29
ENDBRANCH  17  25
TORSDOF 4
ENDMDL
