MODEL 1
REMARK VINA RESULT:     -12.1      0.000      0.000
REMARK  Name = 
REMARK  5 active torsions:
REMARK  status: ('A' for Active; 'I' for Inactive)
REMARK    1  A    between atoms: O_2  and  C_3
REMARK    2  A    between atoms: C_8  and  C_9
REMARK    3  A    between atoms: C_9  and  C_10
REMARK    4  A    between atoms: C_21  and  N_27
REMARK    5  A    between atoms: C_28  and  C_30
REMARK                            x       y       z     vdW  Elec       q    Type
REMARK                         _______ _______ _______ _____ _____    ______ ____
ROOT
ATOM     10  C   UNL     1      -4.269   0.065  24.731  0.00  0.00    +0.231 C 
ATOM     11  O   UNL     1      -3.514   0.315  24.514  0.00  0.00    -0.274 OA
ATOM     12  N   UNL     1      -4.836   0.618  24.963  0.00  0.00    -0.271 N 
ATOM     13  C   UNL     1      -5.611   0.451  25.194  0.00  0.00    +0.096 C 
ATOM     14  C   UNL     1      -5.980   1.165  25.378  0.00  0.00    +0.045 C 
ATOM     15  C   UNL     1      -5.435   1.773  25.261  0.00  0.00    +0.124 C 
ATOM     16  N   UNL     1      -5.607   2.569  25.390  0.00  0.00    -0.204 NA
ATOM     17  C   UNL     1      -5.115   3.224  25.294  0.00  0.00    +0.260 C 
ATOM     18  O   UNL     1      -5.454   3.956  25.470  0.00  0.00    -0.272 OA
ATOM     19  C   UNL     1      -4.329   3.245  25.045  0.00  0.00    +0.155 C 
ATOM     20  C   UNL     1      -3.893   3.942  24.971  0.00  0.00    +0.053 C 
ATOM     21  C   UNL     1      -3.137   3.743  24.711  0.00  0.00    +0.117 C 
ATOM     22  C   UNL     1      -3.104   2.923  24.625  0.00  0.00    +0.115 C 
ATOM     23  N   UNL     1      -3.841   2.615  24.831  0.00  0.00    -0.270 N 
ATOM     24  C   UNL     1      -4.018   1.810  24.813  0.00  0.00    +0.246 C 
ATOM     25  O   UNL     1      -3.405   1.313  24.572  0.00  0.00    -0.273 OA
ATOM     26  C   UNL     1      -4.728   1.435  25.004  0.00  0.00    +0.172 C 
ENDROOT
BRANCH  21  27
ATOM     27  N   UNL     1      -2.520   4.271  24.564  0.00  0.00    -0.205 NA
ATOM     28  C   UNL     1      -1.952   4.413  25.145  0.00  0.00    +0.241 C 
ATOM     29  O   UNL     1      -2.001   4.028  25.873  0.00  0.00    -0.273 OA
BRANCH  28  30
ATOM     30  C   UNL     1      -1.335   4.941  24.998  0.00  0.00    +0.078 C 
ATOM     31  C   UNL     1      -0.536   4.866  24.806  0.00  0.00    +0.009 C 
ATOM     32  C   UNL     1      -0.462   5.687  24.789  0.00  0.00    +0.001 C 
ATOM     33  C   UNL     1      -1.261   5.762  24.981  0.00  0.00    +0.009 C 
ENDBRANCH  28  30
ENDBRANCH  21  27
BRANCH  10   9
ATOM      9  C   UNL     1      -4.458  -0.738  24.717  0.00  0.00    +0.115 C 
BRANCH   9   8
ATOM      3  C   UNL     1      -3.834  -1.963  24.328  0.00  0.00    +0.135 A 
ATOM      4  C   UNL     1      -3.241  -2.528  24.433  0.00  0.00    +0.037 A 
ATOM      5  C   UNL     1      -2.682  -2.433  25.032  0.00  0.00    +0.003 A 
ATOM      6  C   UNL     1      -2.714  -1.773  25.526  0.00  0.00    -0.000 A 
ATOM      7  C   UNL     1      -3.306  -1.209  25.421  0.00  0.00    -0.001 A 
ATOM      8  C   UNL     1      -3.866  -1.304  24.822  0.00  0.00    +0.021 A 
BRANCH   3   2
ATOM      1  C   UNL     1      -4.453  -2.779  23.331  0.00  0.00    +0.252 C 
ATOM      2  O   UNL     1      -4.392  -2.058  23.729  0.00  0.00    -0.472 OA
ENDBRANCH   3   2
ENDBRANCH   9   8
ENDBRANCH  10   9
TORSDOF 5
ENDMDL
MODEL 2
REMARK VINA RESULT:     -11.7      1.009      5.369
REMARK  Name = 
REMARK  5 active torsions:
REMARK  status: ('A' for Active; 'I' for Inactive)
REMARK    1  A    between atoms: O_2  and  C_3
REMARK    2  A    between atoms: C_8  and  C_9
REMARK    3  A    between atoms: C_9  and  C_10
REMARK    4  A    between atoms: C_21  and  N_27
REMARK    5  A    between atoms: C_28  and  C_30
REMARK                            x       y       z     vdW  Elec       q    Type
REMARK                         _______ _______ _______ _____ _____    ______ ____
ROOT
ATOM     10  C   UNL     1      -2.834   3.390  25.393  0.00  0.00    +0.231 C 
ATOM     11  O   UNL     1      -2.404   2.726  25.158  0.00  0.00    -0.274 OA
ATOM     12  N   UNL     1      -3.657   3.352  25.445  0.00  0.00    -0.271 N 
ATOM     13  C   UNL     1      -4.157   3.968  25.671  0.00  0.00    +0.096 C 
ATOM     14  C   UNL     1      -4.933   3.687  25.646  0.00  0.00    +0.045 C 
ATOM     15  C   UNL     1      -4.911   2.899  25.405  0.00  0.00    +0.124 C 
ATOM     16  N   UNL     1      -5.586   2.433  25.315  0.00  0.00    -0.204 NA
ATOM     17  C   UNL     1      -5.639   1.644  25.080  0.00  0.00    +0.260 C 
ATOM     18  O   UNL     1      -6.402   1.331  25.044  0.00  0.00    -0.272 OA
ATOM     19  C   UNL     1      -5.030   1.126  24.875  0.00  0.00    +0.155 C 
ATOM     20  C   UNL     1      -5.156   0.343  24.647  0.00  0.00    +0.053 C 
ATOM     21  C   UNL     1      -4.422   0.003  24.487  0.00  0.00    +0.117 C 
ATOM     22  C   UNL     1      -3.842   0.576  24.616  0.00  0.00    +0.115 C 
ATOM     23  N   UNL     1      -4.218   1.270  24.856  0.00  0.00    -0.270 N 
ATOM     24  C   UNL     1      -3.814   1.967  25.037  0.00  0.00    +0.246 C 
ATOM     25  O   UNL     1      -2.993   1.934  24.963  0.00  0.00    -0.273 OA
ATOM     26  C   UNL     1      -4.123   2.691  25.281  0.00  0.00    +0.172 C 
ENDROOT
BRANCH  21  27
ATOM     27  N   UNL     1      -4.290  -0.773  24.241  0.00  0.00    -0.205 NA
ATOM     28  C   UNL     1      -3.967  -1.322  24.766  0.00  0.00    +0.241 C 
ATOM     29  O   UNL     1      -3.775  -1.094  25.535  0.00  0.00    -0.273 OA
BRANCH  28  30
ATOM     30  C   UNL     1      -3.835  -2.099  24.519  0.00  0.00    +0.078 C 
ATOM     31  C   UNL     1      -4.064  -2.551  23.869  0.00  0.00    +0.009 C 
ATOM     32  C   UNL     1      -3.649  -3.196  24.171  0.00  0.00    +0.001 C 
ATOM     33  C   UNL     1      -3.419  -2.744  24.821  0.00  0.00    +0.009 C 
ENDBRANCH  28  30
ENDBRANCH  21  27
BRANCH  10   9
ATOM      9  C   UNL     1      -2.441   4.092  25.576  0.00  0.00    +0.115 C 
BRANCH   9   8
ATOM      3  C   UNL     1      -1.369   4.901  25.087  0.00  0.00    +0.135 A 
ATOM      4  C   UNL     1      -0.572   4.990  24.894  0.00  0.00    +0.037 A 
ATOM      5  C   UNL     1      -0.049   4.359  24.995  0.00  0.00    +0.003 A 
ATOM      6  C   UNL     1      -0.324   3.639  25.291  0.00  0.00    -0.000 A 
ATOM      7  C   UNL     1      -1.121   3.550  25.484  0.00  0.00    -0.001 A 
ATOM      8  C   UNL     1      -1.643   4.181  25.382  0.00  0.00    +0.021 A 
BRANCH   3   2
ATOM      1  C   UNL     1      -1.605   6.272  24.761  0.00  0.00    +0.252 C 
ATOM      2  O   UNL     1      -1.891   5.531  24.986  0.00  0.00    -0.472 OA
ENDBRANCH   3   2
ENDBRANCH   9   8
ENDBRANCH  10   9
TORSDOF 5
ENDMDL
MODEL 3
REMARK VINA RESULT:     -10.9      2.972      4.833
REMARK  Name = 
REMARK  5 active torsions:
REMARK  status: ('A' for Active; 'I' for Inactive)
REMARK    1  A    between atoms: O_2  and  C_3
REMARK    2  A    between atoms: C_8  and  C_9
REMARK    3  A    between atoms: C_9  and  C_10
REMARK    4  A    between atoms: C_21  and  N_27
REMARK    5  A    between atoms: C_28  and  C_30
REMARK                            x       y       z     vdW  Elec       q    Type
REMARK                         _______ _______ _______ _____ _____    ______ ____
ROOT
ATOM     10  C   UNL     1      -3.667   0.950  24.657  0.00  0.00    +0.231 C 
ATOM     11  O   UNL     1      -3.041   1.436  24.427  0.00  0.00    -0.274 OA
ATOM     12  N   UNL     1      -3.540   0.144  24.781  0.00  0.00    -0.271 N 
ATOM     13  C   UNL     1      -4.111  -0.406  25.011  0.00  0.00    +0.096 C 
ATOM     14  C   UNL     1      -3.744  -1.143  25.069  0.00  0.00    +0.045 C 
ATOM     15  C   UNL     1      -2.948  -1.048  24.875  0.00  0.00    +0.124 C 
ATOM     16  N   UNL     1      -2.403  -1.668  24.872  0.00  0.00    -0.204 NA
ATOM     17  C   UNL     1      -1.599  -1.645  24.690  0.00  0.00    +0.260 C 
ATOM     18  O   UNL     1      -1.201  -2.367  24.739  0.00  0.00    -0.272 OA
ATOM     19  C   UNL     1      -1.140  -0.997  24.467  0.00  0.00    +0.155 C 
ATOM     20  C   UNL     1      -0.334  -1.048  24.298  0.00  0.00    +0.053 C 
ATOM     21  C   UNL     1      -0.068  -0.294  24.097  0.00  0.00    +0.117 C 
ATOM     22  C   UNL     1      -0.710   0.223  24.141  0.00  0.00    +0.115 C 
ATOM     23  N   UNL     1      -1.373  -0.212  24.370  0.00  0.00    -0.270 N 
ATOM     24  C   UNL     1      -2.121   0.120  24.472  0.00  0.00    +0.246 C 
ATOM     25  O   UNL     1      -2.175   0.931  24.331  0.00  0.00    -0.273 OA
ATOM     26  C   UNL     1      -2.822  -0.252  24.697  0.00  0.00    +0.172 C 
ENDROOT
BRANCH  21  27
ATOM     27  N   UNL     1       0.704  -0.091  23.889  0.00  0.00    -0.205 NA
ATOM     28  C   UNL     1       0.925  -0.075  23.094  0.00  0.00    +0.241 C 
ATOM     29  O   UNL     1       0.374  -0.261  22.509  0.00  0.00    -0.273 OA
BRANCH  28  30
ATOM     30  C   UNL     1       1.697   0.128  22.885  0.00  0.00    +0.078 C 
ATOM     31  C   UNL     1       2.242  -0.147  22.330  0.00  0.00    +0.009 C 
ATOM     32  C   UNL     1       2.788   0.414  22.589  0.00  0.00    +0.001 C 
ATOM     33  C   UNL     1       2.244   0.689  23.144  0.00  0.00    +0.009 C 
ENDBRANCH  28  30
ENDBRANCH  21  27
BRANCH  10   9
ATOM      9  C   UNL     1      -4.420   1.271  24.762  0.00  0.00    +0.115 C 
BRANCH   9   8
ATOM      3  C   UNL     1      -5.054   2.411  25.344  0.00  0.00    +0.135 A 
ATOM      4  C   UNL     1      -5.152   3.229  25.390  0.00  0.00    +0.037 A 
ATOM      5  C   UNL     1      -4.712   3.725  24.898  0.00  0.00    +0.003 A 
ATOM      6  C   UNL     1      -4.174   3.403  24.361  0.00  0.00    -0.000 A 
ATOM      7  C   UNL     1      -4.077   2.585  24.316  0.00  0.00    -0.001 A 
ATOM      8  C   UNL     1      -4.517   2.089  24.808  0.00  0.00    +0.021 A 
BRANCH   3   2
ATOM      1  C   UNL     1      -6.146   2.213  26.244  0.00  0.00    +0.252 C 
ATOM      2  O   UNL     1      -5.494   1.916  25.835  0.00  0.00    -0.472 OA
ENDBRANCH   3   2
ENDBRANCH   9   8
ENDBRANCH  10   9
TORSDOF 5
ENDMDL
MODEL 4
REMARK VINA RESULT:     -10.3      2.404      6.311
REMARK  Name = 
REMARK  5 active torsions:
REMARK  status: ('A' for Active; 'I' for Inactive)
REMARK    1  A    between atoms: O_2  and  C_3
REMARK    2  A    between atoms: C_8  and  C_9
REMARK    3  A    between atoms: C_9  and  C_10
REMARK    4  A    between atoms: C_21  and  N_27
REMARK    5  A    between atoms: C_28  and  C_30
REMARK                            x       y       z     vdW  Elec       q    Type
REMARK                         _______ _______ _______ _____ _____    ______ ____
ROOT
ATOM     10  C   UNL     1      -0.978   2.635  25.286  0.00  0.00    +0.231 C 
ATOM     11  O   UNL     1      -1.636   2.216  25.552  0.00  0.00    -0.274 OA
ATOM     12  N   UNL     1      -0.398   2.252  24.840  0.00  0.00    -0.271 N 
ATOM     13  C   UNL     1       0.288   2.599  24.538  0.00  0.00    +0.096 C 
ATOM     14  C   UNL     1       0.707   2.017  24.130  0.00  0.00    +0.045 C 
ATOM     15  C   UNL     1       0.282   1.313  24.181  0.00  0.00    +0.124 C 
ATOM     16  N   UNL     1       0.531   0.605  23.837  0.00  0.00    -0.204 NA
ATOM     17  C   UNL     1       0.159  -0.131  23.847  0.00  0.00    +0.260 C 
ATOM     18  O   UNL     1       0.553  -0.737  23.447  0.00  0.00    -0.272 OA
ATOM     19  C   UNL     1      -0.554  -0.342  24.204  0.00  0.00    +0.155 C 
ATOM     20  C   UNL     1      -0.870  -1.104  24.174  0.00  0.00    +0.053 C 
ATOM     21  C   UNL     1      -1.582  -1.102  24.589  0.00  0.00    +0.117 C 
ATOM     22  C   UNL     1      -1.707  -0.338  24.877  0.00  0.00    +0.115 C 
ATOM     23  N   UNL     1      -1.071   0.132  24.638  0.00  0.00    -0.270 N 
ATOM     24  C   UNL     1      -1.004   0.932  24.823  0.00  0.00    +0.246 C 
ATOM     25  O   UNL     1      -1.619   1.250  25.271  0.00  0.00    -0.273 OA
ATOM     26  C   UNL     1      -0.401   1.458  24.619  0.00  0.00    +0.172 C 
ENDROOT
BRANCH  21  27
ATOM     27  N   UNL     1      -2.081  -1.748  24.699  0.00  0.00    -0.205 NA
ATOM     28  C   UNL     1      -2.807  -1.779  24.308  0.00  0.00    +0.241 C 
ATOM     29  O   UNL     1      -3.032  -1.164  23.807  0.00  0.00    -0.273 OA
BRANCH  28  30
ATOM     30  C   UNL     1      -3.308  -2.427  24.418  0.00  0.00    +0.078 C 
ATOM     31  C   UNL     1      -3.993  -2.703  24.051  0.00  0.00    +0.009 C 
ATOM     32  C   UNL     1      -4.015  -3.341  24.572  0.00  0.00    +0.001 C 
ATOM     33  C   UNL     1      -3.330  -3.065  24.939  0.00  0.00    +0.009 C 
ENDBRANCH  28  30
ENDBRANCH  21  27
BRANCH  10   9
ATOM      9  C   UNL     1      -0.899   3.437  25.465  0.00  0.00    +0.115 C 
BRANCH   9   8
ATOM      3  C   UNL     1      -1.593   4.678  25.326  0.00  0.00    +0.135 A 
ATOM      4  C   UNL     1      -2.265   5.140  25.456  0.00  0.00    +0.037 A 
ATOM      5  C   UNL     1      -2.914   4.821  25.854  0.00  0.00    +0.003 A 
ATOM      6  C   UNL     1      -2.891   4.041  26.123  0.00  0.00    -0.000 A 
ATOM      7  C   UNL     1      -2.220   3.580  25.993  0.00  0.00    -0.001 A 
ATOM      8  C   UNL     1      -1.571   3.898  25.595  0.00  0.00    +0.021 A 
BRANCH   3   2
ATOM      1  C   UNL     1      -0.960   5.782  24.677  0.00  0.00    +0.252 C 
ATOM      2  O   UNL     1      -0.945   4.996  24.928  0.00  0.00    -0.472 OA
ENDBRANCH   3   2
ENDBRANCH   9   8
ENDBRANCH  10   9
TORSDOF 5
ENDMDL
MODEL 5
REMARK VINA RESULT:      -9.8      2.260      3.373
REMARK  Name = 
REMARK  5 active torsions:
REMARK  status: ('A' for Active; 'I' for Inactive)
REMARK    1  A    between atoms: O_2  and  C_3
REMARK    2  A    between atoms: C_8  and  C_9
REMARK    3  A    between atoms: C_9  and  C_10
REMARK    4  A    between atoms: C_21  and  N_27
REMARK    5  A    between atoms: C_28  and  C_30
REMARK                            x       y       z     vdW  Elec       q    Type
REMARK                         _______ _______ _______ _____ _____    ______ ____
ROOT
ATOM     10  C   UNL     1      -2.137  -0.697  24.694  0.00  0.00    +0.231 C 
ATOM     11  O   UNL     1      -2.604  -0.020  24.764  0.00  0.00    -0.274 OA
ATOM     12  N   UNL     1      -1.330  -0.627  24.536  0.00  0.00    -0.271 N 
ATOM     13  C   UNL     1      -0.797  -1.252  24.452  0.00  0.00    +0.096 C 
ATOM     14  C   UNL     1      -0.053  -0.931  24.298  0.00  0.00    +0.045 C 
ATOM     15  C   UNL     1      -0.126  -0.110  24.286  0.00  0.00    +0.124 C 
ATOM     16  N   UNL     1       0.507   0.401  24.148  0.00  0.00    -0.204 NA
ATOM     17  C   UNL     1       0.507   1.225  24.123  0.00  0.00    +0.260 C 
ATOM     18  O   UNL     1       1.237   1.579  23.970  0.00  0.00    -0.272 OA
ATOM     19  C   UNL     1      -0.126   1.743  24.230  0.00  0.00    +0.155 C 
ATOM     20  C   UNL     1      -0.054   2.564  24.190  0.00  0.00    +0.053 C 
ATOM     21  C   UNL     1      -0.798   2.892  24.325  0.00  0.00    +0.117 C 
ATOM     22  C   UNL     1      -1.331   2.274  24.447  0.00  0.00    +0.115 C 
ATOM     23  N   UNL     1      -0.916   1.563  24.388  0.00  0.00    -0.270 N 
ATOM     24  C   UNL     1      -1.267   0.823  24.479  0.00  0.00    +0.246 C 
ATOM     25  O   UNL     1      -2.077   0.827  24.636  0.00  0.00    -0.273 OA
ATOM     26  C   UNL     1      -0.915   0.078  24.434  0.00  0.00    +0.172 C 
ENDROOT
BRANCH  21  27
ATOM     27  N   UNL     1      -0.979   3.697  24.335  0.00  0.00    -0.205 NA
ATOM     28  C   UNL     1      -1.146   4.072  25.050  0.00  0.00    +0.241 C 
ATOM     29  O   UNL     1      -1.132   3.643  25.754  0.00  0.00    -0.273 OA
BRANCH  28  30
ATOM     30  C   UNL     1      -1.327   4.878  25.061  0.00  0.00    +0.078 C 
ATOM     31  C   UNL     1      -1.949   5.331  25.357  0.00  0.00    +0.009 C 
ATOM     32  C   UNL     1      -1.583   6.015  25.076  0.00  0.00    +0.001 C 
ATOM     33  C   UNL     1      -0.961   5.562  24.780  0.00  0.00    +0.009 C 
ENDBRANCH  28  30
ENDBRANCH  21  27
BRANCH  10   9
ATOM      9  C   UNL     1      -2.478  -1.443  24.783  0.00  0.00    +0.115 C 
BRANCH   9   8
ATOM      3  C   UNL     1      -3.499  -2.377  24.427  0.00  0.00    +0.135 A 
ATOM      4  C   UNL     1      -4.237  -2.536  24.093  0.00  0.00    +0.037 A 
ATOM      5  C   UNL     1      -4.691  -1.921  23.782  0.00  0.00    +0.003 A 
ATOM      6  C   UNL     1      -4.407  -1.146  23.805  0.00  0.00    -0.000 A 
ATOM      7  C   UNL     1      -3.670  -0.988  24.139  0.00  0.00    -0.001 A 
ATOM      8  C   UNL     1      -3.216  -1.603  24.449  0.00  0.00    +0.021 A 
BRANCH   3   2
ATOM      1  C   UNL     1      -3.375  -3.743  24.828  0.00  0.00    +0.252 C 
ATOM      2  O   UNL     1      -3.045  -2.991  24.737  0.00  0.00    -0.472 OA
ENDBRANCH   3   2
ENDBRANCH   9   8
ENDBRANCH  10   9
TORSDOF 5
ENDMDL
MODEL 6
REMARK VINA RESULT:      -9.1      3.258      3.924
REMARK  Name = 
REMARK  5 active torsions:
REMARK  status: ('A' for Active; 'I' for Inactive)
REMARK    1  A    between atoms: O_2  and  C_3
REMARK    2  A    between atoms: C_8  and  C_9
REMARK    3  A    between atoms: C_9  and  C_10
REMARK    4  A    between atoms: C_21  and  N_27
REMARK    5  A    between atoms: C_28  and  C_30
REMARK                            x       y       z     vdW  Elec       q    Type
REMARK                         _______ _______ _______ _____ _____    ______ ____
ROOT
ATOM     10  C   UNL     1      -2.592  -0.143  24.523  0.00  0.00    +0.231 C 
ATOM     11  O   UNL     1      -1.912  -0.593  24.403  0.00  0.00    -0.274 OA
ATOM     12  N   UNL     1      -2.549   0.681  24.514  0.00  0.00    -0.271 N 
ATOM     13  C   UNL     1      -3.181   1.201  24.625  0.00  0.00    +0.096 C 
ATOM     14  C   UNL     1      -2.889   1.971  24.572  0.00  0.00    +0.045 C 
ATOM     15  C   UNL     1      -2.079   1.927  24.428  0.00  0.00    +0.124 C 
ATOM     16  N   UNL     1      -1.596   2.590  24.340  0.00  0.00    -0.204 NA
ATOM     17  C   UNL     1      -0.784   2.621  24.196  0.00  0.00    +0.260 C 
ATOM     18  O   UNL     1      -0.459   3.378  24.137  0.00  0.00    -0.272 OA
ATOM     19  C   UNL     1      -0.255   1.995  24.103  0.00  0.00    +0.155 C 
ATOM     20  C   UNL     1       0.551   2.099  23.960  0.00  0.00    +0.053 C 
ATOM     21  C   UNL     1       0.898   1.354  23.900  0.00  0.00    +0.117 C 
ATOM     22  C   UNL     1       0.307   0.788  24.006  0.00  0.00    +0.115 C 
ATOM     23  N   UNL     1      -0.406   1.185  24.132  0.00  0.00    -0.270 N 
ATOM     24  C   UNL     1      -1.124   0.800  24.260  0.00  0.00    +0.246 C 
ATOM     25  O   UNL     1      -1.094  -0.025  24.257  0.00  0.00    -0.273 OA
ATOM     26  C   UNL     1      -1.868   1.130  24.392  0.00  0.00    +0.172 C 
ENDROOT
BRANCH  21  27
ATOM     27  N   UNL     1       1.696   1.200  23.758  0.00  0.00    -0.205 NA
ATOM     28  C   UNL     1       1.918   0.751  23.103  0.00  0.00    +0.241 C 
ATOM     29  O   UNL     1       1.344   0.457  22.590  0.00  0.00    -0.273 OA
BRANCH  28  30
ATOM     30  C   UNL     1       2.717   0.596  22.961  0.00  0.00    +0.078 C 
ATOM     31  C   UNL     1       3.182  -0.084  22.929  0.00  0.00    +0.009 C 
ATOM     32  C   UNL     1       3.845   0.377  22.761  0.00  0.00    +0.001 C 
ATOM     33  C   UNL     1       3.380   1.057  22.793  0.00  0.00    +0.009 C 
ENDBRANCH  28  30
ENDBRANCH  21  27
BRANCH  10   9
ATOM      9  C   UNL     1      -3.316  -0.517  24.653  0.00  0.00    +0.115 C 
BRANCH   9   8
ATOM      3  C   UNL     1      -3.707  -1.875  24.440  0.00  0.00    +0.135 A 
ATOM      4  C   UNL     1      -3.726  -2.661  24.691  0.00  0.00    +0.037 A 
ATOM      5  C   UNL     1      -3.374  -2.874  25.406  0.00  0.00    +0.003 A 
ATOM      6  C   UNL     1      -3.002  -2.302  25.870  0.00  0.00    -0.000 A 
ATOM      7  C   UNL     1      -2.983  -1.517  25.619  0.00  0.00    -0.001 A 
ATOM      8  C   UNL     1      -3.336  -1.303  24.904  0.00  0.00    +0.021 A 
BRANCH   3   2
ATOM      1  C   UNL     1      -4.578  -2.182  23.350  0.00  0.00    +0.252 C 
ATOM      2  O   UNL     1      -4.059  -1.662  23.725  0.00  0.00    -0.472 OA
ENDBRANCH   3   2
ENDBRANCH   9   8
ENDBRANCH  10   9
TORSDOF 5
ENDMDL
MODEL 7
REMARK VINA RESULT:      -8.4      2.089      3.685
REMARK  Name = 
REMARK  5 active torsions:
REMARK  status: ('A' for Active; 'I' for Inactive)
REMARK    1  A    between atoms: O_2  and  C_3
REMARK    2  A    between atoms: C_8  and  C_9
REMARK    3  A    between atoms: C_9  and  C_10
REMARK    4  A    between atoms: C_21  and  N_27
REMARK    5  A    between atoms: C_28  and  C_30
REMARK                            x       y       z     vdW  Elec       q    Type
REMARK                         _______ _______ _______ _____ _____    ______ ____
ROOT
ATOM     10  C   UNL     1      -1.023   0.178  24.720  0.00  0.00    +0.231 C 
ATOM     11  O   UNL     1      -1.810   0.181  24.965  0.00  0.00    -0.274 OA
ATOM     12  N   UNL     1      -0.622   0.890  24.608  0.00  0.00    -0.271 N 
ATOM     13  C   UNL     1       0.163   0.972  24.365  0.00  0.00    +0.096 C 
ATOM     14  C   UNL     1       0.334   1.778  24.327  0.00  0.00    +0.045 C 
ATOM     15  C   UNL     1      -0.344   2.194  24.545  0.00  0.00    +0.124 C 
ATOM     16  N   UNL     1      -0.383   3.018  24.573  0.00  0.00    -0.204 NA
ATOM     17  C   UNL     1      -1.022   3.496  24.781  0.00  0.00    +0.260 C 
ATOM     18  O   UNL     1      -0.885   4.309  24.753  0.00  0.00    -0.272 OA
ATOM     19  C   UNL     1      -1.780   3.268  25.013  0.00  0.00    +0.155 C 
ATOM     20  C   UNL     1      -2.376   3.805  25.208  0.00  0.00    +0.053 C 
ATOM     21  C   UNL     1      -3.050   3.375  25.410  0.00  0.00    +0.117 C 
ATOM     22  C   UNL     1      -2.871   2.573  25.340  0.00  0.00    +0.115 C 
ATOM     23  N   UNL     1      -2.086   2.506  25.094  0.00  0.00    -0.270 N 
ATOM     24  C   UNL     1      -1.710   1.784  24.964  0.00  0.00    +0.246 C 
ATOM     25  O   UNL     1      -2.170   1.112  25.095  0.00  0.00    -0.273 OA
ATOM     26  C   UNL     1      -0.935   1.645  24.719  0.00  0.00    +0.172 C 
ENDROOT
BRANCH  21  27
ATOM     27  N   UNL     1      -3.776   3.691  25.642  0.00  0.00    -0.205 NA
ATOM     28  C   UNL     1      -4.433   3.618  25.149  0.00  0.00    +0.241 C 
ATOM     29  O   UNL     1      -4.365   3.229  24.425  0.00  0.00    -0.273 OA
BRANCH  28  30
ATOM     30  C   UNL     1      -5.160   3.934  25.381  0.00  0.00    +0.078 C 
ATOM     31  C   UNL     1      -5.850   3.627  25.713  0.00  0.00    +0.009 C 
ATOM     32  C   UNL     1      -6.186   4.380  25.709  0.00  0.00    +0.001 C 
ATOM     33  C   UNL     1      -5.496   4.687  25.378  0.00  0.00    +0.009 C 
ENDBRANCH  28  30
ENDBRANCH  21  27
BRANCH  10   9
ATOM      9  C   UNL     1      -0.636  -0.539  24.586  0.00  0.00    +0.115 C 
BRANCH   9   8
ATOM      3  C   UNL     1      -0.785  -1.904  24.981  0.00  0.00    +0.135 A 
ATOM      4  C   UNL     1      -1.214  -2.609  24.969  0.00  0.00    +0.037 A 
ATOM      5  C   UNL     1      -1.924  -2.653  24.550  0.00  0.00    +0.003 A 
ATOM      6  C   UNL     1      -2.204  -1.992  24.142  0.00  0.00    -0.000 A 
ATOM      7  C   UNL     1      -1.775  -1.288  24.155  0.00  0.00    -0.001 A 
ATOM      8  C   UNL     1      -1.065  -1.244  24.574  0.00  0.00    +0.021 A 
BRANCH   3   2
ATOM      1  C   UNL     1       0.281  -2.550  25.680  0.00  0.00    +0.252 C 
ATOM      2  O   UNL     1      -0.076  -1.860  25.400  0.00  0.00    -0.472 OA
ENDBRANCH   3   2
ENDBRANCH   9   8
ENDBRANCH  10   9
TORSDOF 5
ENDMDL
MODEL 8
REMARK VINA RESULT:      -8.2      2.801      4.821
REMARK  Name = 
REMARK  5 active torsions:
REMARK  status: ('A' for Active; 'I' for Inactive)
REMARK    1  A    between atoms: O_2  and  C_3
REMARK    2  A    between atoms: C_8  and  C_9
REMARK    3  A    between atoms: C_9  and  C_10
REMARK    4  A    between atoms: C_21  and  N_27
REMARK    5  A    between atoms: C_28  and  C_30
REMARK                            x       y       z     vdW  Elec       q    Type
REMARK                         _______ _______ _______ _____ _____    ______ ____
ROOT
ATOM     10  C   UNL     1      -3.247   3.046  24.867  0.00  0.00    +0.231 C 
ATOM     11  O   UNL     1      -3.080   2.636  24.171  0.00  0.00    -0.274 OA
ATOM     12  N   UNL     1      -2.650   3.181  25.421  0.00  0.00    -0.271 N 
ATOM     13  C   UNL     1      -2.735   3.580  26.138  0.00  0.00    +0.096 C 
ATOM     14  C   UNL     1      -2.001   3.586  26.514  0.00  0.00    +0.045 C 
ATOM     15  C   UNL     1      -1.463   3.191  26.030  0.00  0.00    +0.124 C 
ATOM     16  N   UNL     1      -0.668   3.085  26.225  0.00  0.00    -0.204 NA
ATOM     17  C   UNL     1      -0.079   2.703  25.792  0.00  0.00    +0.260 C 
ATOM     18  O   UNL     1       0.670   2.691  26.141  0.00  0.00    -0.272 OA
ATOM     19  C   UNL     1      -0.138   2.333  25.058  0.00  0.00    +0.155 C 
ATOM     20  C   UNL     1       0.498   1.968  24.680  0.00  0.00    +0.053 C 
ATOM     21  C   UNL     1       0.228   1.662  23.964  0.00  0.00    +0.117 C 
ATOM     22  C   UNL     1      -0.575   1.838  23.898  0.00  0.00    +0.115 C 
ATOM     23  N   UNL     1      -0.802   2.253  24.575  0.00  0.00    -0.270 N 
ATOM     24  C   UNL     1      -1.570   2.523  24.706  0.00  0.00    +0.246 C 
ATOM     25  O   UNL     1      -2.116   2.353  24.112  0.00  0.00    -0.273 OA
ATOM     26  C   UNL     1      -1.864   2.940  25.354  0.00  0.00    +0.172 C 
ENDROOT
BRANCH  21  27
ATOM     27  N   UNL     1       0.681   1.253  23.409  0.00  0.00    -0.205 NA
ATOM     28  C   UNL     1       0.663   0.428  23.391  0.00  0.00    +0.241 C 
ATOM     29  O   UNL     1       0.192   0.014  23.926  0.00  0.00    -0.273 OA
BRANCH  28  30
ATOM     30  C   UNL     1       1.116   0.018  22.836  0.00  0.00    +0.078 C 
ATOM     31  C   UNL     1       1.921  -0.039  22.669  0.00  0.00    +0.009 C 
ATOM     32  C   UNL     1       1.757  -0.562  22.052  0.00  0.00    +0.001 C 
ATOM     33  C   UNL     1       0.951  -0.505  22.219  0.00  0.00    +0.009 C 
ENDBRANCH  28  30
ENDBRANCH  21  27
BRANCH  10   9
ATOM      9  C   UNL     1      -4.012   3.321  25.010  0.00  0.00    +0.115 C 
BRANCH   9   8
ATOM      3  C   UNL     1      -5.385   3.036  25.286  0.00  0.00    +0.135 A 
ATOM      4  C   UNL     1      -6.020   2.509  25.282  0.00  0.00    +0.037 A 
ATOM      5  C   UNL     1      -5.918   1.741  24.998  0.00  0.00    +0.003 A 
ATOM      6  C   UNL     1      -5.180   1.500  24.717  0.00  0.00    -0.000 A 
ATOM      7  C   UNL     1      -4.545   2.026  24.721  0.00  0.00    -0.001 A 
ATOM      8  C   UNL     1      -4.648   2.794  25.006  0.00  0.00    +0.021 A 
BRANCH   3   2
ATOM      1  C   UNL     1      -6.247   4.115  25.652  0.00  0.00    +0.252 C 
ATOM      2  O   UNL     1      -5.487   3.803  25.571  0.00  0.00    -0.472 OA
ENDBRANCH   3   2
ENDBRANCH   9   8
ENDBRANCH  10   9
TORSDOF 5
ENDMDL
