MODEL 1
REMARK VINA RESULT:     -11.6      0.000      0.000
REMARK  Name = 
REMARK  5 active torsions:
REMARK  status: ('A' for Active; 'I' for Inactive)
REMARK    1  A    between atoms: N_2  and  C_4
REMARK    2  A    between atoms: C_7  and  C_10
REMARK    3  A    between atoms: C_13  and  C_15
REMARK    4  A    between atoms: N_18  and  S_20
REMARK    5  A    between atoms: S_20  and  C_23
REMARK                            x       y       z     vdW  Elec       q    Type
REMARK                         _______ _______ _______ _____ _____    ______ ____
ROOT
ATOM     10  C   UNL     1      -4.355   0.233  24.936  0.00  0.00    +0.250 A 
ATOM     11  N   UNL     1      -5.131   0.477  25.076  0.00  0.00    -0.107 NA
ATOM     12  N   UNL     1      -5.126   1.296  25.178  0.00  0.00    -0.111 NA
ATOM     13  C   UNL     1      -4.347   1.558  25.101  0.00  0.00    +0.227 A 
ATOM     14  O   UNL     1      -3.871   0.900  24.952  0.00  0.00    -0.419 OA
ENDROOT
BRANCH  10   7
ATOM      4  C   UNL     1      -3.613  -2.094  24.541  0.00  0.00    +0.048 A 
ATOM      5  C   UNL     1      -3.488  -1.741  25.276  0.00  0.00    +0.015 A 
ATOM      6  C   UNL     1      -3.736  -0.965  25.408  0.00  0.00    +0.006 A 
ATOM      7  C   UNL     1      -4.108  -0.542  24.805  0.00  0.00    +0.055 A 
ATOM      8  C   UNL     1      -4.232  -0.896  24.070  0.00  0.00    +0.006 A 
ATOM      9  C   UNL     1      -3.985  -1.672  23.938  0.00  0.00    +0.015 A 
BRANCH   4   2
ATOM      1  C   UNL     1      -3.922  -3.465  24.283  0.00  0.00    +0.112 C 
ATOM      2  N   UNL     1      -3.366  -2.870  24.409  0.00  0.00    -0.304 N 
ATOM      3  C   UNL     1      -2.560  -3.051  24.402  0.00  0.00    +0.112 C 
ENDBRANCH   4   2
ENDBRANCH  10   7
BRANCH  13  15
ATOM     15  C   UNL     1      -4.090   2.339  25.162  0.00  0.00    +0.097 C 
ATOM     16  C   UNL     1      -4.561   2.992  25.343  0.00  0.00    +0.030 C 
ATOM     17  C   UNL     1      -4.079   3.661  25.347  0.00  0.00    +0.096 C 
ATOM     18  N   UNL     1      -3.309   3.422  25.168  0.00  0.00    -0.155 NA
ATOM     19  C   UNL     1      -3.316   2.604  25.054  0.00  0.00    +0.105 C 
BRANCH  18  20
ATOM     20  S   UNL     1      -2.648   3.913  25.112  0.00  0.00    +0.063 S 
ATOM     21  O   UNL     1      -2.591   3.929  25.936  0.00  0.00    -0.153 OA
ATOM     22  O   UNL     1      -2.706   3.898  24.289  0.00  0.00    -0.153 OA
BRANCH  20  23
ATOM     23  C   UNL     1      -1.989   4.404  25.057  0.00  0.00    +0.122 A 
ATOM     24  C   UNL     1      -2.076   5.223  25.115  0.00  0.00    +0.020 A 
ATOM     25  C   UNL     1      -1.417   5.714  25.059  0.00  0.00    +0.001 A 
ATOM     26  C   UNL     1      -0.668   5.387  24.945  0.00  0.00    +0.000 A 
ATOM     27  C   UNL     1      -0.579   4.569  24.887  0.00  0.00    +0.001 A 
ATOM     28  C   UNL     1      -1.240   4.077  24.943  0.00  0.00    +0.020 A 
ENDBRANCH  20  23
ENDBRANCH  18  20
ENDBRANCH  13  15
TORSDOF 5
ENDMDL
MODEL 2
REMARK VINA RESULT:     -10.1      2.188      6.275
REMARK  Name = 
REMARK  5 active torsions:
REMARK  status: ('A' for Active; 'I' for Inactive)
REMARK    1  A    between atoms: N_2  and  C_4
REMARK    2  A    between atoms: C_7  and  C_10
REMARK    3  A    between atoms: C_13  and  C_15
REMARK    4  A    between atoms: N_18  and  S_20
REMARK    5  A    between atoms: S_20  and  C_23
REMARK                            x       y       z     vdW  Elec       q    Type
REMARK                         _______ _______ _______ _____ _____    ______ ____
ROOT
ATOM     10  C   UNL     1      -0.834   2.204  25.365  0.00  0.00    +0.250 A 
ATOM     11  N   UNL     1      -0.087   1.864  25.448  0.00  0.00    -0.107 NA
ATOM     12  N   UNL     1      -0.183   1.046  25.502  0.00  0.00    -0.111 NA
ATOM     13  C   UNL     1      -0.990   0.881  25.454  0.00  0.00    +0.227 A 
ATOM     14  O   UNL     1      -1.392   1.597  25.369  0.00  0.00    -0.419 OA
ENDROOT
BRANCH  10   7
ATOM      4  C   UNL     1      -1.316   4.621  25.144  0.00  0.00    +0.048 A 
ATOM      5  C   UNL     1      -1.764   4.157  25.659  0.00  0.00    +0.015 A 
ATOM      6  C   UNL     1      -1.603   3.351  25.733  0.00  0.00    +0.006 A 
ATOM      7  C   UNL     1      -0.995   3.009  25.291  0.00  0.00    +0.055 A 
ATOM      8  C   UNL     1      -0.548   3.474  24.777  0.00  0.00    +0.006 A 
ATOM      9  C   UNL     1      -0.708   4.280  24.704  0.00  0.00    +0.015 A 
BRANCH   4   2
ATOM      1  C   UNL     1      -0.897   5.939  24.784  0.00  0.00    +0.112 C 
ATOM      2  N   UNL     1      -1.476   5.427  25.071  0.00  0.00    -0.304 N 
ATOM      3  C   UNL     1      -2.218   5.721  25.284  0.00  0.00    +0.112 C 
ENDBRANCH   4   2
ENDBRANCH  10   7
BRANCH  13  15
ATOM     15  C   UNL     1      -1.335   0.132  25.484  0.00  0.00    +0.097 C 
ATOM     16  C   UNL     1      -1.136  -0.471  26.011  0.00  0.00    +0.030 C 
ATOM     17  C   UNL     1      -1.617  -1.121  25.847  0.00  0.00    +0.096 C 
ATOM     18  N   UNL     1      -2.113  -0.920  25.218  0.00  0.00    -0.155 NA
ATOM     19  C   UNL     1      -1.938  -0.144  24.995  0.00  0.00    +0.105 C 
BRANCH  18  20
ATOM     20  S   UNL     1      -2.683  -1.407  24.874  0.00  0.00    +0.063 S 
ATOM     21  O   UNL     1      -2.146  -1.618  24.284  0.00  0.00    -0.153 OA
ATOM     22  O   UNL     1      -3.220  -1.196  25.464  0.00  0.00    -0.153 OA
BRANCH  20  23
ATOM     23  C   UNL     1      -3.253  -1.894  24.531  0.00  0.00    +0.122 A 
ATOM     24  C   UNL     1      -3.871  -1.563  24.096  0.00  0.00    +0.020 A 
ATOM     25  C   UNL     1      -4.441  -2.050  23.753  0.00  0.00    +0.001 A 
ATOM     26  C   UNL     1      -4.393  -2.868  23.843  0.00  0.00    +0.000 A 
ATOM     27  C   UNL     1      -3.775  -3.200  24.277  0.00  0.00    +0.001 A 
ATOM     28  C   UNL     1      -3.204  -2.712  24.621  0.00  0.00    +0.020 A 
ENDBRANCH  20  23
ENDBRANCH  18  20
ENDBRANCH  13  15
TORSDOF 5
ENDMDL
MODEL 3
REMARK VINA RESULT:     -10.0      1.890      2.414
REMARK  Name = 
REMARK  5 active torsions:
REMARK  status: ('A' for Active; 'I' for Inactive)
REMARK    1  A    between atoms: N_2  and  C_4
REMARK    2  A    between atoms: C_7  and  C_10
REMARK    3  A    between atoms: C_13  and  C_15
REMARK    4  A    between atoms: N_18  and  S_20
REMARK    5  A    between atoms: S_20  and  C_23
REMARK                            x       y       z     vdW  Elec       q    Type
REMARK                         _______ _______ _______ _____ _____    ______ ____
ROOT
ATOM     10  C   UNL     1      -1.823  -0.647  25.290  0.00  0.00    +0.250 A 
ATOM     11  N   UNL     1      -1.339  -0.730  25.954  0.00  0.00    -0.107 NA
ATOM     12  N   UNL     1      -0.902  -0.035  26.039  0.00  0.00    -0.111 NA
ATOM     13  C   UNL     1      -1.117   0.477  25.429  0.00  0.00    +0.227 A 
ATOM     14  O   UNL     1      -1.686   0.098  24.966  0.00  0.00    -0.419 OA
ENDROOT
BRANCH  10   7
ATOM      4  C   UNL     1      -3.407  -2.340  24.426  0.00  0.00    +0.048 A 
ATOM      5  C   UNL     1      -3.692  -1.630  24.738  0.00  0.00    +0.015 A 
ATOM      6  C   UNL     1      -3.163  -1.066  25.026  0.00  0.00    +0.006 A 
ATOM      7  C   UNL     1      -2.351  -1.211  25.002  0.00  0.00    +0.055 A 
ATOM      8  C   UNL     1      -2.068  -1.920  24.691  0.00  0.00    +0.006 A 
ATOM      9  C   UNL     1      -2.596  -2.485  24.403  0.00  0.00    +0.015 A 
BRANCH   4   2
ATOM      1  C   UNL     1      -4.552  -2.676  23.639  0.00  0.00    +0.112 C 
ATOM      2  N   UNL     1      -3.936  -2.904  24.138  0.00  0.00    -0.304 N 
ATOM      3  C   UNL     1      -3.848  -3.697  24.349  0.00  0.00    +0.112 C 
ENDBRANCH   4   2
ENDBRANCH  10   7
BRANCH  13  15
ATOM     15  C   UNL     1      -0.815   1.234  25.303  0.00  0.00    +0.097 C 
ATOM     16  C   UNL     1      -0.028   1.423  25.143  0.00  0.00    +0.030 C 
ATOM     17  C   UNL     1       0.026   2.241  25.056  0.00  0.00    +0.096 C 
ATOM     18  N   UNL     1      -0.728   2.559  25.162  0.00  0.00    -0.155 NA
ATOM     19  C   UNL     1      -1.248   1.937  25.315  0.00  0.00    +0.105 C 
BRANCH  18  20
ATOM     20  S   UNL     1      -0.927   3.359  25.123  0.00  0.00    +0.063 S 
ATOM     21  O   UNL     1      -0.672   3.461  25.901  0.00  0.00    -0.153 OA
ATOM     22  O   UNL     1      -1.183   3.257  24.345  0.00  0.00    -0.153 OA
BRANCH  20  23
ATOM     23  C   UNL     1      -1.126   4.158  25.083  0.00  0.00    +0.122 A 
ATOM     24  C   UNL     1      -0.589   4.703  24.775  0.00  0.00    +0.020 A 
ATOM     25  C   UNL     1      -0.788   5.502  24.736  0.00  0.00    +0.001 A 
ATOM     26  C   UNL     1      -1.525   5.757  25.004  0.00  0.00    +0.000 A 
ATOM     27  C   UNL     1      -2.063   5.213  25.312  0.00  0.00    +0.001 A 
ATOM     28  C   UNL     1      -1.864   4.413  25.351  0.00  0.00    +0.020 A 
ENDBRANCH  20  23
ENDBRANCH  18  20
ENDBRANCH  13  15
TORSDOF 5
ENDMDL
MODEL 4
REMARK VINA RESULT:      -9.9      1.443      5.790
REMARK  Name = 
REMARK  5 active torsions:
REMARK  status: ('A' for Active; 'I' for Inactive)
REMARK    1  A    between atoms: N_2  and  C_4
REMARK    2  A    between atoms: C_7  and  C_10
REMARK    3  A    between atoms: C_13  and  C_15
REMARK    4  A    between atoms: N_18  and  S_20
REMARK    5  A    between atoms: S_20  and  C_23
REMARK                            x       y       z     vdW  Elec       q    Type
REMARK                         _______ _______ _______ _____ _____    ______ ____
ROOT
ATOM     10  C   UNL     1      -3.601   3.117  25.130  0.00  0.00    +0.250 A 
ATOM     11  N   UNL     1      -4.384   3.305  25.312  0.00  0.00    -0.107 NA
ATOM     12  N   UNL     1      -4.827   2.609  25.283  0.00  0.00    -0.111 NA
ATOM     13  C   UNL     1      -4.318   1.991  25.082  0.00  0.00    +0.227 A 
ATOM     14  O   UNL     1      -3.560   2.305  24.988  0.00  0.00    -0.419 OA
ENDROOT
BRANCH  10   7
ATOM      4  C   UNL     1      -1.710   4.708  25.028  0.00  0.00    +0.048 A 
ATOM      5  C   UNL     1      -2.043   4.511  25.757  0.00  0.00    +0.015 A 
ATOM      6  C   UNL     1      -2.674   3.980  25.791  0.00  0.00    +0.006 A 
ATOM      7  C   UNL     1      -2.971   3.647  25.096  0.00  0.00    +0.055 A 
ATOM      8  C   UNL     1      -2.637   3.845  24.368  0.00  0.00    +0.006 A 
ATOM      9  C   UNL     1      -2.007   4.376  24.335  0.00  0.00    +0.015 A 
BRANCH   4   2
ATOM      1  C   UNL     1      -1.221   6.051  25.020  0.00  0.00    +0.112 C 
ATOM      2  N   UNL     1      -1.079   5.239  24.994  0.00  0.00    -0.304 N 
ATOM      3  C   UNL     1      -0.305   4.958  24.934  0.00  0.00    +0.112 C 
ENDBRANCH   4   2
ENDBRANCH  10   7
BRANCH  13  15
ATOM     15  C   UNL     1      -4.528   1.199  24.992  0.00  0.00    +0.097 C 
ATOM     16  C   UNL     1      -5.297   0.898  24.999  0.00  0.00    +0.030 C 
ATOM     17  C   UNL     1      -5.252   0.081  24.890  0.00  0.00    +0.096 C 
ATOM     18  N   UNL     1      -4.455  -0.122  24.815  0.00  0.00    -0.155 NA
ATOM     19  C   UNL     1      -4.008   0.569  24.878  0.00  0.00    +0.105 C 
BRANCH  18  20
ATOM     20  S   UNL     1      -4.158  -0.883  24.698  0.00  0.00    +0.063 S 
ATOM     21  O   UNL     1      -4.030  -0.959  25.510  0.00  0.00    -0.153 OA
ATOM     22  O   UNL     1      -4.286  -0.808  23.886  0.00  0.00    -0.153 OA
BRANCH  20  23
ATOM     23  C   UNL     1      -3.861  -1.644  24.580  0.00  0.00    +0.122 A 
ATOM     24  C   UNL     1      -4.181  -2.126  23.992  0.00  0.00    +0.020 A 
ATOM     25  C   UNL     1      -3.884  -2.886  23.874  0.00  0.00    +0.001 A 
ATOM     26  C   UNL     1      -3.267  -3.164  24.345  0.00  0.00    +0.000 A 
ATOM     27  C   UNL     1      -2.946  -2.683  24.934  0.00  0.00    +0.001 A 
ATOM     28  C   UNL     1      -3.244  -1.922  25.051  0.00  0.00    +0.020 A 
ENDBRANCH  20  23
ENDBRANCH  18  20
ENDBRANCH  13  15
TORSDOF 5
ENDMDL
MODEL 5
REMARK VINA RESULT:      -8.8      3.452      4.682
REMARK  Name = 
REMARK  5 active torsions:
REMARK  status: ('A' for Active; 'I' for Inactive)
REMARK    1  A    between atoms: N_2  and  C_4
REMARK    2  A    between atoms: C_7  and  C_10
REMARK    3  A    between atoms: C_13  and  C_15
REMARK    4  A    between atoms: N_18  and  S_20
REMARK    5  A    between atoms: S_20  and  C_23
REMARK                            x       y       z     vdW  Elec       q    Type
REMARK                         _______ _______ _______ _____ _____    ______ ____
ROOT
ATOM     10  C   UNL     1      -0.381   0.076  24.049  0.00  0.00    +0.250 A 
ATOM     11  N   UNL     1      -0.528  -0.362  24.732  0.00  0.00    -0.107 NA
ATOM     12  N   UNL     1      -1.328  -0.282  24.919  0.00  0.00    -0.111 NA
ATOM     13  C   UNL     1      -1.675   0.206  24.351  0.00  0.00    +0.227 A 
ATOM     14  O   UNL     1      -1.089   0.427  23.813  0.00  0.00    -0.419 OA
ENDROOT
BRANCH  10   7
ATOM      4  C   UNL     1       1.802   0.297  22.906  0.00  0.00    +0.048 A 
ATOM      5  C   UNL     1       1.321  -0.356  22.752  0.00  0.00    +0.015 A 
ATOM      6  C   UNL     1       0.593  -0.429  23.133  0.00  0.00    +0.006 A 
ATOM      7  C   UNL     1       0.346   0.149  23.668  0.00  0.00    +0.055 A 
ATOM      8  C   UNL     1       0.828   0.801  23.821  0.00  0.00    +0.006 A 
ATOM      9  C   UNL     1       1.556   0.875  23.440  0.00  0.00    +0.015 A 
BRANCH   4   2
ATOM      1  C   UNL     1       3.129   0.827  22.862  0.00  0.00    +0.112 C 
ATOM      2  N   UNL     1       2.530   0.370  22.525  0.00  0.00    -0.304 N 
ATOM      3  C   UNL     1       2.660  -0.013  21.805  0.00  0.00    +0.112 C 
ENDBRANCH   4   2
ENDBRANCH  10   7
BRANCH  13  15
ATOM     15  C   UNL     1      -2.467   0.433  24.326  0.00  0.00    +0.097 C 
ATOM     16  C   UNL     1      -3.067   0.053  23.906  0.00  0.00    +0.030 C 
ATOM     17  C   UNL     1      -3.770   0.465  24.035  0.00  0.00    +0.096 C 
ATOM     18  N   UNL     1      -3.605   1.101  24.535  0.00  0.00    -0.155 NA
ATOM     19  C   UNL     1      -2.799   1.081  24.714  0.00  0.00    +0.105 C 
BRANCH  18  20
ATOM     20  S   UNL     1      -4.149   1.658  24.808  0.00  0.00    +0.063 S 
ATOM     21  O   UNL     1      -3.909   2.182  24.217  0.00  0.00    -0.153 OA
ATOM     22  O   UNL     1      -4.389   1.134  25.399  0.00  0.00    -0.153 OA
BRANCH  20  23
ATOM     23  C   UNL     1      -4.692   2.215  25.080  0.00  0.00    +0.122 A 
ATOM     24  C   UNL     1      -5.462   1.983  25.268  0.00  0.00    +0.020 A 
ATOM     25  C   UNL     1      -6.006   2.540  25.541  0.00  0.00    +0.001 A 
ATOM     26  C   UNL     1      -5.780   3.329  25.626  0.00  0.00    +0.000 A 
ATOM     27  C   UNL     1      -5.011   3.561  25.439  0.00  0.00    +0.001 A 
ATOM     28  C   UNL     1      -4.467   3.003  25.166  0.00  0.00    +0.020 A 
ENDBRANCH  20  23
ENDBRANCH  18  20
ENDBRANCH  13  15
TORSDOF 5
ENDMDL
MODEL 6
REMARK VINA RESULT:      -8.3      3.168      4.596
REMARK  Name = 
REMARK  5 active torsions:
REMARK  status: ('A' for Active; 'I' for Inactive)
REMARK    1  A    between atoms: N_2  and  C_4
REMARK    2  A    between atoms: C_7  and  C_10
REMARK    3  A    between atoms: C_13  and  C_15
REMARK    4  A    between atoms: N_18  and  S_20
REMARK    5  A    between atoms: S_20  and  C_23
REMARK                            x       y       z     vdW  Elec       q    Type
REMARK                         _______ _______ _______ _____ _____    ______ ____
ROOT
ATOM     10  C   UNL     1      -0.108   1.638  24.505  0.00  0.00    +0.250 A 
ATOM     11  N   UNL     1       0.045   1.861  25.285  0.00  0.00    -0.107 NA
ATOM     12  N   UNL     1      -0.619   2.259  25.571  0.00  0.00    -0.111 NA
ATOM     13  C   UNL     1      -1.182   2.282  24.968  0.00  0.00    +0.227 A 
ATOM     14  O   UNL     1      -0.866   1.898  24.309  0.00  0.00    -0.419 OA
ENDROOT
BRANCH  10   7
ATOM      4  C   UNL     1       1.436   0.405  23.015  0.00  0.00    +0.048 A 
ATOM      5  C   UNL     1       0.702   0.080  23.209  0.00  0.00    +0.015 A 
ATOM      6  C   UNL     1       0.188   0.491  23.705  0.00  0.00    +0.006 A 
ATOM      7  C   UNL     1       0.406   1.227  24.009  0.00  0.00    +0.055 A 
ATOM      8  C   UNL     1       1.140   1.551  23.815  0.00  0.00    +0.006 A 
ATOM      9  C   UNL     1       1.654   1.140  23.318  0.00  0.00    +0.015 A 
BRANCH   4   2
ATOM      1  C   UNL     1       2.762  -0.000  22.669  0.00  0.00    +0.112 C 
ATOM      2  N   UNL     1       1.951  -0.006  22.519  0.00  0.00    -0.304 N 
ATOM      3  C   UNL     1       1.654  -0.423  21.871  0.00  0.00    +0.112 C 
ENDBRANCH   4   2
ENDBRANCH  10   7
BRANCH  13  15
ATOM     15  C   UNL     1      -1.929   2.628  25.015  0.00  0.00    +0.097 C 
ATOM     16  C   UNL     1      -2.091   3.437  24.996  0.00  0.00    +0.030 C 
ATOM     17  C   UNL     1      -2.907   3.536  25.059  0.00  0.00    +0.096 C 
ATOM     18  N   UNL     1      -3.251   2.787  25.117  0.00  0.00    -0.155 NA
ATOM     19  C   UNL     1      -2.646   2.226  25.090  0.00  0.00    +0.105 C 
BRANCH  18  20
ATOM     20  S   UNL     1      -4.057   2.628  25.189  0.00  0.00    +0.063 S 
ATOM     21  O   UNL     1      -3.894   1.819  25.220  0.00  0.00    -0.153 OA
ATOM     22  O   UNL     1      -4.220   3.436  25.158  0.00  0.00    -0.153 OA
BRANCH  20  23
ATOM     23  C   UNL     1      -4.863   2.469  25.261  0.00  0.00    +0.122 A 
ATOM     24  C   UNL     1      -5.281   2.744  25.917  0.00  0.00    +0.020 A 
ATOM     25  C   UNL     1      -6.087   2.585  25.989  0.00  0.00    +0.001 A 
ATOM     26  C   UNL     1      -6.475   2.150  25.406  0.00  0.00    +0.000 A 
ATOM     27  C   UNL     1      -6.058   1.874  24.750  0.00  0.00    +0.001 A 
ATOM     28  C   UNL     1      -5.251   2.034  24.678  0.00  0.00    +0.020 A 
ENDBRANCH  20  23
ENDBRANCH  18  20
ENDBRANCH  13  15
TORSDOF 5
ENDMDL
MODEL 7
REMARK VINA RESULT:      -8.1      5.116      6.885
REMARK  Name = 
REMARK  5 active torsions:
REMARK  status: ('A' for Active; 'I' for Inactive)
REMARK    1  A    between atoms: N_2  and  C_4
REMARK    2  A    between atoms: C_7  and  C_10
REMARK    3  A    between atoms: C_13  and  C_15
REMARK    4  A    between atoms: N_18  and  S_20
REMARK    5  A    between atoms: S_20  and  C_23
REMARK                            x       y       z     vdW  Elec       q    Type
REMARK                         _______ _______ _______ _____ _____    ______ ____
ROOT
ATOM     10  C   UNL     1       2.134   0.037  22.920  0.00  0.00    +0.250 A 
ATOM     11  N   UNL     1       1.733  -0.093  22.210  0.00  0.00    -0.107 NA
ATOM     12  N   UNL     1       0.923  -0.078  22.368  0.00  0.00    -0.111 NA
ATOM     13  C   UNL     1       0.824   0.060  23.175  0.00  0.00    +0.227 A 
ATOM     14  O   UNL     1       1.572   0.131  23.516  0.00  0.00    -0.419 OA
ENDROOT
BRANCH  10   7
ATOM      4  C   UNL     1       4.590   0.126  23.207  0.00  0.00    +0.048 A 
ATOM      5  C   UNL     1       4.175  -0.556  23.417  0.00  0.00    +0.015 A 
ATOM      6  C   UNL     1       3.356  -0.585  23.321  0.00  0.00    +0.006 A 
ATOM      7  C   UNL     1       2.952   0.067  23.015  0.00  0.00    +0.055 A 
ATOM      8  C   UNL     1       3.368   0.748  22.806  0.00  0.00    +0.006 A 
ATOM      9  C   UNL     1       4.187   0.777  22.902  0.00  0.00    +0.015 A 
BRANCH   4   2
ATOM      1  C   UNL     1       5.904  -0.173  22.731  0.00  0.00    +0.112 C 
ATOM      2  N   UNL     1       5.409   0.156  23.303  0.00  0.00    -0.304 N 
ATOM      3  C   UNL     1       5.733   0.515  23.972  0.00  0.00    +0.112 C 
ENDBRANCH   4   2
ENDBRANCH  10   7
BRANCH  13  15
ATOM     15  C   UNL     1       0.103   0.118  23.572  0.00  0.00    +0.097 C 
ATOM     16  C   UNL     1      -0.278   0.818  23.786  0.00  0.00    +0.030 C 
ATOM     17  C   UNL     1      -0.979   0.619  24.172  0.00  0.00    +0.096 C 
ATOM     18  N   UNL     1      -1.032  -0.205  24.196  0.00  0.00    -0.155 NA
ATOM     19  C   UNL     1      -0.363  -0.514  23.825  0.00  0.00    +0.105 C 
BRANCH  18  20
ATOM     20  S   UNL     1      -1.647  -0.642  24.532  0.00  0.00    +0.063 S 
ATOM     21  O   UNL     1      -1.103  -1.038  25.011  0.00  0.00    -0.153 OA
ATOM     22  O   UNL     1      -2.190  -0.247  24.052  0.00  0.00    -0.153 OA
BRANCH  20  23
ATOM     23  C   UNL     1      -2.260  -1.079  24.867  0.00  0.00    +0.122 A 
ATOM     24  C   UNL     1      -2.468  -1.811  24.549  0.00  0.00    +0.020 A 
ATOM     25  C   UNL     1      -3.082  -2.248  24.884  0.00  0.00    +0.001 A 
ATOM     26  C   UNL     1      -3.489  -1.952  25.538  0.00  0.00    +0.000 A 
ATOM     27  C   UNL     1      -3.282  -1.220  25.856  0.00  0.00    +0.001 A 
ATOM     28  C   UNL     1      -2.668  -0.783  25.520  0.00  0.00    +0.020 A 
ENDBRANCH  20  23
ENDBRANCH  18  20
ENDBRANCH  13  15
TORSDOF 5
ENDMDL
MODEL 8
REMARK VINA RESULT:      -8.0      3.463      4.923
REMARK  Name = 
REMARK  5 active torsions:
REMARK  status: ('A' for Active; 'I' for Inactive)
REMARK    1  A    between atoms: N_2  and  C_4
REMARK    2  A    between atoms: C_7  and  C_10
REMARK    3  A    between atoms: C_13  and  C_15
REMARK    4  A    between atoms: N_18  and  S_20
REMARK    5  A    between atoms: S_20  and  C_23
REMARK                            x       y       z     vdW  Elec       q    Type
REMARK                         _______ _______ _______ _____ _____    ______ ____
ROOT
ATOM     10  C   UNL     1      -3.359   0.926  24.560  0.00  0.00    +0.250 A 
ATOM     11  N   UNL     1      -3.539   0.243  24.133  0.00  0.00    -0.107 NA
ATOM     12  N   UNL     1      -2.834  -0.163  23.993  0.00  0.00    -0.111 NA
ATOM     13  C   UNL     1      -2.219   0.270  24.333  0.00  0.00    +0.227 A 
ATOM     14  O   UNL     1      -2.544   0.943  24.683  0.00  0.00    -0.419 OA
ENDROOT
BRANCH  10   7
ATOM      4  C   UNL     1      -4.982   2.626  25.332  0.00  0.00    +0.048 A 
ATOM      5  C   UNL     1      -5.188   1.827  25.340  0.00  0.00    +0.015 A 
ATOM      6  C   UNL     1      -4.646   1.260  25.082  0.00  0.00    +0.006 A 
ATOM      7  C   UNL     1      -3.900   1.493  24.817  0.00  0.00    +0.055 A 
ATOM      8  C   UNL     1      -3.696   2.292  24.810  0.00  0.00    +0.006 A 
ATOM      9  C   UNL     1      -4.237   2.859  25.067  0.00  0.00    +0.015 A 
BRANCH   4   2
ATOM      1  C   UNL     1      -6.253   2.959  25.894  0.00  0.00    +0.112 C 
ATOM      2  N   UNL     1      -5.523   3.193  25.589  0.00  0.00    -0.304 N 
ATOM      3  C   UNL     1      -5.335   3.996  25.542  0.00  0.00    +0.112 C 
ENDBRANCH   4   2
ENDBRANCH  10   7
BRANCH  13  15
ATOM     15  C   UNL     1      -1.420   0.066  24.325  0.00  0.00    +0.097 C 
ATOM     16  C   UNL     1      -1.033  -0.401  24.885  0.00  0.00    +0.030 C 
ATOM     17  C   UNL     1      -0.241  -0.463  24.662  0.00  0.00    +0.096 C 
ATOM     18  N   UNL     1      -0.139  -0.035  23.963  0.00  0.00    -0.155 NA
ATOM     19  C   UNL     1      -0.867   0.292  23.755  0.00  0.00    +0.105 C 
BRANCH  18  20
ATOM     20  S   UNL     1       0.568   0.052  23.546  0.00  0.00    +0.063 S 
ATOM     21  O   UNL     1       0.637   0.826  23.822  0.00  0.00    -0.153 OA
ATOM     22  O   UNL     1       0.500  -0.723  23.270  0.00  0.00    -0.153 OA
BRANCH  20  23
ATOM     23  C   UNL     1       1.275   0.138  23.130  0.00  0.00    +0.122 A 
ATOM     24  C   UNL     1       1.858   0.652  23.406  0.00  0.00    +0.020 A 
ATOM     25  C   UNL     1       2.564   0.738  22.990  0.00  0.00    +0.001 A 
ATOM     26  C   UNL     1       2.688   0.309  22.296  0.00  0.00    +0.000 A 
ATOM     27  C   UNL     1       2.106  -0.205  22.018  0.00  0.00    +0.001 A 
ATOM     28  C   UNL     1       1.399  -0.291  22.436  0.00  0.00    +0.020 A 
ENDBRANCH  20  23
ENDBRANCH  18  20
ENDBRANCH  13  15
TORSDOF 5
ENDMDL
MODEL 9
REMARK VINA RESULT:      -7.9      4.699      5.852
REMARK  Name = 
REMARK  5 active torsions:
REMARK  status: ('A' for Active; 'I' for Inactive)
REMARK    1  A    between atoms: N_2  and  C_4
REMARK    2  A    between atoms: C_7  and  C_10
REMARK    3  A    between atoms: C_13  and  C_15
REMARK    4  A    between atoms: N_18  and  S_20
REMARK    5  A    between atoms: S_20  and  C_23
REMARK                            x       y       z     vdW  Elec       q    Type
REMARK                         _______ _______ _______ _____ _____    ______ ____
ROOT
ATOM     10  C   UNL     1      -1.354   0.823  24.096  0.00  0.00    +0.250 A 
ATOM     11  N   UNL     1      -1.206   0.153  24.554  0.00  0.00    -0.107 NA
ATOM     12  N   UNL     1      -0.492  -0.176  24.302  0.00  0.00    -0.111 NA
ATOM     13  C   UNL     1      -0.199   0.292  23.689  0.00  0.00    +0.227 A 
ATOM     14  O   UNL     1      -0.731   0.909  23.562  0.00  0.00    -0.419 OA
ENDROOT
BRANCH  10   7
ATOM      4  C   UNL     1      -3.319   2.313  24.292  0.00  0.00    +0.048 A 
ATOM      5  C   UNL     1      -3.205   1.870  23.606  0.00  0.00    +0.015 A 
ATOM      6  C   UNL     1      -2.549   1.373  23.540  0.00  0.00    +0.006 A 
ATOM      7  C   UNL     1      -2.008   1.319  24.162  0.00  0.00    +0.055 A 
ATOM      8  C   UNL     1      -2.123   1.763  24.847  0.00  0.00    +0.006 A 
ATOM      9  C   UNL     1      -2.778   2.260  24.913  0.00  0.00    +0.015 A 
BRANCH   4   2
ATOM      1  C   UNL     1      -3.938   3.582  24.068  0.00  0.00    +0.112 C 
ATOM      2  N   UNL     1      -3.974   2.810  24.358  0.00  0.00    -0.304 N 
ATOM      3  C   UNL     1      -4.667   2.536  24.714  0.00  0.00    +0.112 C 
ENDBRANCH   4   2
ENDBRANCH  10   7
BRANCH  13  15
ATOM     15  C   UNL     1       0.504   0.164  23.275  0.00  0.00    +0.097 C 
ATOM     16  C   UNL     1       0.570  -0.166  22.522  0.00  0.00    +0.030 C 
ATOM     17  C   UNL     1       1.369  -0.189  22.323  0.00  0.00    +0.096 C 
ATOM     18  N   UNL     1       1.799   0.126  22.953  0.00  0.00    -0.155 NA
ATOM     19  C   UNL     1       1.263   0.345  23.542  0.00  0.00    +0.105 C 
BRANCH  18  20
ATOM     20  S   UNL     1       2.619   0.209  22.989  0.00  0.00    +0.063 S 
ATOM     21  O   UNL     1       2.709  -0.555  22.689  0.00  0.00    -0.153 OA
ATOM     22  O   UNL     1       2.529   0.972  23.289  0.00  0.00    -0.153 OA
BRANCH  20  23
ATOM     23  C   UNL     1       3.439   0.291  23.025  0.00  0.00    +0.122 A 
ATOM     24  C   UNL     1       3.803   0.950  22.686  0.00  0.00    +0.020 A 
ATOM     25  C   UNL     1       4.622   1.033  22.722  0.00  0.00    +0.001 A 
ATOM     26  C   UNL     1       5.079   0.457  23.097  0.00  0.00    +0.000 A 
ATOM     27  C   UNL     1       4.716  -0.202  23.436  0.00  0.00    +0.001 A 
ATOM     28  C   UNL     1       3.895  -0.284  23.400  0.00  0.00    +0.020 A 
ENDBRANCH  20  23
ENDBRANCH  18  20
ENDBRANCH  13  15
TORSDOF 5
ENDMDL
