MODEL 1
REMARK VINA RESULT:     -14.0      0.000      0.000
REMARK  Name = 
REMARK  4 active torsions:
REMARK  status: ('A' for Active; 'I' for Inactive)
REMARK    1  A    between atoms: C_2  and  C_4
REMARK    2  A    between atoms: C_4  and  C_5
REMARK    3  A    between atoms: C_5  and  C_6
REMARK    4  A    between atoms: C_15  and  C_22
REMARK                            x       y       z     vdW  Elec       q    Type
REMARK                         _______ _______ _______ _____ _____    ______ ____
ROOT
ATOM      6  C   UNL     1      -2.936   2.123  24.884  0.00  0.00    +0.226 C 
ATOM      7  O   UNL     1      -3.713   1.844  24.901  0.00  0.00    -0.275 OA
ATOM      8  N   UNL     1      -2.308   1.591  24.823  0.00  0.00    -0.279 N 
ATOM      9  C   UNL     1      -1.520   1.319  24.770  0.00  0.00    +0.095 C 
ATOM     10  C   UNL     1      -1.684   0.346  24.716  0.00  0.00    +0.043 C 
ATOM     11  C   UNL     1      -1.649  -0.466  24.663  0.00  0.00    +0.011 C 
ATOM     12  C   UNL     1      -2.143   0.030  24.717  0.00  0.00    +0.058 C 
ATOM     13  C   UNL     1      -1.968   0.968  24.768  0.00  0.00    +0.099 C 
ATOM     14  C   UNL     1      -3.055   0.138  24.764  0.00  0.00    +0.041 A 
ATOM     15  C   UNL     1      -3.752  -0.302  24.767  0.00  0.00    +0.014 A 
ATOM     16  C   UNL     1      -4.481   0.081  24.824  0.00  0.00    +0.006 A 
ATOM     17  C   UNL     1      -4.512   0.903  24.877  0.00  0.00    +0.061 A 
ATOM     18  C   UNL     1      -3.814   1.344  24.874  0.00  0.00    +0.261 A 
ATOM     19  O   UNL     1      -4.098   2.115  24.935  0.00  0.00    -0.267 OA
ATOM     20  N   UNL     1      -3.086   0.961  24.817  0.00  0.00    -0.299 N 
ATOM     21  C   UNL     1      -2.635   0.469  24.766  0.00  0.00    +0.110 C 
ENDROOT
BRANCH  15  22
ATOM     22  C   UNL     1      -3.721  -1.125  24.714  0.00  0.00    +0.029 A 
ATOM     23  C   UNL     1      -3.464  -1.571  25.359  0.00  0.00    +0.002 A 
ATOM     24  C   UNL     1      -3.433  -2.394  25.305  0.00  0.00    +0.000 A 
ATOM     25  C   UNL     1      -3.659  -2.771  24.607  0.00  0.00    +0.002 A 
ATOM     26  C   UNL     1      -3.916  -2.325  23.962  0.00  0.00    +0.030 A 
ATOM     27  C   UNL     1      -3.947  -1.502  24.016  0.00  0.00    +0.140 A 
ATOM     28  F   UNL     1      -4.204  -1.055  23.371  0.00  0.00    -0.204 F 
ENDBRANCH  15  22
BRANCH   6   5
ATOM      5  C   UNL     1      -2.788   2.933  24.929  0.00  0.00    +0.097 C 
BRANCH   5   4
ATOM      4  C   UNL     1      -2.601   3.279  25.654  0.00  0.00    +0.124 C 
BRANCH   4   2
ATOM      1  O   UNL     1      -2.021   4.507  25.209  0.00  0.00    -0.246 OA
ATOM      2  C   UNL     1      -2.530   4.099  25.715  0.00  0.00    +0.365 C 
ATOM      3  O   UNL     1      -2.967   4.510  26.280  0.00  0.00    -0.246 OA
ENDBRANCH   4   2
ENDBRANCH   5   4
ENDBRANCH   6   5
TORSDOF 4
ENDMDL
MODEL 2
REMARK VINA RESULT:     -12.9      1.841      4.497
REMARK  Name = 
REMARK  4 active torsions:
REMARK  status: ('A' for Active; 'I' for Inactive)
REMARK    1  A    between atoms: C_2  and  C_4
REMARK    2  A    between atoms: C_4  and  C_5
REMARK    3  A    between atoms: C_5  and  C_6
REMARK    4  A    between atoms: C_15  and  C_22
REMARK                            x       y       z     vdW  Elec       q    Type
REMARK                         _______ _______ _______ _____ _____    ______ ____
ROOT
ATOM      6  C   UNL     1      -2.858   0.274  24.502  0.00  0.00    +0.226 C 
ATOM      7  O   UNL     1      -2.149   0.412  24.902  0.00  0.00    -0.275 OA
ATOM      8  N   UNL     1      -3.319   0.909  24.248  0.00  0.00    -0.279 N 
ATOM      9  C   UNL     1      -3.957   1.316  23.893  0.00  0.00    +0.095 C 
ATOM     10  C   UNL     1      -3.673   2.248  24.062  0.00  0.00    +0.043 C 
ATOM     11  C   UNL     1      -3.583   3.055  24.121  0.00  0.00    +0.011 C 
ATOM     12  C   UNL     1      -3.231   2.479  24.313  0.00  0.00    +0.058 C 
ATOM     13  C   UNL     1      -3.519   1.584  24.142  0.00  0.00    +0.099 C 
ATOM     14  C   UNL     1      -2.464   2.212  24.742  0.00  0.00    +0.041 A 
ATOM     15  C   UNL     1      -1.800   2.523  25.119  0.00  0.00    +0.014 A 
ATOM     16  C   UNL     1      -1.230   2.017  25.435  0.00  0.00    +0.006 A 
ATOM     17  C   UNL     1      -1.324   1.200  25.374  0.00  0.00    +0.061 A 
ATOM     18  C   UNL     1      -1.988   0.889  24.997  0.00  0.00    +0.261 A 
ATOM     19  O   UNL     1      -1.858   0.077  25.062  0.00  0.00    -0.267 OA
ATOM     20  N   UNL     1      -2.558   1.395  24.681  0.00  0.00    -0.299 N 
ATOM     21  C   UNL     1      -2.873   1.959  24.509  0.00  0.00    +0.110 C 
ENDROOT
BRANCH  15  22
ATOM     22  C   UNL     1      -1.705   3.341  25.180  0.00  0.00    +0.029 A 
ATOM     23  C   UNL     1      -2.189   3.775  25.687  0.00  0.00    +0.002 A 
ATOM     24  C   UNL     1      -2.095   4.593  25.748  0.00  0.00    +0.000 A 
ATOM     25  C   UNL     1      -1.517   4.976  25.302  0.00  0.00    +0.002 A 
ATOM     26  C   UNL     1      -1.032   4.542  24.795  0.00  0.00    +0.030 A 
ATOM     27  C   UNL     1      -1.127   3.724  24.734  0.00  0.00    +0.140 A 
ATOM     28  F   UNL     1      -0.643   3.289  24.226  0.00  0.00    -0.204 F 
ENDBRANCH  15  22
BRANCH   6   5
ATOM      5  C   UNL     1      -3.104  -0.499  24.355  0.00  0.00    +0.097 C 
BRANCH   5   4
ATOM      4  C   UNL     1      -3.536  -0.910  24.926  0.00  0.00    +0.124 C 
BRANCH   4   2
ATOM      1  O   UNL     1      -3.595  -2.266  25.373  0.00  0.00    -0.246 OA
ATOM      2  C   UNL     1      -3.749  -1.697  24.796  0.00  0.00    +0.365 C 
ATOM      3  O   UNL     1      -4.115  -1.913  24.090  0.00  0.00    -0.246 OA
ENDBRANCH   4   2
ENDBRANCH   5   4
ENDBRANCH   6   5
TORSDOF 4
ENDMDL
