MODEL 1
REMARK VINA RESULT:     -13.7      0.000      0.000
REMARK  Name = 
REMARK  4 active torsions:
REMARK  status: ('A' for Active; 'I' for Inactive)
REMARK    1  A    between atoms: O_2  and  C_3
REMARK    2  A    between atoms: C_6  and  S_9
REMARK    3  A    between atoms: S_9  and  N_12
REMARK    4  A    between atoms: C_21  and  C_22
REMARK                            x       y       z     vdW  Elec       q    Type
REMARK                         _______ _______ _______ _____ _____    ______ ____
ROOT
ATOM     12  N   UNL     1      -4.682   1.313  24.779  0.00  0.00    -0.155 NA
ATOM     13  C   UNL     1      -5.271   1.905  24.757  0.00  0.00    +0.098 C 
ATOM     14  C   UNL     1      -4.699   2.709  24.805  0.00  0.00    +0.041 C 
ATOM     15  C   UNL     1      -4.375   3.456  24.837  0.00  0.00    +0.011 C 
ATOM     16  C   UNL     1      -4.148   2.792  24.838  0.00  0.00    +0.056 C 
ATOM     17  C   UNL     1      -4.715   2.024  24.791  0.00  0.00    +0.102 C 
ATOM     18  C   UNL     1      -3.377   2.294  24.873  0.00  0.00    +0.041 A 
ATOM     19  C   UNL     1      -2.558   2.383  24.922  0.00  0.00    +0.013 A 
ATOM     20  C   UNL     1      -2.071   1.717  24.937  0.00  0.00    +0.009 A 
ATOM     21  C   UNL     1      -2.403   0.962  24.904  0.00  0.00    +0.091 A 
ATOM     27  C   UNL     1      -3.221   0.873  24.855  0.00  0.00    +0.264 A 
ATOM     28  O   UNL     1      -3.553   0.118  24.822  0.00  0.00    -0.267 OA
ATOM     29  N   UNL     1      -3.708   1.539  24.840  0.00  0.00    -0.299 N 
ATOM     30  C   UNL     1      -3.898   2.181  24.841  0.00  0.00    +0.110 C 
ENDROOT
BRANCH  21  22
ATOM     22  C   UNL     1      -1.915   0.298  24.920  0.00  0.00    +0.150 A 
ATOM     23  C   UNL     1      -1.612  -0.065  25.596  0.00  0.00    +0.041 A 
ATOM     24  C   UNL     1      -1.154  -0.708  25.358  0.00  0.00    +0.044 A 
ATOM     25  C   UNL     1      -1.175  -0.743  24.533  0.00  0.00    +0.180 A 
ATOM     26  O   UNL     1      -1.645  -0.122  24.263  0.00  0.00    -0.450 OA
ENDBRANCH  21  22
BRANCH  12   9
ATOM      9  S   UNL     1      -4.350   0.557  24.784  0.00  0.00    +0.063 S 
ATOM     10  O   UNL     1      -4.435   0.525  25.605  0.00  0.00    -0.153 OA
ATOM     11  O   UNL     1      -4.265   0.589  23.964  0.00  0.00    -0.153 OA
BRANCH   9   6
ATOM      3  C   UNL     1      -3.355  -1.709  24.799  0.00  0.00    +0.139 A 
ATOM      4  C   UNL     1      -3.500  -1.327  24.083  0.00  0.00    +0.038 A 
ATOM      5  C   UNL     1      -3.832  -0.571  24.078  0.00  0.00    +0.023 A 
ATOM      6  C   UNL     1      -4.018  -0.198  24.789  0.00  0.00    +0.122 A 
ATOM      7  C   UNL     1      -3.874  -0.580  25.506  0.00  0.00    +0.023 A 
ATOM      8  C   UNL     1      -3.542  -1.336  25.511  0.00  0.00    +0.038 A 
BRANCH   3   2
ATOM      1  C   UNL     1      -3.484  -3.118  24.601  0.00  0.00    +0.252 C 
ATOM      2  O   UNL     1      -3.024  -2.464  24.804  0.00  0.00    -0.471 OA
ENDBRANCH   3   2
ENDBRANCH   9   6
ENDBRANCH  12   9
TORSDOF 4
ENDMDL
MODEL 2
REMARK VINA RESULT:     -13.5      1.219      3.423
REMARK  Name = 
REMARK  4 active torsions:
REMARK  status: ('A' for Active; 'I' for Inactive)
REMARK    1  A    between atoms: O_2  and  C_3
REMARK    2  A    between atoms: C_6  and  S_9
REMARK    3  A    between atoms: S_9  and  N_12
REMARK    4  A    between atoms: C_21  and  C_22
REMARK                            x       y       z     vdW  Elec       q    Type
REMARK                         _______ _______ _______ _____ _____    ______ ____
ROOT
ATOM     12  N   UNL     1      -4.020  -0.907  24.170  0.00  0.00    -0.155 NA
ATOM     13  C   UNL     1      -4.472  -1.600  24.056  0.00  0.00    +0.098 C 
ATOM     14  C   UNL     1      -3.801  -2.279  24.312  0.00  0.00    +0.041 C 
ATOM     15  C   UNL     1      -3.373  -2.949  24.487  0.00  0.00    +0.011 C 
ATOM     16  C   UNL     1      -3.272  -2.255  24.485  0.00  0.00    +0.056 C 
ATOM     17  C   UNL     1      -3.931  -1.610  24.235  0.00  0.00    +0.102 C 
ATOM     18  C   UNL     1      -2.633  -1.619  24.663  0.00  0.00    +0.041 A 
ATOM     19  C   UNL     1      -1.851  -1.550  24.917  0.00  0.00    +0.013 A 
ATOM     20  C   UNL     1      -1.507  -0.804  24.993  0.00  0.00    +0.009 A 
ATOM     21  C   UNL     1      -1.944  -0.127  24.815  0.00  0.00    +0.091 A 
ATOM     27  C   UNL     1      -2.726  -0.196  24.561  0.00  0.00    +0.264 A 
ATOM     28  O   UNL     1      -3.163   0.481  24.382  0.00  0.00    -0.267 OA
ATOM     29  N   UNL     1      -3.070  -0.942  24.485  0.00  0.00    -0.299 N 
ATOM     30  C   UNL     1      -3.140  -1.607  24.495  0.00  0.00    +0.110 C 
ENDROOT
BRANCH  21  22
ATOM     22  C   UNL     1      -1.599   0.618  24.891  0.00  0.00    +0.150 A 
ATOM     23  C   UNL     1      -1.130   0.995  24.326  0.00  0.00    +0.041 A 
ATOM     24  C   UNL     1      -0.902   1.727  24.630  0.00  0.00    +0.044 A 
ATOM     25  C   UNL     1      -1.231   1.803  25.383  0.00  0.00    +0.180 A 
ATOM     26  O   UNL     1      -1.661   1.118  25.544  0.00  0.00    -0.450 OA
ENDBRANCH  21  22
BRANCH  12   9
ATOM      9  S   UNL     1      -3.836  -0.102  24.190  0.00  0.00    +0.063 S 
ATOM     10  O   UNL     1      -3.577  -0.142  23.407  0.00  0.00    -0.153 OA
ATOM     11  O   UNL     1      -4.095  -0.062  24.973  0.00  0.00    -0.153 OA
BRANCH   9   6
ATOM      3  C   UNL     1      -3.284   2.310  24.250  0.00  0.00    +0.139 A 
ATOM      4  C   UNL     1      -3.611   1.945  24.913  0.00  0.00    +0.038 A 
ATOM      5  C   UNL     1      -3.795   1.141  24.893  0.00  0.00    +0.023 A 
ATOM      6  C   UNL     1      -3.652   0.702  24.210  0.00  0.00    +0.122 A 
ATOM      7  C   UNL     1      -3.325   1.067  23.546  0.00  0.00    +0.023 A 
ATOM      8  C   UNL     1      -3.141   1.871  23.566  0.00  0.00    +0.038 A 
BRANCH   3   2
ATOM      1  C   UNL     1      -3.699   3.676  24.195  0.00  0.00    +0.252 C 
ATOM      2  O   UNL     1      -3.100   3.114  24.270  0.00  0.00    -0.471 OA
ENDBRANCH   3   2
ENDBRANCH   9   6
ENDBRANCH  12   9
TORSDOF 4
ENDMDL
MODEL 3
REMARK VINA RESULT:     -13.4      1.586      3.039
REMARK  Name = 
REMARK  4 active torsions:
REMARK  status: ('A' for Active; 'I' for Inactive)
REMARK    1  A    between atoms: O_2  and  C_3
REMARK    2  A    between atoms: C_6  and  S_9
REMARK    3  A    between atoms: S_9  and  N_12
REMARK    4  A    between atoms: C_21  and  C_22
REMARK                            x       y       z     vdW  Elec       q    Type
REMARK                         _______ _______ _______ _____ _____    ______ ____
ROOT
ATOM     12  N   UNL     1      -1.535   2.750  24.585  0.00  0.00    -0.155 NA
ATOM     13  C   UNL     1      -0.806   3.157  24.560  0.00  0.00    +0.098 C 
ATOM     14  C   UNL     1      -1.092   4.031  24.922  0.00  0.00    +0.041 C 
ATOM     15  C   UNL     1      -1.164   4.794  25.197  0.00  0.00    +0.011 C 
ATOM     16  C   UNL     1      -1.578   4.236  25.100  0.00  0.00    +0.056 C 
ATOM     17  C   UNL     1      -1.287   3.397  24.749  0.00  0.00    +0.102 C 
ATOM     18  C   UNL     1      -2.449   3.958  25.200  0.00  0.00    +0.041 A 
ATOM     19  C   UNL     1      -3.183   4.233  25.458  0.00  0.00    +0.013 A 
ATOM     20  C   UNL     1      -3.840   3.734  25.435  0.00  0.00    +0.009 A 
ATOM     21  C   UNL     1      -3.763   2.962  25.155  0.00  0.00    +0.091 A 
ATOM     27  C   UNL     1      -3.029   2.688  24.898  0.00  0.00    +0.264 A 
ATOM     28  O   UNL     1      -2.952   1.915  24.618  0.00  0.00    -0.267 OA
ATOM     29  N   UNL     1      -2.372   3.186  24.920  0.00  0.00    -0.299 N 
ATOM     30  C   UNL     1      -1.998   3.732  25.023  0.00  0.00    +0.110 C 
ENDROOT
BRANCH  21  22
ATOM     22  C   UNL     1      -4.420   2.465  25.133  0.00  0.00    +0.150 A 
ATOM     23  C   UNL     1      -4.988   2.438  24.534  0.00  0.00    +0.041 A 
ATOM     24  C   UNL     1      -5.544   1.864  24.735  0.00  0.00    +0.044 A 
ATOM     25  C   UNL     1      -5.321   1.535  25.459  0.00  0.00    +0.180 A 
ATOM     26  O   UNL     1      -4.626   1.906  25.704  0.00  0.00    -0.450 OA
ENDBRANCH  21  22
BRANCH  12   9
ATOM      9  S   UNL     1      -2.075   2.132  24.496  0.00  0.00    +0.063 S 
ATOM     10  O   UNL     1      -1.900   1.869  25.258  0.00  0.00    -0.153 OA
ATOM     11  O   UNL     1      -2.251   2.396  23.734  0.00  0.00    -0.153 OA
BRANCH   9   6
ATOM      3  C   UNL     1      -3.695   0.281  24.228  0.00  0.00    +0.139 A 
ATOM      4  C   UNL     1      -3.573   0.814  23.611  0.00  0.00    +0.038 A 
ATOM      5  C   UNL     1      -3.033   1.432  23.700  0.00  0.00    +0.023 A 
ATOM      6  C   UNL     1      -2.616   1.515  24.406  0.00  0.00    +0.122 A 
ATOM      7  C   UNL     1      -2.738   0.982  25.023  0.00  0.00    +0.023 A 
ATOM      8  C   UNL     1      -3.278   0.364  24.934  0.00  0.00    +0.038 A 
BRANCH   3   2
ATOM      1  C   UNL     1      -3.973  -1.085  23.912  0.00  0.00    +0.252 C 
ATOM      2  O   UNL     1      -4.235  -0.337  24.138  0.00  0.00    -0.471 OA
ENDBRANCH   3   2
ENDBRANCH   9   6
ENDBRANCH  12   9
TORSDOF 4
ENDMDL
MODEL 4
REMARK VINA RESULT:     -13.3      1.466      3.838
REMARK  Name = 
REMARK  4 active torsions:
REMARK  status: ('A' for Active; 'I' for Inactive)
REMARK    1  A    between atoms: O_2  and  C_3
REMARK    2  A    between atoms: C_6  and  S_9
REMARK    3  A    between atoms: S_9  and  N_12
REMARK    4  A    between atoms: C_21  and  C_22
REMARK                            x       y       z     vdW  Elec       q    Type
REMARK                         _______ _______ _______ _____ _____    ______ ____
ROOT
ATOM     12  N   UNL     1      -2.087  -1.658  24.777  0.00  0.00    -0.155 NA
ATOM     13  C   UNL     1      -2.104  -2.493  24.815  0.00  0.00    +0.098 C 
ATOM     14  C   UNL     1      -3.048  -2.651  24.570  0.00  0.00    +0.041 C 
ATOM     15  C   UNL     1      -3.786  -2.945  24.387  0.00  0.00    +0.011 C 
ATOM     16  C   UNL     1      -3.476  -2.317  24.438  0.00  0.00    +0.056 C 
ATOM     17  C   UNL     1      -2.561  -2.181  24.677  0.00  0.00    +0.102 C 
ATOM     18  C   UNL     1      -3.647  -1.419  24.346  0.00  0.00    +0.041 A 
ATOM     19  C   UNL     1      -4.258  -0.900  24.155  0.00  0.00    +0.013 A 
ATOM     20  C   UNL     1      -4.122  -0.086  24.150  0.00  0.00    +0.009 A 
ATOM     21  C   UNL     1      -3.374   0.208  24.335  0.00  0.00    +0.091 A 
ATOM     27  C   UNL     1      -2.762  -0.311  24.526  0.00  0.00    +0.264 A 
ATOM     28  O   UNL     1      -2.014  -0.017  24.712  0.00  0.00    -0.267 OA
ATOM     29  N   UNL     1      -2.898  -1.125  24.532  0.00  0.00    -0.299 N 
ATOM     30  C   UNL     1      -3.218  -1.710  24.476  0.00  0.00    +0.110 C 
ENDROOT
BRANCH  21  22
ATOM     22  C   UNL     1      -3.238   1.021  24.330  0.00  0.00    +0.150 A 
ATOM     23  C   UNL     1      -3.056   1.478  23.667  0.00  0.00    +0.041 A 
ATOM     24  C   UNL     1      -2.966   2.260  23.912  0.00  0.00    +0.044 A 
ATOM     25  C   UNL     1      -3.093   2.287  24.728  0.00  0.00    +0.180 A 
ATOM     26  O   UNL     1      -3.261   1.522  24.985  0.00  0.00    -0.450 OA
ENDBRANCH  21  22
BRANCH  12   9
ATOM      9  S   UNL     1      -1.784  -0.892  24.818  0.00  0.00    +0.063 S 
ATOM     10  O   UNL     1      -2.005  -0.848  25.612  0.00  0.00    -0.153 OA
ATOM     11  O   UNL     1      -1.563  -0.936  24.025  0.00  0.00    -0.153 OA
BRANCH   9   6
ATOM      3  C   UNL     1      -0.874   1.406  24.944  0.00  0.00    +0.139 A 
ATOM      4  C   UNL     1      -1.204   1.056  25.614  0.00  0.00    +0.038 A 
ATOM      5  C   UNL     1      -1.507   0.290  25.572  0.00  0.00    +0.023 A 
ATOM      6  C   UNL     1      -1.481  -0.125  24.860  0.00  0.00    +0.122 A 
ATOM      7  C   UNL     1      -1.151   0.225  24.190  0.00  0.00    +0.023 A 
ATOM      8  C   UNL     1      -0.848   0.991  24.232  0.00  0.00    +0.038 A 
BRANCH   3   2
ATOM      1  C   UNL     1       0.202   2.296  25.243  0.00  0.00    +0.252 C 
ATOM      2  O   UNL     1      -0.571   2.173  24.986  0.00  0.00    -0.471 OA
ENDBRANCH   3   2
ENDBRANCH   9   6
ENDBRANCH  12   9
TORSDOF 4
ENDMDL
MODEL 5
REMARK VINA RESULT:     -13.2      1.808      2.702
REMARK  Name = 
REMARK  4 active torsions:
REMARK  status: ('A' for Active; 'I' for Inactive)
REMARK    1  A    between atoms: O_2  and  C_3
REMARK    2  A    between atoms: C_6  and  S_9
REMARK    3  A    between atoms: S_9  and  N_12
REMARK    4  A    between atoms: C_21  and  C_22
REMARK                            x       y       z     vdW  Elec       q    Type
REMARK                         _______ _______ _______ _____ _____    ______ ____
ROOT
ATOM     12  N   UNL     1      -4.311   1.693  24.707  0.00  0.00    -0.155 NA
ATOM     13  C   UNL     1      -5.130   1.535  24.732  0.00  0.00    +0.098 C 
ATOM     14  C   UNL     1      -5.443   2.352  25.192  0.00  0.00    +0.041 C 
ATOM     15  C   UNL     1      -5.854   2.954  25.554  0.00  0.00    +0.011 C 
ATOM     16  C   UNL     1      -5.188   2.806  25.392  0.00  0.00    +0.056 C 
ATOM     17  C   UNL     1      -4.901   2.011  24.947  0.00  0.00    +0.102 C 
ATOM     18  C   UNL     1      -4.337   3.147  25.456  0.00  0.00    +0.041 A 
ATOM     19  C   UNL     1      -3.931   3.806  25.740  0.00  0.00    +0.013 A 
ATOM     20  C   UNL     1      -3.111   3.852  25.658  0.00  0.00    +0.009 A 
ATOM     21  C   UNL     1      -2.698   3.240  25.290  0.00  0.00    +0.091 A 
ATOM     27  C   UNL     1      -3.104   2.581  25.005  0.00  0.00    +0.264 A 
ATOM     28  O   UNL     1      -2.691   1.969  24.637  0.00  0.00    -0.267 OA
ATOM     29  N   UNL     1      -3.923   2.534  25.088  0.00  0.00    -0.299 N 
ATOM     30  C   UNL     1      -4.550   2.700  25.254  0.00  0.00    +0.110 C 
ENDROOT
BRANCH  21  22
ATOM     22  C   UNL     1      -1.879   3.287  25.208  0.00  0.00    +0.150 A 
ATOM     23  C   UNL     1      -1.321   3.089  25.783  0.00  0.00    +0.041 A 
ATOM     24  C   UNL     1      -0.571   3.220  25.468  0.00  0.00    +0.044 A 
ATOM     25  C   UNL     1      -0.664   3.500  24.697  0.00  0.00    +0.180 A 
ATOM     26  O   UNL     1      -1.472   3.542  24.537  0.00  0.00    -0.450 OA
ENDBRANCH  21  22
BRANCH  12   9
ATOM      9  S   UNL     1      -3.509   1.580  24.544  0.00  0.00    +0.063 S 
ATOM     10  O   UNL     1      -3.603   1.961  23.818  0.00  0.00    -0.153 OA
ATOM     11  O   UNL     1      -3.416   1.199  25.271  0.00  0.00    -0.153 OA
BRANCH   9   6
ATOM      3  C   UNL     1      -1.107   1.239  24.057  0.00  0.00    +0.139 A 
ATOM      4  C   UNL     1      -1.424   0.975  24.771  0.00  0.00    +0.038 A 
ATOM      5  C   UNL     1      -2.225   1.089  24.934  0.00  0.00    +0.023 A 
ATOM      6  C   UNL     1      -2.708   1.466  24.382  0.00  0.00    +0.122 A 
ATOM      7  C   UNL     1      -2.391   1.730  23.668  0.00  0.00    +0.023 A 
ATOM      8  C   UNL     1      -1.590   1.617  23.505  0.00  0.00    +0.038 A 
BRANCH   3   2
ATOM      1  C   UNL     1      -0.039   0.394  23.625  0.00  0.00    +0.252 C 
ATOM      2  O   UNL     1      -0.306   1.126  23.895  0.00  0.00    -0.471 OA
ENDBRANCH   3   2
ENDBRANCH   9   6
ENDBRANCH  12   9
TORSDOF 4
ENDMDL
MODEL 6
REMARK VINA RESULT:     -13.2      0.977      2.281
REMARK  Name = 
REMARK  4 active torsions:
REMARK  status: ('A' for Active; 'I' for Inactive)
REMARK    1  A    between atoms: O_2  and  C_3
REMARK    2  A    between atoms: C_6  and  S_9
REMARK    3  A    between atoms: S_9  and  N_12
REMARK    4  A    between atoms: C_21  and  C_22
REMARK                            x       y       z     vdW  Elec       q    Type
REMARK                         _______ _______ _______ _____ _____    ______ ____
ROOT
ATOM     12  N   UNL     1      -3.290   2.774  24.843  0.00  0.00    -0.155 NA
ATOM     13  C   UNL     1      -3.427   3.597  24.886  0.00  0.00    +0.098 C 
ATOM     14  C   UNL     1      -4.396   3.594  25.079  0.00  0.00    +0.041 C 
ATOM     15  C   UNL     1      -5.178   3.760  25.237  0.00  0.00    +0.011 C 
ATOM     16  C   UNL     1      -4.776   3.191  25.147  0.00  0.00    +0.056 C 
ATOM     17  C   UNL     1      -3.840   3.211  24.961  0.00  0.00    +0.102 C 
ATOM     18  C   UNL     1      -4.818   2.273  25.138  0.00  0.00    +0.041 A 
ATOM     19  C   UNL     1      -5.356   1.656  25.234  0.00  0.00    +0.013 A 
ATOM     20  C   UNL     1      -5.102   0.874  25.169  0.00  0.00    +0.009 A 
ATOM     21  C   UNL     1      -4.310   0.709  25.008  0.00  0.00    +0.091 A 
ATOM     27  C   UNL     1      -3.772   1.327  24.912  0.00  0.00    +0.264 A 
ATOM     28  O   UNL     1      -2.979   1.162  24.751  0.00  0.00    -0.267 OA
ATOM     29  N   UNL     1      -4.026   2.109  24.977  0.00  0.00    -0.299 N 
ATOM     30  C   UNL     1      -4.430   2.634  25.067  0.00  0.00    +0.110 C 
ENDROOT
BRANCH  21  22
ATOM     22  C   UNL     1      -4.057  -0.073  24.943  0.00  0.00    +0.150 A 
ATOM     23  C   UNL     1      -4.104  -0.544  24.267  0.00  0.00    +0.041 A 
ATOM     24  C   UNL     1      -3.789  -1.283  24.447  0.00  0.00    +0.044 A 
ATOM     25  C   UNL     1      -3.546  -1.271  25.236  0.00  0.00    +0.180 A 
ATOM     26  O   UNL     1      -3.712  -0.523  25.542  0.00  0.00    -0.450 OA
ENDBRANCH  21  22
BRANCH  12   9
ATOM      9  S   UNL     1      -2.875   2.067  24.747  0.00  0.00    +0.063 S 
ATOM     10  O   UNL     1      -3.050   2.074  23.941  0.00  0.00    -0.153 OA
ATOM     11  O   UNL     1      -2.701   2.060  25.554  0.00  0.00    -0.153 OA
BRANCH   9   6
ATOM      3  C   UNL     1      -1.632  -0.053  24.460  0.00  0.00    +0.139 A 
ATOM      4  C   UNL     1      -1.695   0.290  25.208  0.00  0.00    +0.038 A 
ATOM      5  C   UNL     1      -2.109   0.997  25.303  0.00  0.00    +0.023 A 
ATOM      6  C   UNL     1      -2.460   1.360  24.651  0.00  0.00    +0.122 A 
ATOM      7  C   UNL     1      -2.397   1.017  23.904  0.00  0.00    +0.023 A 
ATOM      8  C   UNL     1      -1.983   0.310  23.809  0.00  0.00    +0.038 A 
BRANCH   3   2
ATOM      1  C   UNL     1      -0.397  -0.749  24.281  0.00  0.00    +0.252 C 
ATOM      2  O   UNL     1      -1.217  -0.761  24.365  0.00  0.00    -0.471 OA
ENDBRANCH   3   2
ENDBRANCH   9   6
ENDBRANCH  12   9
TORSDOF 4
ENDMDL
MODEL 7
REMARK VINA RESULT:     -13.0      2.062      3.588
REMARK  Name = 
REMARK  4 active torsions:
REMARK  status: ('A' for Active; 'I' for Inactive)
REMARK    1  A    between atoms: O_2  and  C_3
REMARK    2  A    between atoms: C_6  and  S_9
REMARK    3  A    between atoms: S_9  and  N_12
REMARK    4  A    between atoms: C_21  and  C_22
REMARK                            x       y       z     vdW  Elec       q    Type
REMARK                         _______ _______ _______ _____ _____    ______ ____
ROOT
ATOM     12  N   UNL     1      -4.881   3.155  25.398  0.00  0.00    -0.155 NA
ATOM     13  C   UNL     1      -5.699   3.195  25.560  0.00  0.00    +0.098 C 
ATOM     14  C   UNL     1      -5.957   2.267  25.344  0.00  0.00    +0.041 C 
ATOM     15  C   UNL     1      -6.326   1.553  25.209  0.00  0.00    +0.011 C 
ATOM     16  C   UNL     1      -5.678   1.818  25.165  0.00  0.00    +0.056 C 
ATOM     17  C   UNL     1      -5.444   2.720  25.378  0.00  0.00    +0.102 C 
ATOM     18  C   UNL     1      -4.817   1.586  24.940  0.00  0.00    +0.041 A 
ATOM     19  C   UNL     1      -4.376   0.942  24.675  0.00  0.00    +0.013 A 
ATOM     20  C   UNL     1      -3.565   1.022  24.548  0.00  0.00    +0.009 A 
ATOM     21  C   UNL     1      -3.195   1.746  24.686  0.00  0.00    +0.091 A 
ATOM     27  C   UNL     1      -3.636   2.391  24.951  0.00  0.00    +0.264 A 
ATOM     28  O   UNL     1      -3.266   3.115  25.089  0.00  0.00    -0.267 OA
ATOM     29  N   UNL     1      -4.447   2.311  25.078  0.00  0.00    -0.299 N 
ATOM     30  C   UNL     1      -5.055   2.033  25.111  0.00  0.00    +0.110 C 
ENDROOT
BRANCH  21  22
ATOM     22  C   UNL     1      -2.384   1.825  24.559  0.00  0.00    +0.150 A 
ATOM     23  C   UNL     1      -1.788   1.626  25.094  0.00  0.00    +0.041 A 
ATOM     24  C   UNL     1      -1.062   1.794  24.742  0.00  0.00    +0.044 A 
ATOM     25  C   UNL     1      -1.209   2.098  23.988  0.00  0.00    +0.180 A 
ATOM     26  O   UNL     1      -2.026   2.116  23.876  0.00  0.00    -0.450 OA
ENDBRANCH  21  22
BRANCH  12   9
ATOM      9  S   UNL     1      -4.097   3.404  25.324  0.00  0.00    +0.063 S 
ATOM     10  O   UNL     1      -4.238   3.616  24.539  0.00  0.00    -0.153 OA
ATOM     11  O   UNL     1      -3.956   3.192  26.109  0.00  0.00    -0.153 OA
BRANCH   9   6
ATOM      3  C   UNL     1      -1.748   4.152  25.103  0.00  0.00    +0.139 A 
ATOM      4  C   UNL     1      -2.262   4.213  24.462  0.00  0.00    +0.038 A 
ATOM      5  C   UNL     1      -3.046   3.964  24.535  0.00  0.00    +0.023 A 
ATOM      6  C   UNL     1      -3.314   3.654  25.251  0.00  0.00    +0.122 A 
ATOM      7  C   UNL     1      -2.800   3.592  25.892  0.00  0.00    +0.023 A 
ATOM      8  C   UNL     1      -2.016   3.841  25.819  0.00  0.00    +0.038 A 
BRANCH   3   2
ATOM      1  C   UNL     1      -0.791   5.206  24.983  0.00  0.00    +0.252 C 
ATOM      2  O   UNL     1      -0.965   4.401  25.030  0.00  0.00    -0.471 OA
ENDBRANCH   3   2
ENDBRANCH   9   6
ENDBRANCH  12   9
TORSDOF 4
ENDMDL
