MODEL 1
REMARK VINA RESULT:     -11.0      0.000      0.000
REMARK  Name = 
REMARK  8 active torsions:
REMARK  status: ('A' for Active; 'I' for Inactive)
REMARK    1  A    between atoms: C_2  and  C_5
REMARK    2  A    between atoms: C_5  and  C_6
REMARK    3  A    between atoms: C_11  and  C_12
REMARK    4  A    between atoms: C_12  and  C_13
REMARK    5  A    between atoms: C_16  and  C_17
REMARK    6  A    between atoms: C_17  and  C_18
REMARK    7  A    between atoms: C_18  and  N_19
REMARK    8  A    between atoms: N_22  and  C_25
REMARK                            x       y       z     vdW  Elec       q    Type
REMARK                         _______ _______ _______ _____ _____    ______ ____
ROOT
ATOM      6  C   UNL     1      -2.109   3.951  24.967  0.00  0.00    +0.226 C 
ATOM      7  O   UNL     1      -1.577   3.455  24.578  0.00  0.00    -0.275 OA
ATOM      8  N   UNL     1      -2.897   3.725  25.054  0.00  0.00    -0.280 N 
ATOM      9  C   UNL     1      -3.428   4.221  25.443  0.00  0.00    +0.093 C 
ATOM     10  C   UNL     1      -4.217   3.995  25.531  0.00  0.00    +0.022 C 
ATOM     11  C   UNL     1      -4.474   3.272  25.228  0.00  0.00    +0.015 C 
ATOM     16  C   UNL     1      -3.943   2.776  24.839  0.00  0.00    +0.022 C 
ATOM     32  C   UNL     1      -3.154   3.002  24.752  0.00  0.00    +0.093 C 
ENDROOT
BRANCH   6   5
ATOM      5  C   UNL     1      -1.851   4.674  25.269  0.00  0.00    +0.085 C 
BRANCH   5   2
ATOM      1  C   UNL     1      -0.380   5.278  24.826  0.00  0.00    +0.000 C 
ATOM      2  C   UNL     1      -1.116   4.976  25.048  0.00  0.00    +0.009 C 
ATOM      3  C   UNL     1      -0.747   4.315  25.376  0.00  0.00    +0.000 C 
ATOM      4  C   UNL     1      -1.486   5.636  24.719  0.00  0.00    +0.000 C 
ENDBRANCH   5   2
ENDBRANCH   6   5
BRANCH  11  12
ATOM     12  C   UNL     1      -5.263   3.046  25.316  0.00  0.00    +0.114 C 
BRANCH  12  13
ATOM     13  C   UNL     1      -5.724   3.377  25.914  0.00  0.00    +0.365 C 
ATOM     14  O   UNL     1      -5.789   2.996  26.643  0.00  0.00    -0.246 OA
ATOM     15  O   UNL     1      -6.120   4.088  25.783  0.00  0.00    -0.246 OA
ENDBRANCH  12  13
ENDBRANCH  11  12
BRANCH  16  17
ATOM     17  C   UNL     1      -4.200   2.052  24.537  0.00  0.00    +0.019 C 
BRANCH  17  18
ATOM     18  C   UNL     1      -3.692   1.595  24.075  0.00  0.00    +0.072 C 
BRANCH  18  19
ATOM     19  N   UNL     1      -3.691   0.773  24.152  0.00  0.00    -0.270 NA
ATOM     20  C   UNL     1      -2.982   0.355  24.109  0.00  0.00    +0.094 C 
ATOM     21  C   UNL     1      -2.981  -0.466  24.185  0.00  0.00    +0.108 C 
ATOM     22  N   UNL     1      -3.690  -0.869  24.305  0.00  0.00    -0.305 N 
ATOM     23  C   UNL     1      -4.400  -0.451  24.347  0.00  0.00    +0.108 C 
ATOM     24  C   UNL     1      -4.401   0.370  24.271  0.00  0.00    +0.094 C 
BRANCH  22  25
ATOM     25  C   UNL     1      -3.690  -1.691  24.381  0.00  0.00    +0.048 A 
ATOM     26  C   UNL     1      -4.089  -2.157  23.830  0.00  0.00    +0.017 A 
ATOM     27  C   UNL     1      -4.089  -2.978  23.907  0.00  0.00    +0.031 A 
ATOM     28  C   UNL     1      -3.688  -3.334  24.535  0.00  0.00    +0.140 A 
ATOM     29  F   UNL     1      -3.688  -4.155  24.612  0.00  0.00    -0.204 F 
ATOM     30  C   UNL     1      -3.289  -2.868  25.086  0.00  0.00    +0.031 A 
ATOM     31  C   UNL     1      -3.289  -2.046  25.009  0.00  0.00    +0.017 A 
ENDBRANCH  22  25
ENDBRANCH  18  19
ENDBRANCH  17  18
ENDBRANCH  16  17
TORSDOF 8
ENDMDL
MODEL 2
REMARK VINA RESULT:     -11.0      3.540      5.161
REMARK  Name = 
REMARK  8 active torsions:
REMARK  status: ('A' for Active; 'I' for Inactive)
REMARK    1  A    between atoms: C_2  and  C_5
REMARK    2  A    between atoms: C_5  and  C_6
REMARK    3  A    between atoms: C_11  and  C_12
REMARK    4  A    between atoms: C_12  and  C_13
REMARK    5  A    between atoms: C_16  and  C_17
REMARK    6  A    between atoms: C_17  and  C_18
REMARK    7  A    between atoms: C_18  and  N_19
REMARK    8  A    between atoms: N_22  and  C_25
REMARK                            x       y       z     vdW  Elec       q    Type
REMARK                         _______ _______ _______ _____ _____    ______ ____
ROOT
ATOM      6  C   UNL     1      -4.368   1.392  24.961  0.00  0.00    +0.226 C 
ATOM      7  O   UNL     1      -3.843   2.027  25.002  0.00  0.00    -0.275 OA
ATOM      8  N   UNL     1      -4.091   0.637  24.777  0.00  0.00    -0.280 N 
ATOM      9  C   UNL     1      -4.616   0.004  24.737  0.00  0.00    +0.093 C 
ATOM     10  C   UNL     1      -4.338  -0.752  24.553  0.00  0.00    +0.022 C 
ATOM     11  C   UNL     1      -3.536  -0.872  24.410  0.00  0.00    +0.015 C 
ATOM     16  C   UNL     1      -3.010  -0.238  24.450  0.00  0.00    +0.022 C 
ATOM     32  C   UNL     1      -3.288   0.517  24.634  0.00  0.00    +0.093 C 
ENDROOT
BRANCH   6   5
ATOM      5  C   UNL     1      -5.172   1.513  25.104  0.00  0.00    +0.085 C 
BRANCH   5   2
ATOM      1  C   UNL     1      -5.721   3.014  25.515  0.00  0.00    +0.000 C 
ATOM      2  C   UNL     1      -5.446   2.263  25.309  0.00  0.00    +0.009 C 
ATOM      3  C   UNL     1      -5.609   1.994  26.072  0.00  0.00    +0.000 C 
ATOM      4  C   UNL     1      -5.282   2.531  24.547  0.00  0.00    +0.000 C 
ENDBRANCH   5   2
ENDBRANCH   6   5
BRANCH  11  12
ATOM     12  C   UNL     1      -3.258  -1.627  24.226  0.00  0.00    +0.114 C 
BRANCH  12  13
ATOM     13  C   UNL     1      -3.733  -2.287  24.364  0.00  0.00    +0.365 C 
ATOM     14  O   UNL     1      -4.275  -2.532  23.791  0.00  0.00    -0.246 OA
ATOM     15  O   UNL     1      -3.668  -2.701  25.073  0.00  0.00    -0.246 OA
ENDBRANCH  12  13
ENDBRANCH  11  12
BRANCH  16  17
ATOM     17  C   UNL     1      -2.206  -0.358  24.307  0.00  0.00    +0.019 C 
BRANCH  17  18
ATOM     18  C   UNL     1      -1.656   0.206  24.551  0.00  0.00    +0.072 C 
BRANCH  18  19
ATOM     19  N   UNL     1      -0.909   0.233  24.199  0.00  0.00    -0.270 NA
ATOM     20  C   UNL     1      -0.419  -0.428  24.222  0.00  0.00    +0.094 C 
ATOM     21  C   UNL     1       0.327  -0.402  23.871  0.00  0.00    +0.108 C 
ATOM     22  N   UNL     1       0.582   0.289  23.498  0.00  0.00    -0.305 N 
ATOM     23  C   UNL     1       0.091   0.950  23.475  0.00  0.00    +0.108 C 
ATOM     24  C   UNL     1      -0.655   0.924  23.826  0.00  0.00    +0.094 C 
BRANCH  22  25
ATOM     25  C   UNL     1       1.328   0.316  23.146  0.00  0.00    +0.048 A 
ATOM     26  C   UNL     1       1.497  -0.165  22.498  0.00  0.00    +0.017 A 
ATOM     27  C   UNL     1       2.243  -0.138  22.147  0.00  0.00    +0.031 A 
ATOM     28  C   UNL     1       2.821   0.371  22.444  0.00  0.00    +0.140 A 
ATOM     29  F   UNL     1       3.566   0.398  22.094  0.00  0.00    -0.204 F 
ATOM     30  C   UNL     1       2.652   0.852  23.093  0.00  0.00    +0.031 A 
ATOM     31  C   UNL     1       1.905   0.825  23.444  0.00  0.00    +0.017 A 
ENDBRANCH  22  25
ENDBRANCH  18  19
ENDBRANCH  17  18
ENDBRANCH  16  17
TORSDOF 8
ENDMDL
MODEL 3
REMARK VINA RESULT:      -9.7      4.180      6.109
REMARK  Name = 
REMARK  8 active torsions:
REMARK  status: ('A' for Active; 'I' for Inactive)
REMARK    1  A    between atoms: C_2  and  C_5
REMARK    2  A    between atoms: C_5  and  C_6
REMARK    3  A    between atoms: C_11  and  C_12
REMARK    4  A    between atoms: C_12  and  C_13
REMARK    5  A    between atoms: C_16  and  C_17
REMARK    6  A    between atoms: C_17  and  C_18
REMARK    7  A    between atoms: C_18  and  N_19
REMARK    8  A    between atoms: N_22  and  C_25
REMARK                            x       y       z     vdW  Elec       q    Type
REMARK                         _______ _______ _______ _____ _____    ______ ____
ROOT
ATOM      6  C   UNL     1      -2.647  -1.093  24.499  0.00  0.00    +0.226 C 
ATOM      7  O   UNL     1      -2.133  -1.691  24.257  0.00  0.00    -0.275 OA
ATOM      8  N   UNL     1      -2.389  -0.309  24.519  0.00  0.00    -0.280 N 
ATOM      9  C   UNL     1      -2.903   0.288  24.761  0.00  0.00    +0.093 C 
ATOM     10  C   UNL     1      -2.645   1.072  24.780  0.00  0.00    +0.022 C 
ATOM     11  C   UNL     1      -1.873   1.257  24.558  0.00  0.00    +0.015 C 
ATOM     16  C   UNL     1      -1.359   0.660  24.315  0.00  0.00    +0.022 C 
ATOM     32  C   UNL     1      -1.617  -0.124  24.296  0.00  0.00    +0.093 C 
ENDROOT
BRANCH   6   5
ATOM      5  C   UNL     1      -3.419  -1.279  24.722  0.00  0.00    +0.085 C 
BRANCH   5   2
ATOM      1  C   UNL     1      -4.003  -2.803  24.482  0.00  0.00    +0.000 C 
ATOM      2  C   UNL     1      -3.711  -2.040  24.602  0.00  0.00    +0.009 C 
ATOM      3  C   UNL     1      -3.365  -2.284  25.310  0.00  0.00    +0.000 C 
ATOM      4  C   UNL     1      -4.057  -1.796  23.894  0.00  0.00    +0.000 C 
ENDBRANCH   5   2
ENDBRANCH   6   5
BRANCH  11  12
ATOM     12  C   UNL     1      -1.615   2.041  24.577  0.00  0.00    +0.114 C 
BRANCH  12  13
ATOM     13  C   UNL     1      -2.120   2.635  24.844  0.00  0.00    +0.365 C 
ATOM     14  O   UNL     1      -2.119   2.850  25.641  0.00  0.00    -0.246 OA
ATOM     15  O   UNL     1      -2.626   3.015  24.316  0.00  0.00    -0.246 OA
ENDBRANCH  12  13
ENDBRANCH  11  12
BRANCH  16  17
ATOM     17  C   UNL     1      -0.586   0.845  24.092  0.00  0.00    +0.019 C 
BRANCH  17  18
ATOM     18  C   UNL     1      -0.260   0.503  23.416  0.00  0.00    +0.072 C 
BRANCH  18  19
ATOM     19  N   UNL     1       0.560   0.479  23.320  0.00  0.00    -0.270 NA
ATOM     20  C   UNL     1       1.029   1.086  23.623  0.00  0.00    +0.094 C 
ATOM     21  C   UNL     1       1.848   1.062  23.528  0.00  0.00    +0.108 C 
ATOM     22  N   UNL     1       2.197   0.430  23.129  0.00  0.00    -0.305 N 
ATOM     23  C   UNL     1       1.729  -0.177  22.826  0.00  0.00    +0.108 C 
ATOM     24  C   UNL     1       0.910  -0.153  22.922  0.00  0.00    +0.094 C 
BRANCH  22  25
ATOM     25  C   UNL     1       3.017   0.406  23.033  0.00  0.00    +0.048 A 
ATOM     26  C   UNL     1       3.412   1.047  22.697  0.00  0.00    +0.017 A 
ATOM     27  C   UNL     1       4.230   1.023  22.601  0.00  0.00    +0.031 A 
ATOM     28  C   UNL     1       4.655   0.357  22.842  0.00  0.00    +0.140 A 
ATOM     29  F   UNL     1       5.473   0.333  22.746  0.00  0.00    -0.204 F 
ATOM     30  C   UNL     1       4.260  -0.284  23.178  0.00  0.00    +0.031 A 
ATOM     31  C   UNL     1       3.440  -0.260  23.274  0.00  0.00    +0.017 A 
ENDBRANCH  22  25
ENDBRANCH  18  19
ENDBRANCH  17  18
ENDBRANCH  16  17
TORSDOF 8
ENDMDL
MODEL 4
REMARK VINA RESULT:      -9.4      3.567      5.584
REMARK  Name = 
REMARK  8 active torsions:
REMARK  status: ('A' for Active; 'I' for Inactive)
REMARK    1  A    between atoms: C_2  and  C_5
REMARK    2  A    between atoms: C_5  and  C_6
REMARK    3  A    between atoms: C_11  and  C_12
REMARK    4  A    between atoms: C_12  and  C_13
REMARK    5  A    between atoms: C_16  and  C_17
REMARK    6  A    between atoms: C_17  and  C_18
REMARK    7  A    between atoms: C_18  and  N_19
REMARK    8  A    between atoms: N_22  and  C_25
REMARK                            x       y       z     vdW  Elec       q    Type
REMARK                         _______ _______ _______ _____ _____    ______ ____
ROOT
ATOM      6  C   UNL     1       1.001   0.156  23.251  0.00  0.00    +0.226 C 
ATOM      7  O   UNL     1       0.997   0.966  23.094  0.00  0.00    -0.275 OA
ATOM      8  N   UNL     1       0.366  -0.191  23.647  0.00  0.00    -0.280 N 
ATOM      9  C   UNL     1       0.371  -1.000  23.803  0.00  0.00    +0.093 C 
ATOM     10  C   UNL     1      -0.265  -1.348  24.200  0.00  0.00    +0.022 C 
ATOM     11  C   UNL     1      -0.904  -0.885  24.439  0.00  0.00    +0.015 C 
ATOM     16  C   UNL     1      -0.909  -0.076  24.283  0.00  0.00    +0.022 C 
ATOM     32  C   UNL     1      -0.273   0.272  23.886  0.00  0.00    +0.093 C 
ENDROOT
BRANCH   6   5
ATOM      5  C   UNL     1       1.641  -0.306  23.011  0.00  0.00    +0.085 C 
BRANCH   5   2
ATOM      1  C   UNL     1       2.864   0.369  22.133  0.00  0.00    +0.000 C 
ATOM      2  C   UNL     1       2.252   0.031  22.573  0.00  0.00    +0.009 C 
ATOM      3  C   UNL     1       1.883  -0.208  21.875  0.00  0.00    +0.000 C 
ATOM      4  C   UNL     1       2.621   0.269  23.271  0.00  0.00    +0.000 C 
ENDBRANCH   5   2
ENDBRANCH   6   5
BRANCH  11  12
ATOM     12  C   UNL     1      -1.539  -1.233  24.835  0.00  0.00    +0.114 C 
BRANCH  12  13
ATOM     13  C   UNL     1      -1.660  -2.047  24.787  0.00  0.00    +0.365 C 
ATOM     14  O   UNL     1      -1.293  -2.551  25.328  0.00  0.00    -0.246 OA
ATOM     15  O   UNL     1      -2.147  -2.357  24.199  0.00  0.00    -0.246 OA
ENDBRANCH  12  13
ENDBRANCH  11  12
BRANCH  16  17
ATOM     17  C   UNL     1      -1.548   0.387  24.522  0.00  0.00    +0.019 C 
BRANCH  17  18
ATOM     18  C   UNL     1      -1.681   1.120  24.167  0.00  0.00    +0.072 C 
BRANCH  18  19
ATOM     19  N   UNL     1      -2.334   1.574  24.390  0.00  0.00    -0.270 NA
ATOM     20  C   UNL     1      -3.036   1.525  23.962  0.00  0.00    +0.094 C 
ATOM     21  C   UNL     1      -3.688   1.978  24.184  0.00  0.00    +0.108 C 
ATOM     22  N   UNL     1      -3.636   2.482  24.835  0.00  0.00    -0.305 N 
ATOM     23  C   UNL     1      -2.934   2.531  25.264  0.00  0.00    +0.108 C 
ATOM     24  C   UNL     1      -2.282   2.078  25.042  0.00  0.00    +0.094 C 
BRANCH  22  25
ATOM     25  C   UNL     1      -4.289   2.936  25.058  0.00  0.00    +0.048 A 
ATOM     26  C   UNL     1      -4.966   2.568  25.354  0.00  0.00    +0.017 A 
ATOM     27  C   UNL     1      -5.617   3.022  25.576  0.00  0.00    +0.031 A 
ATOM     28  C   UNL     1      -5.593   3.844  25.503  0.00  0.00    +0.140 A 
ATOM     29  F   UNL     1      -6.244   4.297  25.726  0.00  0.00    -0.204 F 
ATOM     30  C   UNL     1      -4.916   4.211  25.208  0.00  0.00    +0.031 A 
ATOM     31  C   UNL     1      -4.263   3.757  24.985  0.00  0.00    +0.017 A 
ENDBRANCH  22  25
ENDBRANCH  18  19
ENDBRANCH  17  18
ENDBRANCH  16  17
TORSDOF 8
ENDMDL
MODEL 5
REMARK VINA RESULT:      -9.2      3.019      6.707
REMARK  Name = 
REMARK  8 active torsions:
REMARK  status: ('A' for Active; 'I' for Inactive)
REMARK    1  A    between atoms: C_2  and  C_5
REMARK    2  A    between atoms: C_5  and  C_6
REMARK    3  A    between atoms: C_11  and  C_12
REMARK    4  A    between atoms: C_12  and  C_13
REMARK    5  A    between atoms: C_16  and  C_17
REMARK    6  A    between atoms: C_17  and  C_18
REMARK    7  A    between atoms: C_18  and  N_19
REMARK    8  A    between atoms: N_22  and  C_25
REMARK                            x       y       z     vdW  Elec       q    Type
REMARK                         _______ _______ _______ _____ _____    ______ ____
ROOT
ATOM      6  C   UNL     1      -2.701  -1.753  24.712  0.00  0.00    +0.226 C 
ATOM      7  O   UNL     1      -3.272  -1.391  25.185  0.00  0.00    -0.275 OA
ATOM      8  N   UNL     1      -1.972  -1.387  24.592  0.00  0.00    -0.280 N 
ATOM      9  C   UNL     1      -1.402  -1.749  24.118  0.00  0.00    +0.093 C 
ATOM     10  C   UNL     1      -0.672  -1.383  23.998  0.00  0.00    +0.022 C 
ATOM     11  C   UNL     1      -0.512  -0.656  24.352  0.00  0.00    +0.015 C 
ATOM     16  C   UNL     1      -1.081  -0.294  24.825  0.00  0.00    +0.022 C 
ATOM     32  C   UNL     1      -1.812  -0.660  24.945  0.00  0.00    +0.093 C 
ENDROOT
BRANCH   6   5
ATOM      5  C   UNL     1      -2.862  -2.480  24.358  0.00  0.00    +0.085 C 
BRANCH   5   2
ATOM      1  C   UNL     1      -4.383  -3.115  24.429  0.00  0.00    +0.000 C 
ATOM      2  C   UNL     1      -3.622  -2.797  24.394  0.00  0.00    +0.009 C 
ATOM      3  C   UNL     1      -3.836  -2.358  23.729  0.00  0.00    +0.000 C 
ATOM      4  C   UNL     1      -3.407  -3.237  25.058  0.00  0.00    +0.000 C 
ENDBRANCH   5   2
ENDBRANCH   6   5
BRANCH  11  12
ATOM     12  C   UNL     1       0.218  -0.291  24.232  0.00  0.00    +0.114 C 
BRANCH  12  13
ATOM     13  C   UNL     1       0.619  -0.394  23.518  0.00  0.00    +0.365 C 
ATOM     14  O   UNL     1       1.179  -0.995  23.444  0.00  0.00    -0.246 OA
ATOM     15  O   UNL     1       0.461   0.103  22.880  0.00  0.00    -0.246 OA
ENDBRANCH  12  13
ENDBRANCH  11  12
BRANCH  16  17
ATOM     17  C   UNL     1      -0.922   0.434  25.179  0.00  0.00    +0.019 C 
BRANCH  17  18
ATOM     18  C   UNL     1      -1.540   0.889  25.483  0.00  0.00    +0.072 C 
BRANCH  18  19
ATOM     19  N   UNL     1      -1.523   1.711  25.408  0.00  0.00    -0.270 NA
ATOM     20  C   UNL     1      -0.988   2.155  25.850  0.00  0.00    +0.094 C 
ATOM     21  C   UNL     1      -0.972   2.976  25.775  0.00  0.00    +0.108 C 
ATOM     22  N   UNL     1      -1.492   3.352  25.257  0.00  0.00    -0.305 N 
ATOM     23  C   UNL     1      -2.027   2.908  24.815  0.00  0.00    +0.108 C 
ATOM     24  C   UNL     1      -2.043   2.087  24.889  0.00  0.00    +0.094 C 
BRANCH  22  25
ATOM     25  C   UNL     1      -1.475   4.174  25.182  0.00  0.00    +0.048 A 
ATOM     26  C   UNL     1      -0.823   4.545  24.839  0.00  0.00    +0.017 A 
ATOM     27  C   UNL     1      -0.807   5.365  24.764  0.00  0.00    +0.031 A 
ATOM     28  C   UNL     1      -1.443   5.817  25.032  0.00  0.00    +0.140 A 
ATOM     29  F   UNL     1      -1.427   6.638  24.957  0.00  0.00    -0.204 F 
ATOM     30  C   UNL     1      -2.096   5.447  25.374  0.00  0.00    +0.031 A 
ATOM     31  C   UNL     1      -2.112   4.625  25.450  0.00  0.00    +0.017 A 
ENDBRANCH  22  25
ENDBRANCH  18  19
ENDBRANCH  17  18
ENDBRANCH  16  17
TORSDOF 8
ENDMDL
