MODEL 1
REMARK VINA RESULT:      -9.5      0.000      0.000
REMARK  Name = 
REMARK  4 active torsions:
REMARK  status: ('A' for Active; 'I' for Inactive)
REMARK    1  A    between atoms: C_6  and  C_7
REMARK    2  A    between atoms: C_7  and  N_8
REMARK    3  A    between atoms: N_14  and  C_15
REMARK    4  A    between atoms: C_15  and  C_16
REMARK                            x       y       z     vdW  Elec       q    Type
REMARK                         _______ _______ _______ _____ _____    ______ ____
ROOT
ATOM      8  N   UNL     1      -2.622   2.494  24.169  0.00  0.00    -0.263 NA
ATOM      9  C   UNL     1      -3.391   2.779  24.084  0.00  0.00    +0.094 C 
ATOM     10  C   UNL     1      -4.032   2.300  24.281  0.00  0.00    +0.112 C 
ATOM     11  N   UNL     1      -3.906   1.535  24.563  0.00  0.00    -0.261 N 
ATOM     12  C   UNL     1      -3.136   1.250  24.649  0.00  0.00    +0.113 C 
ATOM     13  C   UNL     1      -3.181   0.479  24.938  0.00  0.00    +0.117 C 
ATOM     14  N   UNL     1      -3.978   0.288  25.032  0.00  0.00    -0.257 N 
ATOM     22  C   UNL     1      -4.425   0.941  24.800  0.00  0.00    +0.308 C 
ATOM     23  O   UNL     1      -5.249   0.991  24.805  0.00  0.00    -0.252 OA
ATOM     24  C   UNL     1      -2.494   1.729  24.452  0.00  0.00    +0.094 C 
ENDROOT
BRANCH   8   7
ATOM      7  C   UNL     1      -1.979   2.973  23.972  0.00  0.00    +0.137 C 
BRANCH   7   6
ATOM      1  C   UNL     1      -0.266   3.408  24.281  0.00  0.00    +0.132 C 
ATOM      2  N   UNL     1      -0.925   3.745  24.646  0.00  0.00    -0.311 N 
ATOM      3  C   UNL     1      -0.912   4.340  25.217  0.00  0.00    +0.098 A 
ATOM      4  C   UNL     1      -1.693   4.508  25.428  0.00  0.00    +0.119 A 
ATOM      5  N   UNL     1      -2.187   4.016  24.986  0.00  0.00    -0.228 NA
ATOM      6  C   UNL     1      -1.713   3.545  24.504  0.00  0.00    +0.137 A 
ENDBRANCH   7   6
ENDBRANCH   8   7
BRANCH  14  15
ATOM     15  C   UNL     1      -4.275  -0.430  25.309  0.00  0.00    +0.141 C 
BRANCH  15  16
ATOM     16  C   UNL     1      -4.014  -1.140  24.980  0.00  0.00    +0.079 A 
ATOM     17  N   UNL     1      -4.295  -1.382  24.243  0.00  0.00    -0.246 NA
ATOM     18  C   UNL     1      -4.033  -2.092  23.915  0.00  0.00    +0.099 A 
ATOM     19  C   UNL     1      -3.490  -2.560  24.322  0.00  0.00    +0.021 A 
ATOM     20  C   UNL     1      -3.208  -2.318  25.059  0.00  0.00    +0.003 A 
ATOM     21  C   UNL     1      -3.470  -1.608  25.388  0.00  0.00    +0.016 A 
ENDBRANCH  15  16
ENDBRANCH  14  15
TORSDOF 4
ENDMDL
MODEL 2
REMARK VINA RESULT:      -9.5      0.670      4.847
REMARK  Name = 
REMARK  4 active torsions:
REMARK  status: ('A' for Active; 'I' for Inactive)
REMARK    1  A    between atoms: C_6  and  C_7
REMARK    2  A    between atoms: C_7  and  N_8
REMARK    3  A    between atoms: N_14  and  C_15
REMARK    4  A    between atoms: C_15  and  C_16
REMARK                            x       y       z     vdW  Elec       q    Type
REMARK                         _______ _______ _______ _____ _____    ______ ____
ROOT
ATOM      8  N   UNL     1      -3.906  -0.036  25.180  0.00  0.00    -0.263 NA
ATOM      9  C   UNL     1      -4.662   0.295  25.176  0.00  0.00    +0.094 C 
ATOM     10  C   UNL     1      -4.764   1.086  24.964  0.00  0.00    +0.112 C 
ATOM     11  N   UNL     1      -4.111   1.546  24.758  0.00  0.00    -0.261 N 
ATOM     12  C   UNL     1      -3.356   1.215  24.762  0.00  0.00    +0.113 C 
ATOM     13  C   UNL     1      -2.820   1.799  24.534  0.00  0.00    +0.117 C 
ATOM     14  N   UNL     1      -3.244   2.491  24.389  0.00  0.00    -0.257 N 
ATOM     22  C   UNL     1      -4.042   2.334  24.527  0.00  0.00    +0.308 C 
ATOM     23  O   UNL     1      -4.663   2.872  24.448  0.00  0.00    -0.252 OA
ATOM     24  C   UNL     1      -3.253   0.423  24.974  0.00  0.00    +0.094 C 
ENDROOT
BRANCH   8   7
ATOM      7  C   UNL     1      -3.803  -0.827  25.392  0.00  0.00    +0.137 C 
BRANCH   7   6
ATOM      1  C   UNL     1      -3.147  -2.493  25.503  0.00  0.00    +0.132 C 
ATOM      2  N   UNL     1      -3.585  -2.186  24.875  0.00  0.00    -0.311 N 
ATOM      3  C   UNL     1      -3.797  -2.590  24.188  0.00  0.00    +0.098 A 
ATOM      4  C   UNL     1      -4.231  -2.073  23.712  0.00  0.00    +0.119 A 
ATOM      5  N   UNL     1      -4.285  -1.350  24.105  0.00  0.00    -0.228 NA
ATOM      6  C   UNL     1      -3.887  -1.419  24.824  0.00  0.00    +0.137 A 
ENDBRANCH   7   6
ENDBRANCH   8   7
BRANCH  14  15
ATOM     15  C   UNL     1      -2.926   3.213  24.147  0.00  0.00    +0.141 C 
BRANCH  15  16
ATOM     16  C   UNL     1      -2.254   3.513  24.519  0.00  0.00    +0.079 A 
ATOM     17  N   UNL     1      -1.504   3.276  24.270  0.00  0.00    -0.246 NA
ATOM     18  C   UNL     1      -0.832   3.577  24.642  0.00  0.00    +0.099 A 
ATOM     19  C   UNL     1      -0.909   4.114  25.263  0.00  0.00    +0.021 A 
ATOM     20  C   UNL     1      -1.659   4.351  25.512  0.00  0.00    +0.003 A 
ATOM     21  C   UNL     1      -2.331   4.051  25.140  0.00  0.00    +0.016 A 
ENDBRANCH  15  16
ENDBRANCH  14  15
TORSDOF 4
ENDMDL
MODEL 3
REMARK VINA RESULT:      -9.2      2.298      3.834
REMARK  Name = 
REMARK  4 active torsions:
REMARK  status: ('A' for Active; 'I' for Inactive)
REMARK    1  A    between atoms: C_6  and  C_7
REMARK    2  A    between atoms: C_7  and  N_8
REMARK    3  A    between atoms: N_14  and  C_15
REMARK    4  A    between atoms: C_15  and  C_16
REMARK                            x       y       z     vdW  Elec       q    Type
REMARK                         _______ _______ _______ _____ _____    ______ ____
ROOT
ATOM      8  N   UNL     1      -1.122   1.296  25.140  0.00  0.00    -0.263 NA
ATOM      9  C   UNL     1      -0.791   2.045  25.238  0.00  0.00    +0.094 C 
ATOM     10  C   UNL     1      -1.264   2.717  25.171  0.00  0.00    +0.112 C 
ATOM     11  N   UNL     1      -2.069   2.640  25.007  0.00  0.00    -0.261 N 
ATOM     12  C   UNL     1      -2.401   1.891  24.909  0.00  0.00    +0.113 C 
ATOM     13  C   UNL     1      -3.204   1.986  24.753  0.00  0.00    +0.117 C 
ATOM     14  N   UNL     1      -3.370   2.794  24.753  0.00  0.00    -0.257 N 
ATOM     22  C   UNL     1      -2.669   3.198  24.910  0.00  0.00    +0.308 C 
ATOM     23  O   UNL     1      -2.581   4.017  24.961  0.00  0.00    -0.252 OA
ATOM     24  C   UNL     1      -1.927   1.218  24.976  0.00  0.00    +0.094 C 
ENDROOT
BRANCH   8   7
ATOM      7  C   UNL     1      -0.649   0.623  25.207  0.00  0.00    +0.137 C 
BRANCH   7   6
ATOM      1  C   UNL     1      -0.485  -1.131  24.863  0.00  0.00    +0.132 C 
ATOM      2  N   UNL     1      -0.232  -0.515  24.375  0.00  0.00    -0.311 N 
ATOM      3  C   UNL     1       0.142  -0.598  23.644  0.00  0.00    +0.098 A 
ATOM      4  C   UNL     1       0.297   0.158  23.351  0.00  0.00    +0.119 A 
ATOM      5  N   UNL     1       0.020   0.707  23.901  0.00  0.00    -0.228 NA
ATOM      6  C   UNL     1      -0.307   0.291  24.534  0.00  0.00    +0.137 A 
ENDBRANCH   7   6
ENDBRANCH   8   7
BRANCH  14  15
ATOM     15  C   UNL     1      -4.108   3.138  24.620  0.00  0.00    +0.141 C 
BRANCH  15  16
ATOM     16  C   UNL     1      -4.784   2.813  24.965  0.00  0.00    +0.079 A 
ATOM     17  N   UNL     1      -5.013   3.046  25.723  0.00  0.00    -0.246 NA
ATOM     18  C   UNL     1      -5.688   2.720  26.067  0.00  0.00    +0.099 A 
ATOM     19  C   UNL     1      -6.135   2.163  25.654  0.00  0.00    +0.021 A 
ATOM     20  C   UNL     1      -5.906   1.931  24.896  0.00  0.00    +0.003 A 
ATOM     21  C   UNL     1      -5.230   2.256  24.551  0.00  0.00    +0.016 A 
ENDBRANCH  15  16
ENDBRANCH  14  15
TORSDOF 4
ENDMDL
MODEL 4
REMARK VINA RESULT:      -9.0      1.699      2.211
REMARK  Name = 
REMARK  4 active torsions:
REMARK  status: ('A' for Active; 'I' for Inactive)
REMARK    1  A    between atoms: C_6  and  C_7
REMARK    2  A    between atoms: C_7  and  N_8
REMARK    3  A    between atoms: N_14  and  C_15
REMARK    4  A    between atoms: C_15  and  C_16
REMARK                            x       y       z     vdW  Elec       q    Type
REMARK                         _______ _______ _______ _____ _____    ______ ____
ROOT
ATOM      8  N   UNL     1      -1.977   2.056  24.178  0.00  0.00    -0.263 NA
ATOM      9  C   UNL     1      -1.194   1.978  23.931  0.00  0.00    +0.094 C 
ATOM     10  C   UNL     1      -0.805   1.256  24.016  0.00  0.00    +0.112 C 
ATOM     11  N   UNL     1      -1.199   0.611  24.348  0.00  0.00    -0.261 N 
ATOM     12  C   UNL     1      -1.982   0.689  24.594  0.00  0.00    +0.113 C 
ATOM     13  C   UNL     1      -2.227  -0.037  24.899  0.00  0.00    +0.117 C 
ATOM     14  N   UNL     1      -1.595  -0.564  24.841  0.00  0.00    -0.257 N 
ATOM     22  C   UNL     1      -0.960  -0.163  24.500  0.00  0.00    +0.308 C 
ATOM     23  O   UNL     1      -0.215  -0.481  24.339  0.00  0.00    -0.252 OA
ATOM     24  C   UNL     1      -2.372   1.412  24.510  0.00  0.00    +0.094 C 
ENDROOT
BRANCH   8   7
ATOM      7  C   UNL     1      -2.367   2.779  24.093  0.00  0.00    +0.137 C 
BRANCH   7   6
ATOM      1  C   UNL     1      -3.745   3.840  24.536  0.00  0.00    +0.132 C 
ATOM      2  N   UNL     1      -3.018   3.802  24.925  0.00  0.00    -0.311 N 
ATOM      3  C   UNL     1      -2.796   4.244  25.585  0.00  0.00    +0.098 A 
ATOM      4  C   UNL     1      -2.026   4.030  25.789  0.00  0.00    +0.119 A 
ATOM      5  N   UNL     1      -1.772   3.454  25.255  0.00  0.00    -0.228 NA
ATOM      6  C   UNL     1      -2.384   3.313  24.721  0.00  0.00    +0.137 A 
ENDBRANCH   7   6
ENDBRANCH   8   7
BRANCH  14  15
ATOM     15  C   UNL     1      -1.597  -1.353  25.081  0.00  0.00    +0.141 C 
BRANCH  15  16
ATOM     16  C   UNL     1      -2.256  -1.828  24.933  0.00  0.00    +0.079 A 
ATOM     17  N   UNL     1      -2.303  -2.261  24.233  0.00  0.00    -0.246 NA
ATOM     18  C   UNL     1      -2.962  -2.736  24.086  0.00  0.00    +0.099 A 
ATOM     19  C   UNL     1      -3.573  -2.777  24.639  0.00  0.00    +0.021 A 
ATOM     20  C   UNL     1      -3.525  -2.343  25.339  0.00  0.00    +0.003 A 
ATOM     21  C   UNL     1      -2.867  -1.869  25.487  0.00  0.00    +0.016 A 
ENDBRANCH  15  16
ENDBRANCH  14  15
TORSDOF 4
ENDMDL
MODEL 5
REMARK VINA RESULT:      -9.0      1.959      5.190
REMARK  Name = 
REMARK  4 active torsions:
REMARK  status: ('A' for Active; 'I' for Inactive)
REMARK    1  A    between atoms: C_6  and  C_7
REMARK    2  A    between atoms: C_7  and  N_8
REMARK    3  A    between atoms: N_14  and  C_15
REMARK    4  A    between atoms: C_15  and  C_16
REMARK                            x       y       z     vdW  Elec       q    Type
REMARK                         _______ _______ _______ _____ _____    ______ ____
ROOT
ATOM      8  N   UNL     1      -1.704  -0.616  24.967  0.00  0.00    -0.263 NA
ATOM      9  C   UNL     1      -1.113  -0.674  24.395  0.00  0.00    +0.094 C 
ATOM     10  C   UNL     1      -0.589  -0.048  24.279  0.00  0.00    +0.112 C 
ATOM     11  N   UNL     1      -0.656   0.637  24.734  0.00  0.00    -0.261 N 
ATOM     12  C   UNL     1      -1.248   0.695  25.306  0.00  0.00    +0.113 C 
ATOM     13  C   UNL     1      -1.180   1.433  25.669  0.00  0.00    +0.117 C 
ATOM     14  N   UNL     1      -0.547   1.831  25.322  0.00  0.00    -0.257 N 
ATOM     22  C   UNL     1      -0.224   1.339  24.744  0.00  0.00    +0.308 C 
ATOM     23  O   UNL     1       0.421   1.517  24.260  0.00  0.00    -0.252 OA
ATOM     24  C   UNL     1      -1.772   0.068  25.423  0.00  0.00    +0.094 C 
ENDROOT
BRANCH   8   7
ATOM      7  C   UNL     1      -2.229  -1.243  25.084  0.00  0.00    +0.137 C 
BRANCH   7   6
ATOM      1  C   UNL     1      -3.268  -2.688  24.862  0.00  0.00    +0.132 C 
ATOM      2  N   UNL     1      -3.416  -1.934  24.562  0.00  0.00    -0.311 N 
ATOM      3  C   UNL     1      -4.068  -1.713  24.108  0.00  0.00    +0.098 A 
ATOM      4  C   UNL     1      -3.993  -0.910  23.930  0.00  0.00    +0.119 A 
ATOM      5  N   UNL     1      -3.295  -0.637  24.274  0.00  0.00    -0.228 NA
ATOM      6  C   UNL     1      -2.939  -1.269  24.664  0.00  0.00    +0.137 A 
ENDBRANCH   7   6
ENDBRANCH   8   7
BRANCH  14  15
ATOM     15  C   UNL     1      -0.283   2.587  25.518  0.00  0.00    +0.141 C 
BRANCH  15  16
ATOM     16  C   UNL     1      -0.801   3.228  25.477  0.00  0.00    +0.079 A 
ATOM     17  N   UNL     1      -1.423   3.292  26.015  0.00  0.00    -0.246 NA
ATOM     18  C   UNL     1      -1.940   3.934  25.973  0.00  0.00    +0.099 A 
ATOM     19  C   UNL     1      -1.836   4.511  25.394  0.00  0.00    +0.021 A 
ATOM     20  C   UNL     1      -1.214   4.447  24.856  0.00  0.00    +0.003 A 
ATOM     21  C   UNL     1      -0.696   3.806  24.896  0.00  0.00    +0.016 A 
ENDBRANCH  15  16
ENDBRANCH  14  15
TORSDOF 4
ENDMDL
