MODEL 1
REMARK VINA RESULT:     -17.0      0.000      0.000
REMARK  Name = 
REMARK  4 active torsions:
REMARK  status: ('A' for Active; 'I' for Inactive)
REMARK    1  A    between atoms: C_2  and  C_4
REMARK    2  A    between atoms: C_7  and  N_8
REMARK    3  A    between atoms: C_20  and  N_21
REMARK    4  A    between atoms: C_22  and  C_24
REMARK                            x       y       z     vdW  Elec       q    Type
REMARK                         _______ _______ _______ _____ _____    ______ ____
ROOT
ATOM      8  N   UNL     1      -2.208  -0.279  24.582  0.00  0.00    -0.162 NA
ATOM      9  C   UNL     1      -1.673  -0.908  24.613  0.00  0.00    +0.327 C 
ATOM     10  O   UNL     1      -0.864  -0.759  24.668  0.00  0.00    -0.250 OA
ATOM     11  N   UNL     1      -1.949  -1.685  24.589  0.00  0.00    -0.262 N 
ATOM     12  C   UNL     1      -1.926  -2.520  24.585  0.00  0.00    +0.097 C 
ATOM     13  C   UNL     1      -2.893  -2.713  24.519  0.00  0.00    +0.043 C 
ATOM     14  C   UNL     1      -3.639  -3.034  24.467  0.00  0.00    +0.011 C 
ATOM     15  C   UNL     1      -3.350  -2.395  24.491  0.00  0.00    +0.058 C 
ATOM     16  C   UNL     1      -2.412  -2.225  24.555  0.00  0.00    +0.101 C 
ATOM     17  C   UNL     1      -3.571  -1.503  24.483  0.00  0.00    +0.041 A 
ATOM     18  C   UNL     1      -4.228  -1.006  24.443  0.00  0.00    +0.014 A 
ATOM     19  C   UNL     1      -4.127  -0.187  24.455  0.00  0.00    +0.023 A 
ATOM     20  C   UNL     1      -3.369   0.134  24.508  0.00  0.00    +0.130 A 
ATOM     31  C   UNL     1      -2.712  -0.363  24.548  0.00  0.00    +0.276 A 
ATOM     32  O   UNL     1      -2.288   0.344  24.581  0.00  0.00    -0.266 OA
ATOM     33  N   UNL     1      -2.813  -1.181  24.535  0.00  0.00    -0.298 N 
ATOM     34  C   UNL     1      -3.113  -1.779  24.511  0.00  0.00    +0.110 C 
ENDROOT
BRANCH   8   7
ATOM      4  C   UNL     1      -1.380   2.052  24.655  0.00  0.00    +0.035 A 
ATOM      5  C   UNL     1      -1.556   1.655  25.356  0.00  0.00    +0.004 A 
ATOM      6  C   UNL     1      -1.832   0.877  25.332  0.00  0.00    +0.017 A 
ATOM      7  C   UNL     1      -1.932   0.497  24.606  0.00  0.00    +0.075 A 
ATOM     35  C   UNL     1      -1.756   0.895  23.905  0.00  0.00    +0.017 A 
ATOM     36  C   UNL     1      -1.480   1.672  23.929  0.00  0.00    +0.004 A 
BRANCH   4   2
ATOM      1  C   UNL     1      -0.924   3.180  25.404  0.00  0.00    +0.077 C 
ATOM      2  C   UNL     1      -1.104   2.829  24.680  0.00  0.00    +0.173 C 
ATOM      3  O   UNL     1      -1.008   3.254  23.980  0.00  0.00    -0.291 OA
ENDBRANCH   4   2
ENDBRANCH   8   7
BRANCH  20  21
ATOM     21  N   UNL     1      -3.269   0.953  24.520  0.00  0.00    -0.171 NA
ATOM     22  C   UNL     1      -3.926   1.450  24.487  0.00  0.00    +0.269 C 
ATOM     23  O   UNL     1      -4.685   1.128  24.440  0.00  0.00    -0.268 OA
BRANCH  22  24
ATOM     24  C   UNL     1      -3.825   2.269  24.499  0.00  0.00    +0.056 A 
ATOM     25  C   UNL     1      -3.732   2.683  23.792  0.00  0.00    +0.007 A 
ATOM     26  C   UNL     1      -3.631   3.503  23.804  0.00  0.00    +0.030 A 
ATOM     27  C   UNL     1      -3.624   3.906  24.524  0.00  0.00    +0.140 A 
ATOM     28  F   UNL     1      -3.524   4.725  24.536  0.00  0.00    -0.204 F 
ATOM     29  C   UNL     1      -3.718   3.492  25.230  0.00  0.00    +0.030 A 
ATOM     30  C   UNL     1      -3.818   2.673  25.218  0.00  0.00    +0.007 A 
ENDBRANCH  22  24
ENDBRANCH  20  21
TORSDOF 4
ENDMDL
MODEL 2
REMARK VINA RESULT:     -16.9      1.759      4.321
REMARK  Name = 
REMARK  4 active torsions:
REMARK  status: ('A' for Active; 'I' for Inactive)
REMARK    1  A    between atoms: C_2  and  C_4
REMARK    2  A    between atoms: C_7  and  N_8
REMARK    3  A    between atoms: C_20  and  N_21
REMARK    4  A    between atoms: C_22  and  C_24
REMARK                            x       y       z     vdW  Elec       q    Type
REMARK                         _______ _______ _______ _____ _____    ______ ____
ROOT
ATOM      8  N   UNL     1      -1.369   1.959  25.010  0.00  0.00    -0.162 NA
ATOM      9  C   UNL     1      -0.697   2.438  25.050  0.00  0.00    +0.327 C 
ATOM     10  O   UNL     1       0.054   2.098  25.020  0.00  0.00    -0.250 OA
ATOM     11  N   UNL     1      -0.778   3.256  25.120  0.00  0.00    -0.262 N 
ATOM     12  C   UNL     1      -0.553   4.058  25.188  0.00  0.00    +0.097 C 
ATOM     13  C   UNL     1      -1.447   4.477  25.225  0.00  0.00    +0.043 C 
ATOM     14  C   UNL     1      -2.096   4.968  25.268  0.00  0.00    +0.011 C 
ATOM     15  C   UNL     1      -1.969   4.280  25.209  0.00  0.00    +0.058 C 
ATOM     16  C   UNL     1      -1.098   3.890  25.175  0.00  0.00    +0.101 C 
ATOM     17  C   UNL     1      -2.399   3.471  25.140  0.00  0.00    +0.041 A 
ATOM     18  C   UNL     1      -3.158   3.149  25.114  0.00  0.00    +0.014 A 
ATOM     19  C   UNL     1      -3.257   2.333  25.044  0.00  0.00    +0.023 A 
ATOM     20  C   UNL     1      -2.597   1.839  25.001  0.00  0.00    +0.130 A 
ATOM     31  C   UNL     1      -1.839   2.161  25.028  0.00  0.00    +0.276 A 
ATOM     32  O   UNL     1      -1.597   1.376  24.960  0.00  0.00    -0.266 OA
ATOM     33  N   UNL     1      -1.739   2.977  25.097  0.00  0.00    -0.298 N 
ATOM     34  C   UNL     1      -1.888   3.627  25.153  0.00  0.00    +0.110 C 
ENDROOT
BRANCH   8   7
ATOM      4  C   UNL     1      -1.126  -0.495  24.798  0.00  0.00    +0.035 A 
ATOM      5  C   UNL     1      -1.165  -0.024  24.121  0.00  0.00    +0.004 A 
ATOM      6  C   UNL     1      -1.246   0.794  24.192  0.00  0.00    +0.017 A 
ATOM      7  C   UNL     1      -1.288   1.141  24.940  0.00  0.00    +0.075 A 
ATOM     35  C   UNL     1      -1.249   0.670  25.615  0.00  0.00    +0.017 A 
ATOM     36  C   UNL     1      -1.168  -0.147  25.545  0.00  0.00    +0.004 A 
BRANCH   4   2
ATOM      1  C   UNL     1      -0.878  -1.770  25.393  0.00  0.00    +0.077 C 
ATOM      2  C   UNL     1      -1.045  -1.313  24.727  0.00  0.00    +0.173 C 
ATOM      3  O   UNL     1      -1.132  -1.673  23.990  0.00  0.00    -0.291 OA
ENDBRANCH   4   2
ENDBRANCH   8   7
BRANCH  20  21
ATOM     21  N   UNL     1      -2.698   1.024  24.931  0.00  0.00    -0.171 NA
ATOM     22  C   UNL     1      -3.457   0.701  24.908  0.00  0.00    +0.269 C 
ATOM     23  O   UNL     1      -4.116   1.195  24.954  0.00  0.00    -0.268 OA
BRANCH  22  24
ATOM     24  C   UNL     1      -3.556  -0.115  24.838  0.00  0.00    +0.056 A 
ATOM     25  C   UNL     1      -3.635  -0.458  24.092  0.00  0.00    +0.007 A 
ATOM     26  C   UNL     1      -3.735  -1.275  24.022  0.00  0.00    +0.030 A 
ATOM     27  C   UNL     1      -3.756  -1.747  24.699  0.00  0.00    +0.140 A 
ATOM     28  F   UNL     1      -3.856  -2.563  24.629  0.00  0.00    -0.204 F 
ATOM     29  C   UNL     1      -3.677  -1.403  25.444  0.00  0.00    +0.030 A 
ATOM     30  C   UNL     1      -3.578  -0.587  25.514  0.00  0.00    +0.007 A 
ENDBRANCH  22  24
ENDBRANCH  20  21
TORSDOF 4
ENDMDL
MODEL 3
REMARK VINA RESULT:     -16.8      0.949      2.197
REMARK  Name = 
REMARK  4 active torsions:
REMARK  status: ('A' for Active; 'I' for Inactive)
REMARK    1  A    between atoms: C_2  and  C_4
REMARK    2  A    between atoms: C_7  and  N_8
REMARK    3  A    between atoms: C_20  and  N_21
REMARK    4  A    between atoms: C_22  and  C_24
REMARK                            x       y       z     vdW  Elec       q    Type
REMARK                         _______ _______ _______ _____ _____    ______ ____
ROOT
ATOM      8  N   UNL     1      -3.401   0.196  24.494  0.00  0.00    -0.162 NA
ATOM      9  C   UNL     1      -4.002  -0.329  24.283  0.00  0.00    +0.327 C 
ATOM     10  O   UNL     1      -4.742  -0.041  24.061  0.00  0.00    -0.250 OA
ATOM     11  N   UNL     1      -3.863  -1.143  24.294  0.00  0.00    -0.262 N 
ATOM     12  C   UNL     1      -4.014  -1.960  24.213  0.00  0.00    +0.097 C 
ATOM     13  C   UNL     1      -3.132  -2.319  24.476  0.00  0.00    +0.043 C 
ATOM     14  C   UNL     1      -2.477  -2.766  24.665  0.00  0.00    +0.011 C 
ATOM     15  C   UNL     1      -2.651  -2.086  24.637  0.00  0.00    +0.058 C 
ATOM     16  C   UNL     1      -3.509  -1.755  24.380  0.00  0.00    +0.101 C 
ATOM     17  C   UNL     1      -2.305  -1.247  24.780  0.00  0.00    +0.041 A 
ATOM     18  C   UNL     1      -1.608  -0.873  25.015  0.00  0.00    +0.014 A 
ATOM     19  C   UNL     1      -1.577  -0.050  25.058  0.00  0.00    +0.023 A 
ATOM     20  C   UNL     1      -2.242   0.399  24.867  0.00  0.00    +0.130 A 
ATOM     31  C   UNL     1      -2.938   0.025  24.632  0.00  0.00    +0.276 A 
ATOM     32  O   UNL     1      -3.229   0.795  24.572  0.00  0.00    -0.266 OA
ATOM     33  N   UNL     1      -2.970  -0.798  24.589  0.00  0.00    -0.298 N 
ATOM     34  C   UNL     1      -2.779  -1.438  24.623  0.00  0.00    +0.110 C 
ENDROOT
BRANCH   8   7
ATOM      4  C   UNL     1      -3.821   2.634  24.462  0.00  0.00    +0.035 A 
ATOM      5  C   UNL     1      -3.979   2.198  25.143  0.00  0.00    +0.004 A 
ATOM      6  C   UNL     1      -3.839   1.384  25.154  0.00  0.00    +0.017 A 
ATOM      7  C   UNL     1      -3.540   1.008  24.482  0.00  0.00    +0.075 A 
ATOM     35  C   UNL     1      -3.383   1.446  23.801  0.00  0.00    +0.017 A 
ATOM     36  C   UNL     1      -3.522   2.258  23.790  0.00  0.00    +0.004 A 
BRANCH   4   2
ATOM      1  C   UNL     1      -4.337   3.809  25.090  0.00  0.00    +0.077 C 
ATOM      2  C   UNL     1      -3.961   3.448  24.451  0.00  0.00    +0.173 C 
ATOM      3  O   UNL     1      -3.725   3.898  23.802  0.00  0.00    -0.291 OA
ENDBRANCH   4   2
ENDBRANCH   8   7
BRANCH  20  21
ATOM     21  N   UNL     1      -2.209   1.222  24.911  0.00  0.00    -0.171 NA
ATOM     22  C   UNL     1      -1.513   1.596  25.147  0.00  0.00    +0.269 C 
ATOM     23  O   UNL     1      -0.848   1.146  25.340  0.00  0.00    -0.268 OA
BRANCH  22  24
ATOM     24  C   UNL     1      -1.481   2.420  25.190  0.00  0.00    +0.056 A 
ATOM     25  C   UNL     1      -1.236   2.857  24.535  0.00  0.00    +0.007 A 
ATOM     26  C   UNL     1      -1.204   3.681  24.579  0.00  0.00    +0.030 A 
ATOM     27  C   UNL     1      -1.417   4.066  25.277  0.00  0.00    +0.140 A 
ATOM     28  F   UNL     1      -1.385   4.889  25.320  0.00  0.00    -0.204 F 
ATOM     29  C   UNL     1      -1.662   3.628  25.931  0.00  0.00    +0.030 A 
ATOM     30  C   UNL     1      -1.694   2.805  25.888  0.00  0.00    +0.007 A 
ENDBRANCH  22  24
ENDBRANCH  20  21
TORSDOF 4
ENDMDL
MODEL 4
REMARK VINA RESULT:     -16.5      1.767      4.679
REMARK  Name = 
REMARK  4 active torsions:
REMARK  status: ('A' for Active; 'I' for Inactive)
REMARK    1  A    between atoms: C_2  and  C_4
REMARK    2  A    between atoms: C_7  and  N_8
REMARK    3  A    between atoms: C_20  and  N_21
REMARK    4  A    between atoms: C_22  and  C_24
REMARK                            x       y       z     vdW  Elec       q    Type
REMARK                         _______ _______ _______ _____ _____    ______ ____
ROOT
ATOM      8  N   UNL     1      -4.162   1.104  24.959  0.00  0.00    -0.162 NA
ATOM      9  C   UNL     1      -4.937   1.387  24.946  0.00  0.00    +0.327 C 
ATOM     10  O   UNL     1      -5.568   0.858  24.903  0.00  0.00    -0.250 OA
ATOM     11  N   UNL     1      -5.081   2.199  24.977  0.00  0.00    -0.262 N 
ATOM     12  C   UNL     1      -5.513   2.913  24.994  0.00  0.00    +0.097 C 
ATOM     13  C   UNL     1      -4.766   3.558  25.046  0.00  0.00    +0.043 C 
ATOM     14  C   UNL     1      -4.274   4.205  25.090  0.00  0.00    +0.011 C 
ATOM     15  C   UNL     1      -4.211   3.507  25.061  0.00  0.00    +0.058 C 
ATOM     16  C   UNL     1      -4.944   2.897  25.012  0.00  0.00    +0.101 C 
ATOM     17  C   UNL     1      -3.578   2.840  25.053  0.00  0.00    +0.041 A 
ATOM     18  C   UNL     1      -2.761   2.732  25.074  0.00  0.00    +0.014 A 
ATOM     19  C   UNL     1      -2.445   1.970  25.051  0.00  0.00    +0.023 A 
ATOM     20  C   UNL     1      -2.947   1.317  25.007  0.00  0.00    +0.130 A 
ATOM     31  C   UNL     1      -3.764   1.425  24.986  0.00  0.00    +0.276 A 
ATOM     32  O   UNL     1      -3.785   0.601  24.949  0.00  0.00    -0.266 OA
ATOM     33  N   UNL     1      -4.080   2.186  25.008  0.00  0.00    -0.298 N 
ATOM     34  C   UNL     1      -4.113   2.854  25.036  0.00  0.00    +0.110 C 
ENDROOT
BRANCH   8   7
ATOM      4  C   UNL     1      -3.733  -1.332  24.865  0.00  0.00    +0.035 A 
ATOM      5  C   UNL     1      -3.792  -0.897  24.167  0.00  0.00    +0.004 A 
ATOM      6  C   UNL     1      -3.935  -0.084  24.198  0.00  0.00    +0.017 A 
ATOM      7  C   UNL     1      -4.019   0.292  24.928  0.00  0.00    +0.075 A 
ATOM     35  C   UNL     1      -3.960  -0.144  25.626  0.00  0.00    +0.017 A 
ATOM     36  C   UNL     1      -3.817  -0.955  25.595  0.00  0.00    +0.004 A 
BRANCH   4   2
ATOM      1  C   UNL     1      -3.606  -2.538  24.110  0.00  0.00    +0.077 C 
ATOM      2  C   UNL     1      -3.590  -2.144  24.834  0.00  0.00    +0.173 C 
ATOM      3  O   UNL     1      -3.431  -2.561  25.527  0.00  0.00    -0.291 OA
ENDBRANCH   4   2
ENDBRANCH   8   7
BRANCH  20  21
ATOM     21  N   UNL     1      -2.630   0.556  24.984  0.00  0.00    -0.171 NA
ATOM     22  C   UNL     1      -1.813   0.447  25.019  0.00  0.00    +0.269 C 
ATOM     23  O   UNL     1      -1.312   1.100  25.077  0.00  0.00    -0.268 OA
BRANCH  22  24
ATOM     24  C   UNL     1      -1.497  -0.315  24.996  0.00  0.00    +0.056 A 
ATOM     25  C   UNL     1      -1.360  -0.726  25.699  0.00  0.00    +0.007 A 
ATOM     26  C   UNL     1      -1.043  -1.488  25.676  0.00  0.00    +0.030 A 
ATOM     27  C   UNL     1      -0.864  -1.838  24.950  0.00  0.00    +0.140 A 
ATOM     28  F   UNL     1      -0.548  -2.600  24.928  0.00  0.00    -0.204 F 
ATOM     29  C   UNL     1      -1.001  -1.428  24.249  0.00  0.00    +0.030 A 
ATOM     30  C   UNL     1      -1.318  -0.666  24.271  0.00  0.00    +0.007 A 
ENDBRANCH  22  24
ENDBRANCH  20  21
TORSDOF 4
ENDMDL
MODEL 5
REMARK VINA RESULT:     -15.1      1.893      4.867
REMARK  Name = 
REMARK  4 active torsions:
REMARK  status: ('A' for Active; 'I' for Inactive)
REMARK    1  A    between atoms: C_2  and  C_4
REMARK    2  A    between atoms: C_7  and  N_8
REMARK    3  A    between atoms: C_20  and  N_21
REMARK    4  A    between atoms: C_22  and  C_24
REMARK                            x       y       z     vdW  Elec       q    Type
REMARK                         _______ _______ _______ _____ _____    ______ ____
ROOT
ATOM      8  N   UNL     1      -2.917   3.407  24.985  0.00  0.00    -0.162 NA
ATOM      9  C   UNL     1      -2.968   4.219  25.128  0.00  0.00    +0.327 C 
ATOM     10  O   UNL     1      -3.702   4.567  25.273  0.00  0.00    -0.250 OA
ATOM     11  N   UNL     1      -2.285   4.682  25.127  0.00  0.00    -0.262 N 
ATOM     12  C   UNL     1      -1.806   5.364  25.185  0.00  0.00    +0.097 C 
ATOM     13  C   UNL     1      -0.921   4.959  25.014  0.00  0.00    +0.043 C 
ATOM     14  C   UNL     1      -0.134   4.785  24.893  0.00  0.00    +0.011 C 
ATOM     15  C   UNL     1      -0.746   4.441  24.906  0.00  0.00    +0.058 C 
ATOM     16  C   UNL     1      -1.594   4.846  25.074  0.00  0.00    +0.101 C 
ATOM     17  C   UNL     1      -1.102   3.599  24.806  0.00  0.00    +0.041 A 
ATOM     18  C   UNL     1      -0.875   2.822  24.648  0.00  0.00    +0.014 A 
ATOM     19  C   UNL     1      -1.443   2.226  24.614  0.00  0.00    +0.023 A 
ATOM     20  C   UNL     1      -2.239   2.406  24.737  0.00  0.00    +0.130 A 
ATOM     31  C   UNL     1      -2.466   3.183  24.895  0.00  0.00    +0.276 A 
ATOM     32  O   UNL     1      -3.225   2.863  24.930  0.00  0.00    -0.266 OA
ATOM     33  N   UNL     1      -1.898   3.780  24.929  0.00  0.00    -0.298 N 
ATOM     34  C   UNL     1      -1.302   4.084  24.911  0.00  0.00    +0.110 C 
ENDROOT
BRANCH   8   7
ATOM      4  C   UNL     1      -4.966   2.020  24.993  0.00  0.00    +0.035 A 
ATOM      5  C   UNL     1      -4.550   2.143  25.694  0.00  0.00    +0.004 A 
ATOM      6  C   UNL     1      -3.866   2.606  25.691  0.00  0.00    +0.017 A 
ATOM      7  C   UNL     1      -3.600   2.945  24.987  0.00  0.00    +0.075 A 
ATOM     35  C   UNL     1      -4.017   2.821  24.287  0.00  0.00    +0.017 A 
ATOM     36  C   UNL     1      -4.700   2.359  24.289  0.00  0.00    +0.004 A 
BRANCH   4   2
ATOM      1  C   UNL     1      -5.971   1.301  25.710  0.00  0.00    +0.077 C 
ATOM      2  C   UNL     1      -5.650   1.557  24.995  0.00  0.00    +0.173 C 
ATOM      3  O   UNL     1      -6.011   1.352  24.283  0.00  0.00    -0.291 OA
ENDBRANCH   4   2
ENDBRANCH   8   7
BRANCH  20  21
ATOM     21  N   UNL     1      -2.807   1.809  24.703  0.00  0.00    -0.171 NA
ATOM     22  C   UNL     1      -2.579   1.031  24.549  0.00  0.00    +0.269 C 
ATOM     23  O   UNL     1      -1.783   0.850  24.429  0.00  0.00    -0.268 OA
BRANCH  22  24
ATOM     24  C   UNL     1      -3.148   0.434  24.515  0.00  0.00    +0.056 A 
ATOM     25  C   UNL     1      -3.352   0.020  25.199  0.00  0.00    +0.007 A 
ATOM     26  C   UNL     1      -3.921  -0.578  25.164  0.00  0.00    +0.030 A 
ATOM     27  C   UNL     1      -4.284  -0.760  24.446  0.00  0.00    +0.140 A 
ATOM     28  F   UNL     1      -4.853  -1.357  24.412  0.00  0.00    -0.204 F 
ATOM     29  C   UNL     1      -4.080  -0.346  23.763  0.00  0.00    +0.030 A 
ATOM     30  C   UNL     1      -3.511   0.251  23.797  0.00  0.00    +0.007 A 
ENDBRANCH  22  24
ENDBRANCH  20  21
TORSDOF 4
ENDMDL
MODEL 6
REMARK VINA RESULT:     -14.8      1.848      3.869
REMARK  Name = 
REMARK  4 active torsions:
REMARK  status: ('A' for Active; 'I' for Inactive)
REMARK    1  A    between atoms: C_2  and  C_4
REMARK    2  A    between atoms: C_7  and  N_8
REMARK    3  A    between atoms: C_20  and  N_21
REMARK    4  A    between atoms: C_22  and  C_24
REMARK                            x       y       z     vdW  Elec       q    Type
REMARK                         _______ _______ _______ _____ _____    ______ ____
ROOT
ATOM      8  N   UNL     1      -3.380   1.810  24.674  0.00  0.00    -0.162 NA
ATOM      9  C   UNL     1      -3.677   2.566  24.526  0.00  0.00    +0.327 C 
ATOM     10  O   UNL     1      -3.173   3.161  24.258  0.00  0.00    -0.250 OA
ATOM     11  N   UNL     1      -4.477   2.726  24.646  0.00  0.00    -0.262 N 
ATOM     12  C   UNL     1      -5.190   3.162  24.672  0.00  0.00    +0.097 C 
ATOM     13  C   UNL     1      -5.804   2.457  24.992  0.00  0.00    +0.043 C 
ATOM     14  C   UNL     1      -6.427   1.999  25.247  0.00  0.00    +0.011 C 
ATOM     15  C   UNL     1      -5.740   1.920  25.128  0.00  0.00    +0.058 C 
ATOM     16  C   UNL     1      -5.159   2.612  24.817  0.00  0.00    +0.101 C 
ATOM     17  C   UNL     1      -5.070   1.292  25.163  0.00  0.00    +0.041 A 
ATOM     18  C   UNL     1      -4.944   0.500  25.356  0.00  0.00    +0.014 A 
ATOM     19  C   UNL     1      -4.189   0.175  25.291  0.00  0.00    +0.023 A 
ATOM     20  C   UNL     1      -3.559   0.642  25.033  0.00  0.00    +0.130 A 
ATOM     31  C   UNL     1      -3.685   1.434  24.840  0.00  0.00    +0.276 A 
ATOM     32  O   UNL     1      -2.877   1.433  24.675  0.00  0.00    -0.266 OA
ATOM     33  N   UNL     1      -4.441   1.759  24.905  0.00  0.00    -0.298 N 
ATOM     34  C   UNL     1      -5.097   1.808  25.026  0.00  0.00    +0.110 C 
ENDROOT
BRANCH   8   7
ATOM      4  C   UNL     1      -0.979   1.332  24.311  0.00  0.00    +0.035 A 
ATOM      5  C   UNL     1      -1.518   1.224  23.696  0.00  0.00    +0.004 A 
ATOM      6  C   UNL     1      -2.319   1.384  23.817  0.00  0.00    +0.017 A 
ATOM      7  C   UNL     1      -2.580   1.651  24.553  0.00  0.00    +0.075 A 
ATOM     35  C   UNL     1      -2.040   1.758  25.167  0.00  0.00    +0.017 A 
ATOM     36  C   UNL     1      -1.240   1.598  25.047  0.00  0.00    +0.004 A 
BRANCH   4   2
ATOM      1  C   UNL     1       0.381   1.431  24.738  0.00  0.00    +0.077 C 
ATOM      2  C   UNL     1      -0.178   1.172  24.190  0.00  0.00    +0.173 C 
ATOM      3  O   UNL     1       0.062   0.754  23.521  0.00  0.00    -0.291 OA
ENDBRANCH   4   2
ENDBRANCH   8   7
BRANCH  20  21
ATOM     21  N   UNL     1      -2.804   0.317  24.968  0.00  0.00    -0.171 NA
ATOM     22  C   UNL     1      -2.675  -0.471  25.177  0.00  0.00    +0.269 C 
ATOM     23  O   UNL     1      -3.301  -0.933  25.451  0.00  0.00    -0.268 OA
BRANCH  22  24
ATOM     24  C   UNL     1      -1.919  -0.796  25.111  0.00  0.00    +0.056 A 
ATOM     25  C   UNL     1      -1.687  -1.160  24.408  0.00  0.00    +0.007 A 
ATOM     26  C   UNL     1      -0.930  -1.485  24.343  0.00  0.00    +0.030 A 
ATOM     27  C   UNL     1      -0.409  -1.447  24.981  0.00  0.00    +0.140 A 
ATOM     28  F   UNL     1       0.347  -1.772  24.916  0.00  0.00    -0.204 F 
ATOM     29  C   UNL     1      -0.642  -1.083  25.683  0.00  0.00    +0.030 A 
ATOM     30  C   UNL     1      -1.397  -0.758  25.749  0.00  0.00    +0.007 A 
ENDBRANCH  22  24
ENDBRANCH  20  21
TORSDOF 4
ENDMDL
