MODEL 1
REMARK VINA RESULT:     -13.0      0.000      0.000
REMARK  Name = 
REMARK  6 active torsions:
REMARK  status: ('A' for Active; 'I' for Inactive)
REMARK    1  A    between atoms: C_2  and  C_3
REMARK    2  A    between atoms: C_2  and  C_25
REMARK    3  A    between atoms: C_10  and  N_11
REMARK    4  A    between atoms: C_12  and  C_14
REMARK    5  A    between atoms: N_27  and  C_28
REMARK    6  A    between atoms: C_28  and  C_29
REMARK                            x       y       z     vdW  Elec       q    Type
REMARK                         _______ _______ _______ _____ _____    ______ ____
ROOT
ATOM      3  C   UNL     1      -3.936   3.166  24.598  0.00  0.00    +0.039 C 
ATOM      4  C   UNL     1      -4.560   3.291  25.126  0.00  0.00    +0.003 C 
ATOM      5  C   UNL     1      -5.017   2.655  25.382  0.00  0.00    +0.000 C 
ATOM      6  C   UNL     1      -4.852   1.893  25.112  0.00  0.00    +0.002 C 
ATOM      7  C   UNL     1      -5.474   2.018  25.638  0.00  0.00    +0.000 C 
ATOM      8  C   UNL     1      -5.310   1.256  25.368  0.00  0.00    +0.002 C 
ATOM      9  C   UNL     1      -5.145   0.495  25.098  0.00  0.00    +0.022 C 
ATOM     10  C   UNL     1      -4.521   0.369  24.571  0.00  0.00    +0.096 C 
ATOM     20  C   UNL     1      -4.064   1.006  24.315  0.00  0.00    +0.022 C 
ATOM     21  C   UNL     1      -3.441   0.881  23.788  0.00  0.00    +0.002 C 
ATOM     22  C   UNL     1      -4.229   1.768  24.585  0.00  0.00    +0.032 C 
ATOM     23  C   UNL     1      -3.771   2.404  24.329  0.00  0.00    +0.152 C 
ATOM     24  O   UNL     1      -3.149   2.279  23.802  0.00  0.00    -0.223 OA
ENDROOT
BRANCH  10  11
ATOM     11  N   UNL     1      -4.357  -0.393  24.301  0.00  0.00    -0.202 NA
ATOM     12  C   UNL     1      -4.136  -0.981  24.834  0.00  0.00    +0.282 C 
ATOM     13  O   UNL     1      -4.078  -0.807  25.640  0.00  0.00    -0.267 OA
BRANCH  12  14
ATOM     14  C   UNL     1      -3.971  -1.743  24.565  0.00  0.00    +0.136 A 
ATOM     15  N   UNL     1      -4.355  -2.037  23.897  0.00  0.00    -0.239 NA
ATOM     16  C   UNL     1      -4.191  -2.799  23.627  0.00  0.00    +0.099 A 
ATOM     17  C   UNL     1      -3.641  -3.268  24.026  0.00  0.00    +0.021 A 
ATOM     18  C   UNL     1      -3.256  -2.974  24.695  0.00  0.00    +0.003 A 
ATOM     19  C   UNL     1      -3.421  -2.212  24.963  0.00  0.00    +0.024 A 
ENDBRANCH  12  14
ENDBRANCH  10  11
BRANCH   3   2
ATOM      1  C   UNL     1      -3.626   4.150  23.608  0.00  0.00    +0.010 C 
ATOM      2  C   UNL     1      -3.479   3.803  24.342  0.00  0.00    +0.081 C 
BRANCH   2  25
ATOM     25  C   UNL     1      -2.873   4.094  24.821  0.00  0.00    +0.241 C 
ATOM     26  O   UNL     1      -2.996   4.771  25.277  0.00  0.00    -0.273 OA
ATOM     27  N   UNL     1      -2.144   3.707  24.845  0.00  0.00    -0.201 NA
BRANCH  27  28
ATOM     28  C   UNL     1      -1.538   3.998  25.323  0.00  0.00    +0.143 C 
BRANCH  28  29
ATOM     29  C   UNL     1      -0.902   3.513  25.523  0.00  0.00    +0.019 A 
ATOM     30  C   UNL     1      -0.915   3.083  26.227  0.00  0.00    +0.001 A 
ATOM     31  C   UNL     1      -0.278   2.599  26.426  0.00  0.00    +0.020 A 
ATOM     32  C   UNL     1       0.373   2.544  25.922  0.00  0.00    +0.099 A 
ATOM     33  N   UNL     1       0.386   2.974  25.218  0.00  0.00    -0.243 NA
ATOM     34  C   UNL     1      -0.251   3.459  25.018  0.00  0.00    +0.096 A 
ENDBRANCH  28  29
ENDBRANCH  27  28
ENDBRANCH   2  25
ENDBRANCH   3   2
TORSDOF 6
ENDMDL
MODEL 2
REMARK VINA RESULT:     -11.5      1.459      5.000
REMARK  Name = 
REMARK  6 active torsions:
REMARK  status: ('A' for Active; 'I' for Inactive)
REMARK    1  A    between atoms: C_2  and  C_3
REMARK    2  A    between atoms: C_2  and  C_25
REMARK    3  A    between atoms: C_10  and  N_11
REMARK    4  A    between atoms: C_12  and  C_14
REMARK    5  A    between atoms: N_27  and  C_28
REMARK    6  A    between atoms: C_28  and  C_29
REMARK                            x       y       z     vdW  Elec       q    Type
REMARK                         _______ _______ _______ _____ _____    ______ ____
ROOT
ATOM      3  C   UNL     1      -4.292   0.292  24.523  0.00  0.00    +0.039 C 
ATOM      4  C   UNL     1      -4.971   0.471  24.959  0.00  0.00    +0.003 C 
ATOM      5  C   UNL     1      -5.088   1.235  25.243  0.00  0.00    +0.000 C 
ATOM      6  C   UNL     1      -4.528   1.822  25.094  0.00  0.00    +0.002 C 
ATOM      7  C   UNL     1      -5.205   2.000  25.528  0.00  0.00    +0.000 C 
ATOM      8  C   UNL     1      -4.645   2.587  25.378  0.00  0.00    +0.002 C 
ATOM      9  C   UNL     1      -4.085   3.173  25.229  0.00  0.00    +0.022 C 
ATOM     10  C   UNL     1      -3.406   2.995  24.793  0.00  0.00    +0.096 C 
ATOM     20  C   UNL     1      -3.289   2.230  24.508  0.00  0.00    +0.022 C 
ATOM     21  C   UNL     1      -2.611   2.051  24.074  0.00  0.00    +0.002 C 
ATOM     22  C   UNL     1      -3.849   1.643  24.658  0.00  0.00    +0.032 C 
ATOM     23  C   UNL     1      -3.732   0.878  24.374  0.00  0.00    +0.152 C 
ATOM     24  O   UNL     1      -3.054   0.699  23.939  0.00  0.00    -0.223 OA
ENDROOT
BRANCH  10  11
ATOM     11  N   UNL     1      -2.846   3.582  24.643  0.00  0.00    -0.202 NA
ATOM     12  C   UNL     1      -2.456   3.950  25.270  0.00  0.00    +0.282 C 
ATOM     13  O   UNL     1      -2.626   3.731  26.048  0.00  0.00    -0.267 OA
BRANCH  12  14
ATOM     14  C   UNL     1      -1.896   4.537  25.120  0.00  0.00    +0.136 A 
ATOM     15  N   UNL     1      -1.112   4.331  24.970  0.00  0.00    -0.239 NA
ATOM     16  C   UNL     1      -0.552   4.918  24.820  0.00  0.00    +0.099 A 
ATOM     17  C   UNL     1      -0.777   5.712  24.821  0.00  0.00    +0.021 A 
ATOM     18  C   UNL     1      -1.562   5.918  24.971  0.00  0.00    +0.003 A 
ATOM     19  C   UNL     1      -2.121   5.331  25.121  0.00  0.00    +0.024 A 
ENDBRANCH  12  14
ENDBRANCH  10  11
BRANCH   3   2
ATOM      1  C   UNL     1      -4.408  -0.670  23.472  0.00  0.00    +0.010 C 
ATOM      2  C   UNL     1      -4.175  -0.474  24.239  0.00  0.00    +0.081 C 
BRANCH   2  25
ATOM     25  C   UNL     1      -3.825  -1.044  24.721  0.00  0.00    +0.241 C 
ATOM     26  O   UNL     1      -4.260  -1.391  25.332  0.00  0.00    -0.273 OA
ATOM     27  N   UNL     1      -3.041  -1.268  24.595  0.00  0.00    -0.201 NA
BRANCH  27  28
ATOM     28  C   UNL     1      -2.691  -1.837  25.077  0.00  0.00    +0.143 C 
BRANCH  28  29
ATOM     29  C   UNL     1      -1.872  -1.936  25.073  0.00  0.00    +0.019 A 
ATOM     30  C   UNL     1      -1.396  -1.453  25.544  0.00  0.00    +0.001 A 
ATOM     31  C   UNL     1      -0.577  -1.553  25.539  0.00  0.00    +0.020 A 
ATOM     32  C   UNL     1      -0.234  -2.134  25.064  0.00  0.00    +0.099 A 
ATOM     33  N   UNL     1      -0.710  -2.616  24.594  0.00  0.00    -0.243 NA
ATOM     34  C   UNL     1      -1.530  -2.517  24.598  0.00  0.00    +0.096 A 
ENDBRANCH  28  29
ENDBRANCH  27  28
ENDBRANCH   2  25
ENDBRANCH   3   2
TORSDOF 6
ENDMDL
MODEL 3
REMARK VINA RESULT:     -11.4      3.092      4.930
REMARK  Name = 
REMARK  6 active torsions:
REMARK  status: ('A' for Active; 'I' for Inactive)
REMARK    1  A    between atoms: C_2  and  C_3
REMARK    2  A    between atoms: C_2  and  C_25
REMARK    3  A    between atoms: C_10  and  N_11
REMARK    4  A    between atoms: C_12  and  C_14
REMARK    5  A    between atoms: N_27  and  C_28
REMARK    6  A    between atoms: C_28  and  C_29
REMARK                            x       y       z     vdW  Elec       q    Type
REMARK                         _______ _______ _______ _____ _____    ______ ____
ROOT
ATOM      3  C   UNL     1      -0.014   0.652  23.970  0.00  0.00    +0.039 C 
ATOM      4  C   UNL     1       0.390   1.368  24.041  0.00  0.00    +0.003 C 
ATOM      5  C   UNL     1      -0.008   2.042  24.300  0.00  0.00    +0.000 C 
ATOM      6  C   UNL     1      -0.809   2.001  24.488  0.00  0.00    +0.002 C 
ATOM      7  C   UNL     1      -0.406   2.716  24.559  0.00  0.00    +0.000 C 
ATOM      8  C   UNL     1      -1.208   2.676  24.748  0.00  0.00    +0.002 C 
ATOM      9  C   UNL     1      -2.010   2.635  24.935  0.00  0.00    +0.022 C 
ATOM     10  C   UNL     1      -2.414   1.918  24.864  0.00  0.00    +0.096 C 
ATOM     20  C   UNL     1      -2.016   1.244  24.605  0.00  0.00    +0.022 C 
ATOM     21  C   UNL     1      -2.420   0.528  24.534  0.00  0.00    +0.002 C 
ATOM     22  C   UNL     1      -1.214   1.285  24.417  0.00  0.00    +0.032 C 
ATOM     23  C   UNL     1      -0.816   0.611  24.158  0.00  0.00    +0.152 C 
ATOM     24  O   UNL     1      -1.220  -0.105  24.087  0.00  0.00    -0.223 OA
ENDROOT
BRANCH  10  11
ATOM     11  N   UNL     1      -3.217   1.877  25.052  0.00  0.00    -0.202 NA
ATOM     12  C   UNL     1      -3.719   2.502  24.858  0.00  0.00    +0.282 C 
ATOM     13  O   UNL     1      -3.418   3.169  24.474  0.00  0.00    -0.267 OA
BRANCH  12  14
ATOM     14  C   UNL     1      -4.521   2.461  25.046  0.00  0.00    +0.136 A 
ATOM     15  N   UNL     1      -5.017   1.951  24.631  0.00  0.00    -0.239 NA
ATOM     16  C   UNL     1      -5.820   1.910  24.819  0.00  0.00    +0.099 A 
ATOM     17  C   UNL     1      -6.125   2.381  25.423  0.00  0.00    +0.021 A 
ATOM     18  C   UNL     1      -5.628   2.893  25.840  0.00  0.00    +0.003 A 
ATOM     19  C   UNL     1      -4.827   2.932  25.651  0.00  0.00    +0.024 A 
ENDBRANCH  12  14
ENDBRANCH  10  11
BRANCH   3   2
ATOM      1  C   UNL     1       0.250  -0.749  24.077  0.00  0.00    +0.010 C 
ATOM      2  C   UNL     1       0.384  -0.022  23.710  0.00  0.00    +0.081 C 
BRANCH   2  25
ATOM     25  C   UNL     1       0.918   0.030  23.084  0.00  0.00    +0.241 C 
ATOM     26  O   UNL     1       0.641   0.072  22.307  0.00  0.00    -0.273 OA
ATOM     27  N   UNL     1       1.730   0.042  23.233  0.00  0.00    -0.201 NA
BRANCH  27  28
ATOM     28  C   UNL     1       2.264   0.094  22.607  0.00  0.00    +0.143 C 
BRANCH  28  29
ATOM     29  C   UNL     1       3.070   0.186  22.758  0.00  0.00    +0.019 A 
ATOM     30  C   UNL     1       3.439   0.907  22.603  0.00  0.00    +0.001 A 
ATOM     31  C   UNL     1       4.245   0.998  22.753  0.00  0.00    +0.020 A 
ATOM     32  C   UNL     1       4.682   0.369  23.060  0.00  0.00    +0.099 A 
ATOM     33  N   UNL     1       4.312  -0.352  23.215  0.00  0.00    -0.243 NA
ATOM     34  C   UNL     1       3.505  -0.444  23.064  0.00  0.00    +0.096 A 
ENDBRANCH  28  29
ENDBRANCH  27  28
ENDBRANCH   2  25
ENDBRANCH   3   2
TORSDOF 6
ENDMDL
MODEL 4
REMARK VINA RESULT:     -10.9      1.944      3.550
REMARK  Name = 
REMARK  6 active torsions:
REMARK  status: ('A' for Active; 'I' for Inactive)
REMARK    1  A    between atoms: C_2  and  C_3
REMARK    2  A    between atoms: C_2  and  C_25
REMARK    3  A    between atoms: C_10  and  N_11
REMARK    4  A    between atoms: C_12  and  C_14
REMARK    5  A    between atoms: N_27  and  C_28
REMARK    6  A    between atoms: C_28  and  C_29
REMARK                            x       y       z     vdW  Elec       q    Type
REMARK                         _______ _______ _______ _____ _____    ______ ____
ROOT
ATOM      3  C   UNL     1      -0.220   2.083  25.296  0.00  0.00    +0.039 C 
ATOM      4  C   UNL     1       0.280   2.106  24.639  0.00  0.00    +0.003 C 
ATOM      5  C   UNL     1       0.313   1.463  24.125  0.00  0.00    +0.000 C 
ATOM      6  C   UNL     1      -0.152   0.797  24.265  0.00  0.00    +0.002 C 
ATOM      7  C   UNL     1       0.347   0.820  23.610  0.00  0.00    +0.000 C 
ATOM      8  C   UNL     1      -0.119   0.154  23.750  0.00  0.00    +0.002 C 
ATOM      9  C   UNL     1      -0.585  -0.512  23.890  0.00  0.00    +0.022 C 
ATOM     10  C   UNL     1      -1.085  -0.535  24.547  0.00  0.00    +0.096 C 
ATOM     20  C   UNL     1      -1.118   0.108  25.062  0.00  0.00    +0.022 C 
ATOM     21  C   UNL     1      -1.618   0.085  25.718  0.00  0.00    +0.002 C 
ATOM     22  C   UNL     1      -0.652   0.775  24.922  0.00  0.00    +0.032 C 
ATOM     23  C   UNL     1      -0.686   1.417  25.437  0.00  0.00    +0.152 C 
ATOM     24  O   UNL     1      -1.185   1.395  26.093  0.00  0.00    -0.223 OA
ENDROOT
BRANCH  10  11
ATOM     11  N   UNL     1      -1.551  -1.201  24.687  0.00  0.00    -0.202 NA
ATOM     12  C   UNL     1      -2.186  -1.373  24.191  0.00  0.00    +0.282 C 
ATOM     13  O   UNL     1      -2.356  -0.878  23.552  0.00  0.00    -0.267 OA
BRANCH  12  14
ATOM     14  C   UNL     1      -2.652  -2.040  24.331  0.00  0.00    +0.136 A 
ATOM     15  N   UNL     1      -2.299  -2.752  24.550  0.00  0.00    -0.239 NA
ATOM     16  C   UNL     1      -2.765  -3.418  24.690  0.00  0.00    +0.099 A 
ATOM     17  C   UNL     1      -3.584  -3.372  24.611  0.00  0.00    +0.021 A 
ATOM     18  C   UNL     1      -3.938  -2.659  24.391  0.00  0.00    +0.003 A 
ATOM     19  C   UNL     1      -3.472  -1.993  24.251  0.00  0.00    +0.024 A 
ENDBRANCH  12  14
ENDBRANCH  10  11
BRANCH   3   2
ATOM      1  C   UNL     1       0.150   2.702  26.531  0.00  0.00    +0.010 C 
ATOM      2  C   UNL     1      -0.253   2.727  25.812  0.00  0.00    +0.081 C 
BRANCH   2  25
ATOM     25  C   UNL     1      -0.690   3.396  25.607  0.00  0.00    +0.241 C 
ATOM     26  O   UNL     1      -0.312   4.050  25.274  0.00  0.00    -0.273 OA
ATOM     27  N   UNL     1      -1.506   3.412  25.735  0.00  0.00    -0.201 NA
BRANCH  27  28
ATOM     28  C   UNL     1      -1.942   4.081  25.531  0.00  0.00    +0.143 C 
BRANCH  28  29
ATOM     29  C   UNL     1      -2.763   4.034  25.464  0.00  0.00    +0.019 A 
ATOM     30  C   UNL     1      -3.112   3.934  24.724  0.00  0.00    +0.001 A 
ATOM     31  C   UNL     1      -3.932   3.887  24.658  0.00  0.00    +0.020 A 
ATOM     32  C   UNL     1      -4.405   3.941  25.333  0.00  0.00    +0.099 A 
ATOM     33  N   UNL     1      -4.055   4.041  26.073  0.00  0.00    -0.243 NA
ATOM     34  C   UNL     1      -3.234   4.088  26.139  0.00  0.00    +0.096 A 
ENDBRANCH  28  29
ENDBRANCH  27  28
ENDBRANCH   2  25
ENDBRANCH   3   2
TORSDOF 6
ENDMDL
MODEL 5
REMARK VINA RESULT:     -10.8      2.184      6.177
REMARK  Name = 
REMARK  6 active torsions:
REMARK  status: ('A' for Active; 'I' for Inactive)
REMARK    1  A    between atoms: C_2  and  C_3
REMARK    2  A    between atoms: C_2  and  C_25
REMARK    3  A    between atoms: C_10  and  N_11
REMARK    4  A    between atoms: C_12  and  C_14
REMARK    5  A    between atoms: N_27  and  C_28
REMARK    6  A    between atoms: C_28  and  C_29
REMARK                            x       y       z     vdW  Elec       q    Type
REMARK                         _______ _______ _______ _____ _____    ______ ____
ROOT
ATOM      3  C   UNL     1      -0.509  -0.917  24.857  0.00  0.00    +0.039 C 
ATOM      4  C   UNL     1      -0.082  -0.989  24.154  0.00  0.00    +0.003 C 
ATOM      5  C   UNL     1       0.150  -0.314  23.741  0.00  0.00    +0.000 C 
ATOM      6  C   UNL     1      -0.045   0.433  24.030  0.00  0.00    +0.002 C 
ATOM      7  C   UNL     1       0.381   0.361  23.328  0.00  0.00    +0.000 C 
ATOM      8  C   UNL     1       0.186   1.109  23.617  0.00  0.00    +0.002 C 
ATOM      9  C   UNL     1      -0.009   1.856  23.906  0.00  0.00    +0.022 C 
ATOM     10  C   UNL     1      -0.436   1.928  24.609  0.00  0.00    +0.096 C 
ATOM     20  C   UNL     1      -0.667   1.253  25.022  0.00  0.00    +0.022 C 
ATOM     21  C   UNL     1      -1.094   1.326  25.724  0.00  0.00    +0.002 C 
ATOM     22  C   UNL     1      -0.472   0.505  24.733  0.00  0.00    +0.032 C 
ATOM     23  C   UNL     1      -0.704  -0.170  25.146  0.00  0.00    +0.152 C 
ATOM     24  O   UNL     1      -1.131  -0.098  25.848  0.00  0.00    -0.223 OA
ENDROOT
BRANCH  10  11
ATOM     11  N   UNL     1      -0.631   2.677  24.898  0.00  0.00    -0.202 NA
ATOM     12  C   UNL     1      -1.051   3.205  24.425  0.00  0.00    +0.282 C 
ATOM     13  O   UNL     1      -1.277   2.986  23.661  0.00  0.00    -0.267 OA
BRANCH  12  14
ATOM     14  C   UNL     1      -1.246   3.953  24.713  0.00  0.00    +0.136 A 
ATOM     15  N   UNL     1      -1.983   4.083  25.060  0.00  0.00    -0.239 NA
ATOM     16  C   UNL     1      -2.177   4.831  25.348  0.00  0.00    +0.099 A 
ATOM     17  C   UNL     1      -1.634   5.450  25.290  0.00  0.00    +0.021 A 
ATOM     18  C   UNL     1      -0.896   5.320  24.944  0.00  0.00    +0.003 A 
ATOM     19  C   UNL     1      -0.703   4.571  24.655  0.00  0.00    +0.024 A 
ENDBRANCH  12  14
ENDBRANCH  10  11
BRANCH   3   2
ATOM      1  C   UNL     1      -0.453  -1.732  26.031  0.00  0.00    +0.010 C 
ATOM      2  C   UNL     1      -0.740  -1.593  25.270  0.00  0.00    +0.081 C 
BRANCH   2  25
ATOM     25  C   UNL     1      -1.260  -2.131  24.921  0.00  0.00    +0.241 C 
ATOM     26  O   UNL     1      -0.967  -2.815  24.563  0.00  0.00    -0.273 OA
ATOM     27  N   UNL     1      -2.073  -1.985  24.931  0.00  0.00    -0.201 NA
BRANCH  27  28
ATOM     28  C   UNL     1      -2.592  -2.522  24.582  0.00  0.00    +0.143 C 
BRANCH  28  29
ATOM     29  C   UNL     1      -3.335  -2.272  24.328  0.00  0.00    +0.019 A 
ATOM     30  C   UNL     1      -3.627  -1.537  24.563  0.00  0.00    +0.001 A 
ATOM     31  C   UNL     1      -4.370  -1.288  24.308  0.00  0.00    +0.020 A 
ATOM     32  C   UNL     1      -4.823  -1.774  23.819  0.00  0.00    +0.099 A 
ATOM     33  N   UNL     1      -4.532  -2.509  23.584  0.00  0.00    -0.243 NA
ATOM     34  C   UNL     1      -3.787  -2.759  23.839  0.00  0.00    +0.096 A 
ENDBRANCH  28  29
ENDBRANCH  27  28
ENDBRANCH   2  25
ENDBRANCH   3   2
TORSDOF 6
ENDMDL
MODEL 6
REMARK VINA RESULT:     -10.7      2.657      4.726
REMARK  Name = 
REMARK  6 active torsions:
REMARK  status: ('A' for Active; 'I' for Inactive)
REMARK    1  A    between atoms: C_2  and  C_3
REMARK    2  A    between atoms: C_2  and  C_25
REMARK    3  A    between atoms: C_10  and  N_11
REMARK    4  A    between atoms: C_12  and  C_14
REMARK    5  A    between atoms: N_27  and  C_28
REMARK    6  A    between atoms: C_28  and  C_29
REMARK                            x       y       z     vdW  Elec       q    Type
REMARK                         _______ _______ _______ _____ _____    ______ ____
ROOT
ATOM      3  C   UNL     1      -3.447  -0.096  24.822  0.00  0.00    +0.039 C 
ATOM      4  C   UNL     1      -3.325  -0.593  25.470  0.00  0.00    +0.003 C 
ATOM      5  C   UNL     1      -2.561  -0.829  25.670  0.00  0.00    +0.000 C 
ATOM      6  C   UNL     1      -1.919  -0.569  25.223  0.00  0.00    +0.002 C 
ATOM      7  C   UNL     1      -1.797  -1.065  25.870  0.00  0.00    +0.000 C 
ATOM      8  C   UNL     1      -1.153  -0.805  25.423  0.00  0.00    +0.002 C 
ATOM      9  C   UNL     1      -0.511  -0.545  24.977  0.00  0.00    +0.022 C 
ATOM     10  C   UNL     1      -0.633  -0.047  24.329  0.00  0.00    +0.096 C 
ATOM     20  C   UNL     1      -1.397   0.189  24.129  0.00  0.00    +0.022 C 
ATOM     21  C   UNL     1      -1.519   0.686  23.482  0.00  0.00    +0.002 C 
ATOM     22  C   UNL     1      -2.041  -0.072  24.575  0.00  0.00    +0.032 C 
ATOM     23  C   UNL     1      -2.805   0.164  24.375  0.00  0.00    +0.152 C 
ATOM     24  O   UNL     1      -2.927   0.661  23.728  0.00  0.00    -0.223 OA
ENDROOT
BRANCH  10  11
ATOM     11  N   UNL     1       0.010   0.213  23.882  0.00  0.00    -0.202 NA
ATOM     12  C   UNL     1       0.601  -0.317  23.661  0.00  0.00    +0.282 C 
ATOM     13  O   UNL     1       0.549  -1.110  23.886  0.00  0.00    -0.267 OA
BRANCH  12  14
ATOM     14  C   UNL     1       1.244  -0.057  23.214  0.00  0.00    +0.136 A 
ATOM     15  N   UNL     1       1.739   0.533  23.508  0.00  0.00    -0.239 NA
ATOM     16  C   UNL     1       2.382   0.794  23.061  0.00  0.00    +0.099 A 
ATOM     17  C   UNL     1       2.530   0.463  22.320  0.00  0.00    +0.021 A 
ATOM     18  C   UNL     1       2.035  -0.128  22.026  0.00  0.00    +0.003 A 
ATOM     19  C   UNL     1       1.392  -0.388  22.473  0.00  0.00    +0.024 A 
ENDBRANCH  12  14
ENDBRANCH  10  11
BRANCH   3   2
ATOM      1  C   UNL     1      -4.535  -0.075  23.893  0.00  0.00    +0.010 C 
ATOM      2  C   UNL     1      -4.212   0.140  24.622  0.00  0.00    +0.081 C 
BRANCH   2  25
ATOM     25  C   UNL     1      -4.655   0.592  25.151  0.00  0.00    +0.241 C 
ATOM     26  O   UNL     1      -5.055   0.225  25.773  0.00  0.00    -0.273 OA
ATOM     27  N   UNL     1      -4.699   1.411  25.059  0.00  0.00    -0.201 NA
BRANCH  27  28
ATOM     28  C   UNL     1      -5.142   1.862  25.588  0.00  0.00    +0.143 C 
BRANCH  28  29
ATOM     29  C   UNL     1      -5.109   2.686  25.556  0.00  0.00    +0.019 A 
ATOM     30  C   UNL     1      -4.384   3.067  25.456  0.00  0.00    +0.001 A 
ATOM     31  C   UNL     1      -4.352   3.890  25.425  0.00  0.00    +0.020 A 
ATOM     32  C   UNL     1      -5.045   4.333  25.492  0.00  0.00    +0.099 A 
ATOM     33  N   UNL     1      -5.770   3.952  25.592  0.00  0.00    -0.243 NA
ATOM     34  C   UNL     1      -5.802   3.128  25.624  0.00  0.00    +0.096 A 
ENDBRANCH  28  29
ENDBRANCH  27  28
ENDBRANCH   2  25
ENDBRANCH   3   2
TORSDOF 6
ENDMDL
MODEL 7
REMARK VINA RESULT:     -10.6      2.549      4.626
REMARK  Name = 
REMARK  6 active torsions:
REMARK  status: ('A' for Active; 'I' for Inactive)
REMARK    1  A    between atoms: C_2  and  C_3
REMARK    2  A    between atoms: C_2  and  C_25
REMARK    3  A    between atoms: C_10  and  N_11
REMARK    4  A    between atoms: C_12  and  C_14
REMARK    5  A    between atoms: N_27  and  C_28
REMARK    6  A    between atoms: C_28  and  C_29
REMARK                            x       y       z     vdW  Elec       q    Type
REMARK                         _______ _______ _______ _____ _____    ______ ____
ROOT
ATOM      3  C   UNL     1      -1.658  -1.096  24.671  0.00  0.00    +0.039 C 
ATOM      4  C   UNL     1      -2.162  -1.704  24.430  0.00  0.00    +0.003 C 
ATOM      5  C   UNL     1      -2.978  -1.587  24.428  0.00  0.00    +0.000 C 
ATOM      6  C   UNL     1      -3.291  -0.863  24.666  0.00  0.00    +0.002 C 
ATOM      7  C   UNL     1      -3.794  -1.469  24.425  0.00  0.00    +0.000 C 
ATOM      8  C   UNL     1      -4.108  -0.744  24.664  0.00  0.00    +0.002 C 
ATOM      9  C   UNL     1      -4.421  -0.020  24.903  0.00  0.00    +0.022 C 
ATOM     10  C   UNL     1      -3.917   0.588  25.145  0.00  0.00    +0.096 C 
ATOM     20  C   UNL     1      -3.101   0.470  25.147  0.00  0.00    +0.022 C 
ATOM     21  C   UNL     1      -2.597   1.078  25.388  0.00  0.00    +0.002 C 
ATOM     22  C   UNL     1      -2.787  -0.254  24.908  0.00  0.00    +0.032 C 
ATOM     23  C   UNL     1      -1.971  -0.372  24.910  0.00  0.00    +0.152 C 
ATOM     24  O   UNL     1      -1.467   0.235  25.151  0.00  0.00    -0.223 OA
ENDROOT
BRANCH  10  11
ATOM     11  N   UNL     1      -4.230   1.313  25.384  0.00  0.00    -0.202 NA
ATOM     12  C   UNL     1      -4.755   1.717  24.893  0.00  0.00    +0.282 C 
ATOM     13  O   UNL     1      -4.967   1.397  24.162  0.00  0.00    -0.267 OA
BRANCH  12  14
ATOM     14  C   UNL     1      -5.069   2.442  25.132  0.00  0.00    +0.136 A 
ATOM     15  N   UNL     1      -4.685   3.144  24.935  0.00  0.00    -0.239 NA
ATOM     16  C   UNL     1      -4.998   3.869  25.173  0.00  0.00    +0.099 A 
ATOM     17  C   UNL     1      -5.698   3.891  25.611  0.00  0.00    +0.021 A 
ATOM     18  C   UNL     1      -6.083   3.188  25.809  0.00  0.00    +0.003 A 
ATOM     19  C   UNL     1      -5.769   2.464  25.569  0.00  0.00    +0.024 A 
ENDBRANCH  12  14
ENDBRANCH  10  11
BRANCH   3   2
ATOM      1  C   UNL     1      -0.448  -1.377  25.381  0.00  0.00    +0.010 C 
ATOM      2  C   UNL     1      -0.841  -1.214  24.673  0.00  0.00    +0.081 C 
BRANCH   2  25
ATOM     25  C   UNL     1      -0.417  -1.170  23.967  0.00  0.00    +0.241 C 
ATOM     26  O   UNL     1      -0.561  -1.714  23.363  0.00  0.00    -0.273 OA
ATOM     27  N   UNL     1       0.153  -0.581  23.864  0.00  0.00    -0.201 NA
BRANCH  27  28
ATOM     28  C   UNL     1       0.577  -0.537  23.159  0.00  0.00    +0.143 C 
BRANCH  28  29
ATOM     29  C   UNL     1       1.242  -0.052  23.106  0.00  0.00    +0.019 A 
ATOM     30  C   UNL     1       1.903  -0.302  22.681  0.00  0.00    +0.001 A 
ATOM     31  C   UNL     1       2.567   0.184  22.629  0.00  0.00    +0.020 A 
ATOM     32  C   UNL     1       2.572   0.920  23.003  0.00  0.00    +0.099 A 
ATOM     33  N   UNL     1       1.910   1.170  23.428  0.00  0.00    -0.243 NA
ATOM     34  C   UNL     1       1.245   0.684  23.480  0.00  0.00    +0.096 A 
ENDBRANCH  28  29
ENDBRANCH  27  28
ENDBRANCH   2  25
ENDBRANCH   3   2
TORSDOF 6
ENDMDL
MODEL 8
REMARK VINA RESULT:     -10.6      2.889      5.160
REMARK  Name = 
REMARK  6 active torsions:
REMARK  status: ('A' for Active; 'I' for Inactive)
REMARK    1  A    between atoms: C_2  and  C_3
REMARK    2  A    between atoms: C_2  and  C_25
REMARK    3  A    between atoms: C_10  and  N_11
REMARK    4  A    between atoms: C_12  and  C_14
REMARK    5  A    between atoms: N_27  and  C_28
REMARK    6  A    between atoms: C_28  and  C_29
REMARK                            x       y       z     vdW  Elec       q    Type
REMARK                         _______ _______ _______ _____ _____    ______ ____
ROOT
ATOM      3  C   UNL     1      -1.759   2.236  25.047  0.00  0.00    +0.039 C 
ATOM      4  C   UNL     1      -2.114   1.500  25.167  0.00  0.00    +0.003 C 
ATOM      5  C   UNL     1      -1.715   0.811  24.953  0.00  0.00    +0.000 C 
ATOM      6  C   UNL     1      -0.962   0.857  24.621  0.00  0.00    +0.002 C 
ATOM      7  C   UNL     1      -1.316   0.122  24.740  0.00  0.00    +0.000 C 
ATOM      8  C   UNL     1      -0.562   0.167  24.407  0.00  0.00    +0.002 C 
ATOM      9  C   UNL     1       0.191   0.213  24.074  0.00  0.00    +0.022 C 
ATOM     10  C   UNL     1       0.545   0.949  23.955  0.00  0.00    +0.096 C 
ATOM     20  C   UNL     1       0.146   1.638  24.168  0.00  0.00    +0.022 C 
ATOM     21  C   UNL     1       0.501   2.373  24.049  0.00  0.00    +0.002 C 
ATOM     22  C   UNL     1      -0.607   1.593  24.501  0.00  0.00    +0.032 C 
ATOM     23  C   UNL     1      -1.006   2.282  24.715  0.00  0.00    +0.152 C 
ATOM     24  O   UNL     1      -0.652   3.017  24.596  0.00  0.00    -0.223 OA
ENDROOT
BRANCH  10  11
ATOM     11  N   UNL     1       1.299   0.994  23.622  0.00  0.00    -0.202 NA
ATOM     12  C   UNL     1       1.585   0.373  23.161  0.00  0.00    +0.282 C 
ATOM     13  O   UNL     1       1.116  -0.295  23.032  0.00  0.00    -0.267 OA
BRANCH  12  14
ATOM     14  C   UNL     1       2.338   0.418  22.828  0.00  0.00    +0.136 A 
ATOM     15  N   UNL     1       2.945   0.805  23.231  0.00  0.00    -0.239 NA
ATOM     16  C   UNL     1       3.699   0.850  22.898  0.00  0.00    +0.099 A 
ATOM     17  C   UNL     1       3.845   0.508  22.161  0.00  0.00    +0.021 A 
ATOM     18  C   UNL     1       3.237   0.120  21.758  0.00  0.00    +0.003 A 
ATOM     19  C   UNL     1       2.484   0.076  22.092  0.00  0.00    +0.024 A 
ENDBRANCH  12  14
ENDBRANCH  10  11
BRANCH   3   2
ATOM      1  C   UNL     1      -1.840   3.429  25.832  0.00  0.00    +0.010 C 
ATOM      2  C   UNL     1      -2.159   2.926  25.261  0.00  0.00    +0.081 C 
BRANCH   2  25
ATOM     25  C   UNL     1      -2.879   3.112  24.904  0.00  0.00    +0.241 C 
ATOM     26  O   UNL     1      -2.891   3.495  24.173  0.00  0.00    -0.273 OA
ATOM     27  N   UNL     1      -3.589   2.916  25.278  0.00  0.00    -0.201 NA
BRANCH  27  28
ATOM     28  C   UNL     1      -4.308   3.101  24.922  0.00  0.00    +0.143 C 
BRANCH  28  29
ATOM     29  C   UNL     1      -5.007   2.766  25.202  0.00  0.00    +0.019 A 
ATOM     30  C   UNL     1      -5.374   2.161  24.778  0.00  0.00    +0.001 A 
ATOM     31  C   UNL     1      -6.073   1.826  25.060  0.00  0.00    +0.020 A 
ATOM     32  C   UNL     1      -6.406   2.096  25.765  0.00  0.00    +0.099 A 
ATOM     33  N   UNL     1      -6.039   2.701  26.189  0.00  0.00    -0.243 NA
ATOM     34  C   UNL     1      -5.339   3.036  25.908  0.00  0.00    +0.096 A 
ENDBRANCH  28  29
ENDBRANCH  27  28
ENDBRANCH   2  25
ENDBRANCH   3   2
TORSDOF 6
ENDMDL
MODEL 9
REMARK VINA RESULT:     -10.3      1.506      3.093
REMARK  Name = 
REMARK  6 active torsions:
REMARK  status: ('A' for Active; 'I' for Inactive)
REMARK    1  A    between atoms: C_2  and  C_3
REMARK    2  A    between atoms: C_2  and  C_25
REMARK    3  A    between atoms: C_10  and  N_11
REMARK    4  A    between atoms: C_12  and  C_14
REMARK    5  A    between atoms: N_27  and  C_28
REMARK    6  A    between atoms: C_28  and  C_29
REMARK                            x       y       z     vdW  Elec       q    Type
REMARK                         _______ _______ _______ _____ _____    ______ ____
ROOT
ATOM      3  C   UNL     1      -1.042   2.624  24.945  0.00  0.00    +0.039 C 
ATOM      4  C   UNL     1      -0.560   2.483  25.600  0.00  0.00    +0.003 C 
ATOM      5  C   UNL     1      -0.492   1.721  25.906  0.00  0.00    +0.000 C 
ATOM      6  C   UNL     1      -0.906   1.099  25.558  0.00  0.00    +0.002 C 
ATOM      7  C   UNL     1      -0.425   0.958  26.212  0.00  0.00    +0.000 C 
ATOM      8  C   UNL     1      -0.839   0.335  25.864  0.00  0.00    +0.002 C 
ATOM      9  C   UNL     1      -1.253  -0.287  25.516  0.00  0.00    +0.022 C 
ATOM     10  C   UNL     1      -1.735  -0.147  24.860  0.00  0.00    +0.096 C 
ATOM     20  C   UNL     1      -1.803   0.616  24.554  0.00  0.00    +0.022 C 
ATOM     21  C   UNL     1      -2.284   0.756  23.900  0.00  0.00    +0.002 C 
ATOM     22  C   UNL     1      -1.389   1.239  24.903  0.00  0.00    +0.032 C 
ATOM     23  C   UNL     1      -1.456   2.002  24.597  0.00  0.00    +0.152 C 
ATOM     24  O   UNL     1      -1.938   2.142  23.942  0.00  0.00    -0.223 OA
ENDROOT
BRANCH  10  11
ATOM     11  N   UNL     1      -2.149  -0.770  24.512  0.00  0.00    -0.202 NA
ATOM     12  C   UNL     1      -2.667  -1.225  24.964  0.00  0.00    +0.282 C 
ATOM     13  O   UNL     1      -2.771  -1.058  25.766  0.00  0.00    -0.267 OA
BRANCH  12  14
ATOM     14  C   UNL     1      -3.081  -1.848  24.616  0.00  0.00    +0.136 A 
ATOM     15  N   UNL     1      -2.755  -2.606  24.605  0.00  0.00    -0.239 NA
ATOM     16  C   UNL     1      -3.169  -3.229  24.257  0.00  0.00    +0.099 A 
ATOM     17  C   UNL     1      -3.909  -3.094  23.920  0.00  0.00    +0.021 A 
ATOM     18  C   UNL     1      -4.236  -2.336  23.930  0.00  0.00    +0.003 A 
ATOM     19  C   UNL     1      -3.821  -1.713  24.279  0.00  0.00    +0.024 A 
ENDBRANCH  12  14
ENDBRANCH  10  11
BRANCH   3   2
ATOM      1  C   UNL     1      -0.662   3.611  23.982  0.00  0.00    +0.010 C 
ATOM      2  C   UNL     1      -1.110   3.387  24.639  0.00  0.00    +0.081 C 
BRANCH   2  25
ATOM     25  C   UNL     1      -1.625   3.928  24.990  0.00  0.00    +0.241 C 
ATOM     26  O   UNL     1      -1.326   4.598  25.367  0.00  0.00    -0.273 OA
ATOM     27  N   UNL     1      -2.440   3.798  24.963  0.00  0.00    -0.201 NA
BRANCH  27  28
ATOM     28  C   UNL     1      -2.955   4.338  25.314  0.00  0.00    +0.143 C 
BRANCH  28  29
ATOM     29  C   UNL     1      -3.742   4.132  25.446  0.00  0.00    +0.019 A 
ATOM     30  C   UNL     1      -4.280   4.134  24.820  0.00  0.00    +0.001 A 
ATOM     31  C   UNL     1      -5.067   3.928  24.952  0.00  0.00    +0.020 A 
ATOM     32  C   UNL     1      -5.318   3.720  25.710  0.00  0.00    +0.099 A 
ATOM     33  N   UNL     1      -4.780   3.718  26.336  0.00  0.00    -0.243 NA
ATOM     34  C   UNL     1      -3.992   3.924  26.204  0.00  0.00    +0.096 A 
ENDBRANCH  28  29
ENDBRANCH  27  28
ENDBRANCH   2  25
ENDBRANCH   3   2
TORSDOF 6
ENDMDL
MODEL 10
REMARK VINA RESULT:     -10.3      1.938      5.196
REMARK  Name = 
REMARK  6 active torsions:
REMARK  status: ('A' for Active; 'I' for Inactive)
REMARK    1  A    between atoms: C_2  and  C_3
REMARK    2  A    between atoms: C_2  and  C_25
REMARK    3  A    between atoms: C_10  and  N_11
REMARK    4  A    between atoms: C_12  and  C_14
REMARK    5  A    between atoms: N_27  and  C_28
REMARK    6  A    between atoms: C_28  and  C_29
REMARK                            x       y       z     vdW  Elec       q    Type
REMARK                         _______ _______ _______ _____ _____    ______ ____
ROOT
ATOM      3  C   UNL     1      -0.606   0.882  24.446  0.00  0.00    +0.039 C 
ATOM      4  C   UNL     1      -0.065   1.229  24.964  0.00  0.00    +0.003 C 
ATOM      5  C   UNL     1      -0.275   1.905  25.387  0.00  0.00    +0.000 C 
ATOM      6  C   UNL     1      -1.024   2.235  25.293  0.00  0.00    +0.002 C 
ATOM      7  C   UNL     1      -0.484   2.581  25.810  0.00  0.00    +0.000 C 
ATOM      8  C   UNL     1      -1.235   2.911  25.716  0.00  0.00    +0.002 C 
ATOM      9  C   UNL     1      -1.985   3.241  25.621  0.00  0.00    +0.022 C 
ATOM     10  C   UNL     1      -2.526   2.893  25.103  0.00  0.00    +0.096 C 
ATOM     20  C   UNL     1      -2.316   2.217  24.681  0.00  0.00    +0.022 C 
ATOM     21  C   UNL     1      -2.857   1.870  24.163  0.00  0.00    +0.002 C 
ATOM     22  C   UNL     1      -1.566   1.887  24.775  0.00  0.00    +0.032 C 
ATOM     23  C   UNL     1      -1.356   1.211  24.352  0.00  0.00    +0.152 C 
ATOM     24  O   UNL     1      -1.897   0.864  23.835  0.00  0.00    -0.223 OA
ENDROOT
BRANCH  10  11
ATOM     11  N   UNL     1      -3.276   3.223  25.009  0.00  0.00    -0.202 NA
ATOM     12  C   UNL     1      -3.749   3.370  25.669  0.00  0.00    +0.282 C 
ATOM     13  O   UNL     1      -3.470   3.187  26.425  0.00  0.00    -0.267 OA
BRANCH  12  14
ATOM     14  C   UNL     1      -4.499   3.700  25.575  0.00  0.00    +0.136 A 
ATOM     15  N   UNL     1      -4.578   4.482  25.327  0.00  0.00    -0.239 NA
ATOM     16  C   UNL     1      -5.329   4.812  25.233  0.00  0.00    +0.099 A 
ATOM     17  C   UNL     1      -6.000   4.359  25.387  0.00  0.00    +0.021 A 
ATOM     18  C   UNL     1      -5.921   3.575  25.636  0.00  0.00    +0.003 A 
ATOM     19  C   UNL     1      -5.171   3.247  25.730  0.00  0.00    +0.024 A 
ENDBRANCH  12  14
ENDBRANCH  10  11
BRANCH   3   2
ATOM      1  C   UNL     1      -0.122   0.271  23.248  0.00  0.00    +0.010 C 
ATOM      2  C   UNL     1      -0.396   0.205  24.023  0.00  0.00    +0.081 C 
BRANCH   2  25
ATOM     25  C   UNL     1      -0.460  -0.538  24.376  0.00  0.00    +0.241 C 
ATOM     26  O   UNL     1       0.191  -0.870  24.761  0.00  0.00    -0.273 OA
ATOM     27  N   UNL     1      -1.175  -0.949  24.345  0.00  0.00    -0.201 NA
BRANCH  27  28
ATOM     28  C   UNL     1      -1.239  -1.691  24.698  0.00  0.00    +0.143 C 
BRANCH  28  29
ATOM     29  C   UNL     1      -1.971  -2.068  24.737  0.00  0.00    +0.019 A 
ATOM     30  C   UNL     1      -2.504  -1.876  25.336  0.00  0.00    +0.001 A 
ATOM     31  C   UNL     1      -3.236  -2.253  25.375  0.00  0.00    +0.020 A 
ATOM     32  C   UNL     1      -3.436  -2.824  24.813  0.00  0.00    +0.099 A 
ATOM     33  N   UNL     1      -2.904  -3.017  24.214  0.00  0.00    -0.243 NA
ATOM     34  C   UNL     1      -2.171  -2.639  24.175  0.00  0.00    +0.096 A 
ENDBRANCH  28  29
ENDBRANCH  27  28
ENDBRANCH   2  25
ENDBRANCH   3   2
TORSDOF 6
ENDMDL
