MODEL 1
REMARK VINA RESULT:     -10.7      0.000      0.000
REMARK  Name = 
REMARK  3 active torsions:
REMARK  status: ('A' for Active; 'I' for Inactive)
REMARK    1  A    between atoms: C_7  and  C_8
REMARK    2  A    between atoms: C_14  and  N_15
REMARK    3  A    between atoms: N_15  and  S_16
REMARK                            x       y       z     vdW  Elec       q    Type
REMARK                         _______ _______ _______ _____ _____    ______ ____
ROOT
ATOM      8  C   UNL     1      -4.133  -0.028  24.744  0.00  0.00    +0.045 C 
ATOM      9  C   UNL     1      -4.738   0.290  25.205  0.00  0.00    +0.041 C 
ATOM     10  C   UNL     1      -4.677   1.113  25.171  0.00  0.00    +0.184 C 
ATOM     11  O   UNL     1      -5.171   1.653  25.553  0.00  0.00    -0.220 OA
ATOM     12  C   UNL     1      -4.034   1.301  24.689  0.00  0.00    +0.200 C 
ATOM     13  O   UNL     1      -3.773   2.062  24.504  0.00  0.00    -0.219 OA
ATOM     14  C   UNL     1      -3.698   0.595  24.425  0.00  0.00    +0.134 C 
ENDROOT
BRANCH   8   7
ATOM      1  C   UNL     1      -3.460  -0.936  25.946  0.00  0.00    +0.031 C 
ATOM      2  C   UNL     1      -3.652  -1.286  25.223  0.00  0.00    -0.026 A 
ATOM      3  C   UNL     1      -3.508  -2.089  25.102  0.00  0.00    -0.005 A 
ATOM      4  C   UNL     1      -3.700  -2.438  24.380  0.00  0.00    -0.000 A 
ATOM      5  C   UNL     1      -4.037  -1.984  23.778  0.00  0.00    -0.000 A 
ATOM      6  C   UNL     1      -4.181  -1.181  23.900  0.00  0.00    -0.005 A 
ATOM      7  C   UNL     1      -3.989  -0.832  24.622  0.00  0.00    -0.025 A 
ENDBRANCH   8   7
BRANCH  14  15
ATOM     15  N   UNL     1      -3.043   0.527  23.928  0.00  0.00    -0.080 NA
BRANCH  15  16
ATOM     16  S   UNL     1      -2.673   1.204  23.636  0.00  0.00    +0.059 S 
ATOM     17  C   UNL     1      -2.304   1.881  23.344  0.00  0.00    +0.197 C 
ATOM     18  O   UNL     1      -2.141   1.185  24.266  0.00  0.00    -0.156 OA
ATOM     19  O   UNL     1      -3.206   1.222  23.006  0.00  0.00    -0.156 OA
ENDBRANCH  15  16
ENDBRANCH  14  15
TORSDOF 3
ENDMDL
MODEL 2
REMARK VINA RESULT:     -10.0      1.143      1.887
REMARK  Name = 
REMARK  3 active torsions:
REMARK  status: ('A' for Active; 'I' for Inactive)
REMARK    1  A    between atoms: C_7  and  C_8
REMARK    2  A    between atoms: C_14  and  N_15
REMARK    3  A    between atoms: N_15  and  S_16
REMARK                            x       y       z     vdW  Elec       q    Type
REMARK                         _______ _______ _______ _____ _____    ______ ____
ROOT
ATOM      8  C   UNL     1      -3.291   0.139  24.745  0.00  0.00    +0.045 C 
ATOM      9  C   UNL     1      -2.511   0.401  24.806  0.00  0.00    +0.041 C 
ATOM     10  C   UNL     1      -2.526   1.215  24.942  0.00  0.00    +0.184 C 
ATOM     11  O   UNL     1      -1.868   1.703  25.038  0.00  0.00    -0.220 OA
ATOM     12  C   UNL     1      -3.315   1.454  24.964  0.00  0.00    +0.200 C 
ATOM     13  O   UNL     1      -3.585   2.225  25.087  0.00  0.00    -0.219 OA
ATOM     14  C   UNL     1      -3.788   0.789  24.842  0.00  0.00    +0.134 C 
ENDROOT
BRANCH   8   7
ATOM      1  C   UNL     1      -2.987  -1.027  25.872  0.00  0.00    +0.031 C 
ATOM      2  C   UNL     1      -3.379  -1.222  25.172  0.00  0.00    -0.026 A 
ATOM      3  C   UNL     1      -3.619  -2.000  25.037  0.00  0.00    -0.005 A 
ATOM      4  C   UNL     1      -4.011  -2.194  24.338  0.00  0.00    -0.000 A 
ATOM      5  C   UNL     1      -4.164  -1.611  23.774  0.00  0.00    -0.000 A 
ATOM      6  C   UNL     1      -3.923  -0.834  23.909  0.00  0.00    -0.005 A 
ATOM      7  C   UNL     1      -3.531  -0.639  24.609  0.00  0.00    -0.025 A 
ENDBRANCH   8   7
BRANCH  14  15
ATOM     15  N   UNL     1      -4.613   0.777  24.822  0.00  0.00    -0.080 NA
BRANCH  15  16
ATOM     16  S   UNL     1      -5.039   1.466  24.978  0.00  0.00    +0.059 S 
ATOM     17  C   UNL     1      -5.466   2.154  25.134  0.00  0.00    +0.197 C 
ATOM     18  O   UNL     1      -4.970   1.688  24.187  0.00  0.00    -0.156 OA
ATOM     19  O   UNL     1      -5.109   1.244  25.769  0.00  0.00    -0.156 OA
ENDBRANCH  15  16
ENDBRANCH  14  15
TORSDOF 3
ENDMDL
MODEL 3
REMARK VINA RESULT:      -9.8      1.878      3.044
REMARK  Name = 
REMARK  3 active torsions:
REMARK  status: ('A' for Active; 'I' for Inactive)
REMARK    1  A    between atoms: C_7  and  C_8
REMARK    2  A    between atoms: C_14  and  N_15
REMARK    3  A    between atoms: N_15  and  S_16
REMARK                            x       y       z     vdW  Elec       q    Type
REMARK                         _______ _______ _______ _____ _____    ______ ____
ROOT
ATOM      8  C   UNL     1      -3.529  -0.548  24.309  0.00  0.00    +0.045 C 
ATOM      9  C   UNL     1      -4.052  -1.153  24.108  0.00  0.00    +0.041 C 
ATOM     10  C   UNL     1      -3.675  -1.873  24.250  0.00  0.00    +0.184 C 
ATOM     11  O   UNL     1      -3.998  -2.623  24.125  0.00  0.00    -0.220 OA
ATOM     12  C   UNL     1      -2.919  -1.712  24.539  0.00  0.00    +0.200 C 
ATOM     13  O   UNL     1      -2.353  -2.273  24.754  0.00  0.00    -0.219 OA
ATOM     14  C   UNL     1      -2.829  -0.893  24.575  0.00  0.00    +0.134 C 
ENDROOT
BRANCH   8   7
ATOM      1  C   UNL     1      -4.638   0.156  25.307  0.00  0.00    +0.031 C 
ATOM      2  C   UNL     1      -4.234   0.614  24.752  0.00  0.00    -0.026 A 
ATOM      3  C   UNL     1      -4.384   1.423  24.696  0.00  0.00    -0.005 A 
ATOM      4  C   UNL     1      -3.980   1.880  24.142  0.00  0.00    -0.000 A 
ATOM      5  C   UNL     1      -3.425   1.529  23.642  0.00  0.00    -0.000 A 
ATOM      6  C   UNL     1      -3.275   0.720  23.698  0.00  0.00    -0.005 A 
ATOM      7  C   UNL     1      -3.679   0.261  24.253  0.00  0.00    -0.025 A 
ENDBRANCH   8   7
BRANCH  14  15
ATOM     15  N   UNL     1      -2.156  -0.491  24.833  0.00  0.00    -0.080 NA
BRANCH  15  16
ATOM     16  S   UNL     1      -1.487  -0.913  25.068  0.00  0.00    +0.059 S 
ATOM     17  C   UNL     1      -0.819  -1.334  25.303  0.00  0.00    +0.197 C 
ATOM     18  O   UNL     1      -1.220  -0.923  24.288  0.00  0.00    -0.156 OA
ATOM     19  O   UNL     1      -1.755  -0.902  25.848  0.00  0.00    -0.156 OA
ENDBRANCH  15  16
ENDBRANCH  14  15
TORSDOF 3
ENDMDL
MODEL 4
REMARK VINA RESULT:      -9.6      2.179      3.346
REMARK  Name = 
REMARK  3 active torsions:
REMARK  status: ('A' for Active; 'I' for Inactive)
REMARK    1  A    between atoms: C_7  and  C_8
REMARK    2  A    between atoms: C_14  and  N_15
REMARK    3  A    between atoms: N_15  and  S_16
REMARK                            x       y       z     vdW  Elec       q    Type
REMARK                         _______ _______ _______ _____ _____    ______ ____
ROOT
ATOM      8  C   UNL     1      -3.643   2.324  24.230  0.00  0.00    +0.045 C 
ATOM      9  C   UNL     1      -3.585   2.055  23.453  0.00  0.00    +0.041 C 
ATOM     10  C   UNL     1      -2.804   2.157  23.206  0.00  0.00    +0.184 C 
ATOM     11  O   UNL     1      -2.500   1.961  22.464  0.00  0.00    -0.220 OA
ATOM     12  C   UNL     1      -2.381   2.489  23.831  0.00  0.00    +0.200 C 
ATOM     13  O   UNL     1      -1.578   2.683  23.825  0.00  0.00    -0.219 OA
ATOM     14  C   UNL     1      -2.900   2.592  24.465  0.00  0.00    +0.134 C 
ENDROOT
BRANCH   8   7
ATOM      1  C   UNL     1      -4.320   0.895  24.704  0.00  0.00    +0.031 C 
ATOM      2  C   UNL     1      -4.665   1.611  24.930  0.00  0.00    -0.026 A 
ATOM      3  C   UNL     1      -5.348   1.611  25.392  0.00  0.00    -0.005 A 
ATOM      4  C   UNL     1      -5.693   2.325  25.618  0.00  0.00    -0.000 A 
ATOM      5  C   UNL     1      -5.355   3.040  25.381  0.00  0.00    -0.000 A 
ATOM      6  C   UNL     1      -4.672   3.039  24.919  0.00  0.00    -0.005 A 
ATOM      7  C   UNL     1      -4.326   2.324  24.693  0.00  0.00    -0.025 A 
ENDBRANCH   8   7
BRANCH  14  15
ATOM     15  N   UNL     1      -2.707   2.907  25.202  0.00  0.00    -0.080 NA
BRANCH  15  16
ATOM     16  S   UNL     1      -1.954   3.215  25.336  0.00  0.00    +0.059 S 
ATOM     17  C   UNL     1      -1.200   3.522  25.470  0.00  0.00    +0.197 C 
ATOM     18  O   UNL     1      -1.706   2.483  25.624  0.00  0.00    -0.156 OA
ATOM     19  O   UNL     1      -2.201   3.947  25.048  0.00  0.00    -0.156 OA
ENDBRANCH  15  16
ENDBRANCH  14  15
TORSDOF 3
ENDMDL
MODEL 5
REMARK VINA RESULT:      -9.5      2.262      3.280
REMARK  Name = 
REMARK  3 active torsions:
REMARK  status: ('A' for Active; 'I' for Inactive)
REMARK    1  A    between atoms: C_7  and  C_8
REMARK    2  A    between atoms: C_14  and  N_15
REMARK    3  A    between atoms: N_15  and  S_16
REMARK                            x       y       z     vdW  Elec       q    Type
REMARK                         _______ _______ _______ _____ _____    ______ ____
ROOT
ATOM      8  C   UNL     1      -3.638   2.032  24.015  0.00  0.00    +0.045 C 
ATOM      9  C   UNL     1      -3.580   2.283  23.232  0.00  0.00    +0.041 C 
ATOM     10  C   UNL     1      -2.863   2.009  22.930  0.00  0.00    +0.184 C 
ATOM     11  O   UNL     1      -2.579   2.133  22.164  0.00  0.00    -0.220 OA
ATOM     12  C   UNL     1      -2.478   1.589  23.527  0.00  0.00    +0.200 C 
ATOM     13  O   UNL     1      -1.743   1.220  23.464  0.00  0.00    -0.219 OA
ATOM     14  C   UNL     1      -2.958   1.604  24.198  0.00  0.00    +0.134 C 
ENDROOT
BRANCH   8   7
ATOM      1  C   UNL     1      -3.908   3.567  24.558  0.00  0.00    +0.031 C 
ATOM      2  C   UNL     1      -4.403   2.951  24.798  0.00  0.00    -0.026 A 
ATOM      3  C   UNL     1      -5.032   3.103  25.310  0.00  0.00    -0.005 A 
ATOM      4  C   UNL     1      -5.526   2.488  25.550  0.00  0.00    -0.000 A 
ATOM      5  C   UNL     1      -5.392   1.720  25.279  0.00  0.00    -0.000 A 
ATOM      6  C   UNL     1      -4.762   1.568  24.767  0.00  0.00    -0.005 A 
ATOM      7  C   UNL     1      -4.268   2.184  24.527  0.00  0.00    -0.025 A 
ENDBRANCH   8   7
BRANCH  14  15
ATOM     15  N   UNL     1      -2.786   1.252  24.924  0.00  0.00    -0.080 NA
BRANCH  15  16
ATOM     16  S   UNL     1      -2.097   0.808  25.015  0.00  0.00    +0.059 S 
ATOM     17  C   UNL     1      -1.408   0.363  25.106  0.00  0.00    +0.197 C 
ATOM     18  O   UNL     1      -1.701   1.478  25.288  0.00  0.00    -0.156 OA
ATOM     19  O   UNL     1      -2.494   0.137  24.743  0.00  0.00    -0.156 OA
ENDBRANCH  15  16
ENDBRANCH  14  15
TORSDOF 3
ENDMDL
