MODEL 1
REMARK VINA RESULT:     -10.7      0.000      0.000
REMARK  Name = 
REMARK  5 active torsions:
REMARK  status: ('A' for Active; 'I' for Inactive)
REMARK    1  A    between atoms: C_3  and  C_4
REMARK    2  A    between atoms: C_4  and  N_5
REMARK    3  A    between atoms: C_6  and  C_8
REMARK    4  A    between atoms: C_16  and  N_17
REMARK    5  A    between atoms: N_17  and  C_18
REMARK                            x       y       z     vdW  Elec       q    Type
REMARK                         _______ _______ _______ _____ _____    ______ ____
ROOT
ATOM      1  O   UNL     1      -4.917   1.133  25.407  0.00  0.00    -0.219 OA
ATOM      2  C   UNL     1      -4.261   0.997  24.926  0.00  0.00    +0.199 C 
ATOM      3  C   UNL     1      -3.667   1.542  24.751  0.00  0.00    +0.169 C 
ATOM     14  O   UNL     1      -3.122   1.174  24.252  0.00  0.00    -0.350 OA
ATOM     15  C   UNL     1      -3.379   0.402  24.119  0.00  0.00    +0.162 C 
ATOM     16  C   UNL     1      -4.083   0.292  24.535  0.00  0.00    +0.135 C 
ENDROOT
BRANCH   3   4
ATOM      4  C   UNL     1      -3.625   2.319  25.026  0.00  0.00    +0.148 C 
BRANCH   4   5
ATOM      5  N   UNL     1      -2.925   2.748  24.946  0.00  0.00    -0.199 NA
ATOM      6  C   UNL     1      -2.847   3.481  25.314  0.00  0.00    +0.265 C 
ATOM      7  O   UNL     1      -3.468   3.787  25.762  0.00  0.00    -0.268 OA
BRANCH   6   8
ATOM      8  C   UNL     1      -2.146   3.911  25.235  0.00  0.00    +0.055 A 
ATOM      9  C   UNL     1      -2.173   4.727  25.124  0.00  0.00    +0.005 A 
ATOM     10  C   UNL     1      -1.473   5.156  25.045  0.00  0.00    +0.000 A 
ATOM     11  C   UNL     1      -0.745   4.768  25.076  0.00  0.00    +0.000 A 
ATOM     12  C   UNL     1      -0.719   3.951  25.187  0.00  0.00    +0.000 A 
ATOM     13  C   UNL     1      -1.419   3.522  25.266  0.00  0.00    +0.005 A 
ENDBRANCH   6   8
ENDBRANCH   4   5
ENDBRANCH   3   4
BRANCH  16  17
ATOM     17  N   UNL     1      -4.530  -0.400  24.557  0.00  0.00    -0.215 NA
BRANCH  17  18
ATOM     18  C   UNL     1      -4.155  -1.135  24.564  0.00  0.00    +0.078 C 
ATOM     19  C   UNL     1      -3.754  -1.388  25.239  0.00  0.00    +0.050 C 
ATOM     20  C   UNL     1      -3.379  -2.122  25.246  0.00  0.00    +0.144 C 
ATOM     21  O   UNL     1      -3.404  -2.604  24.577  0.00  0.00    -0.354 OA
ATOM     22  C   UNL     1      -3.805  -2.351  23.901  0.00  0.00    +0.144 C 
ATOM     23  C   UNL     1      -4.180  -1.617  23.895  0.00  0.00    +0.050 C 
ENDBRANCH  17  18
ENDBRANCH  16  17
TORSDOF 5
ENDMDL
MODEL 2
REMARK VINA RESULT:     -10.3      0.949      5.207
REMARK  Name = 
REMARK  5 active torsions:
REMARK  status: ('A' for Active; 'I' for Inactive)
REMARK    1  A    between atoms: C_3  and  C_4
REMARK    2  A    between atoms: C_4  and  N_5
REMARK    3  A    between atoms: C_6  and  C_8
REMARK    4  A    between atoms: C_16  and  N_17
REMARK    5  A    between atoms: N_17  and  C_18
REMARK                            x       y       z     vdW  Elec       q    Type
REMARK                         _______ _______ _______ _____ _____    ______ ____
ROOT
ATOM      1  O   UNL     1      -4.287   2.384  25.559  0.00  0.00    -0.219 OA
ATOM      2  C   UNL     1      -3.698   2.281  24.991  0.00  0.00    +0.199 C 
ATOM      3  C   UNL     1      -3.632   1.644  24.470  0.00  0.00    +0.169 C 
ATOM     14  O   UNL     1      -2.964   1.766  24.001  0.00  0.00    -0.350 OA
ATOM     15  C   UNL     1      -2.617   2.478  24.232  0.00  0.00    +0.162 C 
ATOM     16  C   UNL     1      -3.070   2.796  24.844  0.00  0.00    +0.135 C 
ENDROOT
BRANCH   3   4
ATOM      4  C   UNL     1      -4.145   0.999  24.427  0.00  0.00    +0.148 C 
BRANCH   4   5
ATOM      5  N   UNL     1      -3.848   0.232  24.489  0.00  0.00    -0.199 NA
ATOM      6  C   UNL     1      -4.358  -0.413  24.428  0.00  0.00    +0.265 C 
ATOM      7  O   UNL     1      -5.165  -0.292  24.304  0.00  0.00    -0.268 OA
BRANCH   6   8
ATOM      8  C   UNL     1      -4.062  -1.181  24.490  0.00  0.00    +0.055 A 
ATOM      9  C   UNL     1      -4.180  -1.720  23.878  0.00  0.00    +0.005 A 
ATOM     10  C   UNL     1      -3.884  -2.488  23.941  0.00  0.00    +0.000 A 
ATOM     11  C   UNL     1      -3.470  -2.716  24.617  0.00  0.00    +0.000 A 
ATOM     12  C   UNL     1      -3.351  -2.176  25.230  0.00  0.00    +0.000 A 
ATOM     13  C   UNL     1      -3.647  -1.409  25.167  0.00  0.00    +0.005 A 
ENDBRANCH   6   8
ENDBRANCH   4   5
ENDBRANCH   3   4
BRANCH  16  17
ATOM     17  N   UNL     1      -2.923   3.505  25.239  0.00  0.00    -0.215 NA
BRANCH  17  18
ATOM     18  C   UNL     1      -2.158   3.815  25.259  0.00  0.00    +0.078 C 
ATOM     19  C   UNL     1      -1.556   3.403  25.644  0.00  0.00    +0.050 C 
ATOM     20  C   UNL     1      -0.792   3.713  25.665  0.00  0.00    +0.144 C 
ATOM     21  O   UNL     1      -0.630   4.435  25.300  0.00  0.00    -0.354 OA
ATOM     22  C   UNL     1      -1.232   4.847  24.915  0.00  0.00    +0.144 C 
ATOM     23  C   UNL     1      -1.996   4.537  24.895  0.00  0.00    +0.050 C 
ENDBRANCH  17  18
ENDBRANCH  16  17
TORSDOF 5
ENDMDL
MODEL 3
REMARK VINA RESULT:     -10.2      1.463      1.942
REMARK  Name = 
REMARK  5 active torsions:
REMARK  status: ('A' for Active; 'I' for Inactive)
REMARK    1  A    between atoms: C_3  and  C_4
REMARK    2  A    between atoms: C_4  and  N_5
REMARK    3  A    between atoms: C_6  and  C_8
REMARK    4  A    between atoms: C_16  and  N_17
REMARK    5  A    between atoms: N_17  and  C_18
REMARK                            x       y       z     vdW  Elec       q    Type
REMARK                         _______ _______ _______ _____ _____    ______ ____
ROOT
ATOM      1  O   UNL     1      -0.681  -0.101  24.752  0.00  0.00    -0.219 OA
ATOM      2  C   UNL     1      -1.466   0.139  24.836  0.00  0.00    +0.199 C 
ATOM      3  C   UNL     1      -1.723   0.860  25.143  0.00  0.00    +0.169 C 
ATOM     14  O   UNL     1      -2.548   0.866  25.125  0.00  0.00    -0.350 OA
ATOM     15  C   UNL     1      -2.801   0.148  24.807  0.00  0.00    +0.162 C 
ATOM     16  C   UNL     1      -2.133  -0.302  24.629  0.00  0.00    +0.135 C 
ENDROOT
BRANCH   3   4
ATOM      4  C   UNL     1      -1.239   1.469  25.419  0.00  0.00    +0.148 C 
BRANCH   4   5
ATOM      5  N   UNL     1      -1.434   2.255  25.260  0.00  0.00    -0.199 NA
ATOM      6  C   UNL     1      -0.999   2.865  25.605  0.00  0.00    +0.265 C 
ATOM      7  O   UNL     1      -0.370   2.690  26.109  0.00  0.00    -0.268 OA
BRANCH   6   8
ATOM      8  C   UNL     1      -1.194   3.652  25.446  0.00  0.00    +0.055 A 
ATOM      9  C   UNL     1      -1.898   3.969  25.734  0.00  0.00    +0.005 A 
ATOM     10  C   UNL     1      -2.092   4.755  25.574  0.00  0.00    +0.000 A 
ATOM     11  C   UNL     1      -1.581   5.223  25.128  0.00  0.00    +0.000 A 
ATOM     12  C   UNL     1      -0.875   4.906  24.840  0.00  0.00    +0.000 A 
ATOM     13  C   UNL     1      -0.682   4.120  24.999  0.00  0.00    +0.005 A 
ENDBRANCH   6   8
ENDBRANCH   4   5
ENDBRANCH   3   4
BRANCH  16  17
ATOM     17  N   UNL     1      -2.131  -1.058  24.300  0.00  0.00    -0.215 NA
BRANCH  17  18
ATOM     18  C   UNL     1      -2.782  -1.554  24.403  0.00  0.00    +0.078 C 
ATOM     19  C   UNL     1      -3.422  -1.507  23.885  0.00  0.00    +0.050 C 
ATOM     20  C   UNL     1      -4.073  -2.004  23.988  0.00  0.00    +0.144 C 
ATOM     21  O   UNL     1      -4.084  -2.547  24.608  0.00  0.00    -0.354 OA
ATOM     22  C   UNL     1      -3.443  -2.595  25.126  0.00  0.00    +0.144 C 
ATOM     23  C   UNL     1      -2.792  -2.098  25.023  0.00  0.00    +0.050 C 
ENDBRANCH  17  18
ENDBRANCH  16  17
TORSDOF 5
ENDMDL
MODEL 4
REMARK VINA RESULT:     -10.1      1.602      5.558
REMARK  Name = 
REMARK  5 active torsions:
REMARK  status: ('A' for Active; 'I' for Inactive)
REMARK    1  A    between atoms: C_3  and  C_4
REMARK    2  A    between atoms: C_4  and  N_5
REMARK    3  A    between atoms: C_6  and  C_8
REMARK    4  A    between atoms: C_16  and  N_17
REMARK    5  A    between atoms: N_17  and  C_18
REMARK                            x       y       z     vdW  Elec       q    Type
REMARK                         _______ _______ _______ _____ _____    ______ ____
ROOT
ATOM      1  O   UNL     1      -0.585   1.021  26.065  0.00  0.00    -0.219 OA
ATOM      2  C   UNL     1      -1.020   1.299  25.421  0.00  0.00    +0.199 C 
ATOM      3  C   UNL     1      -1.403   0.834  24.858  0.00  0.00    +0.169 C 
ATOM     14  O   UNL     1      -1.767   1.339  24.315  0.00  0.00    -0.350 OA
ATOM     15  C   UNL     1      -1.609   2.116  24.543  0.00  0.00    +0.162 C 
ATOM     16  C   UNL     1      -1.146   2.092  25.227  0.00  0.00    +0.135 C 
ENDROOT
BRANCH   3   4
ATOM      4  C   UNL     1      -1.420   0.009  24.840  0.00  0.00    +0.148 C 
BRANCH   4   5
ATOM      5  N   UNL     1      -2.127  -0.385  24.684  0.00  0.00    -0.199 NA
ATOM      6  C   UNL     1      -2.130  -1.205  24.590  0.00  0.00    +0.265 C 
ATOM      7  O   UNL     1      -1.425  -1.630  24.653  0.00  0.00    -0.268 OA
BRANCH   6   8
ATOM      8  C   UNL     1      -2.837  -1.600  24.434  0.00  0.00    +0.055 A 
ATOM      9  C   UNL     1      -3.457  -1.205  24.060  0.00  0.00    +0.005 A 
ATOM     10  C   UNL     1      -4.163  -1.601  23.904  0.00  0.00    +0.000 A 
ATOM     11  C   UNL     1      -4.250  -2.392  24.121  0.00  0.00    +0.000 A 
ATOM     12  C   UNL     1      -3.630  -2.788  24.495  0.00  0.00    +0.000 A 
ATOM     13  C   UNL     1      -2.923  -2.392  24.651  0.00  0.00    +0.005 A 
ENDBRANCH   6   8
ENDBRANCH   4   5
ENDBRANCH   3   4
BRANCH  16  17
ATOM     17  N   UNL     1      -0.861   2.744  25.643  0.00  0.00    -0.215 NA
BRANCH  17  18
ATOM     18  C   UNL     1      -1.195   3.489  25.522  0.00  0.00    +0.078 C 
ATOM     19  C   UNL     1      -0.798   4.051  25.068  0.00  0.00    +0.050 C 
ATOM     20  C   UNL     1      -1.132   4.795  24.947  0.00  0.00    +0.144 C 
ATOM     21  O   UNL     1      -1.864   4.978  25.282  0.00  0.00    -0.354 OA
ATOM     22  C   UNL     1      -2.262   4.416  25.737  0.00  0.00    +0.144 C 
ATOM     23  C   UNL     1      -1.927   3.671  25.857  0.00  0.00    +0.050 C 
ENDBRANCH  17  18
ENDBRANCH  16  17
TORSDOF 5
ENDMDL
MODEL 5
REMARK VINA RESULT:      -8.7     16.120     18.534
REMARK  Name = 
REMARK  5 active torsions:
REMARK  status: ('A' for Active; 'I' for Inactive)
REMARK    1  A    between atoms: C_3  and  C_4
REMARK    2  A    between atoms: C_4  and  N_5
REMARK    3  A    between atoms: C_6  and  C_8
REMARK    4  A    between atoms: C_16  and  N_17
REMARK    5  A    between atoms: N_17  and  C_18
REMARK                            x       y       z     vdW  Elec       q    Type
REMARK                         _______ _______ _______ _____ _____    ______ ____
ROOT
ATOM      1  O   UNL     1      12.081   7.762  18.977  0.00  0.00    -0.219 OA
ATOM      2  C   UNL     1      12.346   7.418  19.679  0.00  0.00    +0.199 C 
ATOM      3  C   UNL     1      13.105   7.128  19.820  0.00  0.00    +0.169 C 
ATOM     14  O   UNL     1      13.128   6.836  20.591  0.00  0.00    -0.350 OA
ATOM     15  C   UNL     1      12.382   6.945  20.927  0.00  0.00    +0.162 C 
ATOM     16  C   UNL     1      11.899   7.305  20.363  0.00  0.00    +0.135 C 
ENDROOT
BRANCH   3   4
ATOM      4  C   UNL     1      13.733   7.130  19.283  0.00  0.00    +0.148 C 
BRANCH   4   5
ATOM      5  N   UNL     1      14.491   6.925  19.535  0.00  0.00    -0.199 NA
ATOM      6  C   UNL     1      15.129   6.990  19.016  0.00  0.00    +0.265 C 
ATOM      7  O   UNL     1      15.009   7.260  18.246  0.00  0.00    -0.268 OA
BRANCH   6   8
ATOM      8  C   UNL     1      15.888   6.785  19.267  0.00  0.00    +0.055 A 
ATOM      9  C   UNL     1      16.277   7.249  19.826  0.00  0.00    +0.005 A 
ATOM     10  C   UNL     1      17.036   7.043  20.077  0.00  0.00    +0.000 A 
ATOM     11  C   UNL     1      17.405   6.373  19.768  0.00  0.00    +0.000 A 
ATOM     12  C   UNL     1      17.015   5.909  19.209  0.00  0.00    +0.000 A 
ATOM     13  C   UNL     1      16.257   6.114  18.958  0.00  0.00    +0.005 A 
ENDBRANCH   6   8
ENDBRANCH   4   5
ENDBRANCH   3   4
BRANCH  16  17
ATOM     17  N   UNL     1      11.108   7.515  20.466  0.00  0.00    -0.215 NA
BRANCH  17  18
ATOM     18  C   UNL     1      10.862   7.865  21.171  0.00  0.00    +0.078 C 
ATOM     19  C   UNL     1      10.923   8.681  21.270  0.00  0.00    +0.050 C 
ATOM     20  C   UNL     1      10.676   9.031  21.976  0.00  0.00    +0.144 C 
ATOM     21  O   UNL     1      10.368   8.564  22.582  0.00  0.00    -0.354 OA
ATOM     22  C   UNL     1      10.306   7.747  22.482  0.00  0.00    +0.144 C 
ATOM     23  C   UNL     1      10.553   7.398  21.777  0.00  0.00    +0.050 C 
ENDBRANCH  17  18
ENDBRANCH  16  17
TORSDOF 5
ENDMDL
MODEL 6
REMARK VINA RESULT:      -7.9     16.300     18.729
REMARK  Name = 
REMARK  5 active torsions:
REMARK  status: ('A' for Active; 'I' for Inactive)
REMARK    1  A    between atoms: C_3  and  C_4
REMARK    2  A    between atoms: C_4  and  N_5
REMARK    3  A    between atoms: C_6  and  C_8
REMARK    4  A    between atoms: C_16  and  N_17
REMARK    5  A    between atoms: N_17  and  C_18
REMARK                            x       y       z     vdW  Elec       q    Type
REMARK                         _______ _______ _______ _____ _____    ______ ____
ROOT
ATOM      1  O   UNL     1      13.788   8.013  18.527  0.00  0.00    -0.219 OA
ATOM      2  C   UNL     1      13.922   7.519  19.173  0.00  0.00    +0.199 C 
ATOM      3  C   UNL     1      13.360   7.285  19.730  0.00  0.00    +0.169 C 
ATOM     14  O   UNL     1      13.733   6.792  20.277  0.00  0.00    -0.350 OA
ATOM     15  C   UNL     1      14.525   6.722  20.059  0.00  0.00    +0.162 C 
ATOM     16  C   UNL     1      14.643   7.171  19.376  0.00  0.00    +0.135 C 
ENDROOT
BRANCH   3   4
ATOM      4  C   UNL     1      12.565   7.505  19.737  0.00  0.00    +0.148 C 
BRANCH   4   5
ATOM      5  N   UNL     1      12.201   7.711  20.448  0.00  0.00    -0.199 NA
ATOM      6  C   UNL     1      11.402   7.913  20.459  0.00  0.00    +0.265 C 
ATOM      7  O   UNL     1      10.966   7.909  19.758  0.00  0.00    -0.268 OA
BRANCH   6   8
ATOM      8  C   UNL     1      11.037   8.119  21.170  0.00  0.00    +0.055 A 
ATOM      9  C   UNL     1      11.104   8.888  21.460  0.00  0.00    +0.005 A 
ATOM     10  C   UNL     1      10.739   9.094  22.171  0.00  0.00    +0.000 A 
ATOM     11  C   UNL     1      10.307   8.531  22.591  0.00  0.00    +0.000 A 
ATOM     12  C   UNL     1      10.240   7.761  22.301  0.00  0.00    +0.000 A 
ATOM     13  C   UNL     1      10.605   7.555  21.590  0.00  0.00    +0.005 A 
ENDBRANCH   6   8
ENDBRANCH   4   5
ENDBRANCH   3   4
BRANCH  16  17
ATOM     17  N   UNL     1      15.355   7.256  18.969  0.00  0.00    -0.215 NA
BRANCH  17  18
ATOM     18  C   UNL     1      16.038   6.890  19.250  0.00  0.00    +0.078 C 
ATOM     19  C   UNL     1      16.268   6.158  18.948  0.00  0.00    +0.050 C 
ATOM     20  C   UNL     1      16.951   5.791  19.229  0.00  0.00    +0.144 C 
ATOM     21  O   UNL     1      17.405   6.157  19.813  0.00  0.00    -0.354 OA
ATOM     22  C   UNL     1      17.176   6.890  20.115  0.00  0.00    +0.144 C 
ATOM     23  C   UNL     1      16.492   7.256  19.834  0.00  0.00    +0.050 C 
ENDBRANCH  17  18
ENDBRANCH  16  17
TORSDOF 5
ENDMDL
MODEL 7
REMARK VINA RESULT:      -7.7     17.592     19.337
REMARK  Name = 
REMARK  5 active torsions:
REMARK  status: ('A' for Active; 'I' for Inactive)
REMARK    1  A    between atoms: C_3  and  C_4
REMARK    2  A    between atoms: C_4  and  N_5
REMARK    3  A    between atoms: C_6  and  C_8
REMARK    4  A    between atoms: C_16  and  N_17
REMARK    5  A    between atoms: N_17  and  C_18
REMARK                            x       y       z     vdW  Elec       q    Type
REMARK                         _______ _______ _______ _____ _____    ______ ____
ROOT
ATOM      1  O   UNL     1      13.260   6.749  20.323  0.00  0.00    -0.219 OA
ATOM      2  C   UNL     1      13.710   6.981  19.672  0.00  0.00    +0.199 C 
ATOM      3  C   UNL     1      13.427   7.364  18.999  0.00  0.00    +0.169 C 
ATOM     14  O   UNL     1      14.064   7.491  18.490  0.00  0.00    -0.350 OA
ATOM     15  C   UNL     1      14.741   7.186  18.849  0.00  0.00    +0.162 C 
ATOM     16  C   UNL     1      14.522   6.871  19.580  0.00  0.00    +0.135 C 
ENDROOT
BRANCH   3   4
ATOM      4  C   UNL     1      12.643   7.583  18.858  0.00  0.00    +0.148 C 
BRANCH   4   5
ATOM      5  N   UNL     1      12.421   7.870  18.118  0.00  0.00    -0.199 NA
ATOM      6  C   UNL     1      11.673   8.198  18.010  0.00  0.00    +0.265 C 
ATOM      7  O   UNL     1      11.145   8.239  18.643  0.00  0.00    -0.268 OA
BRANCH   6   8
ATOM      8  C   UNL     1      11.450   8.485  17.269  0.00  0.00    +0.055 A 
ATOM      9  C   UNL     1      12.017   8.806  16.763  0.00  0.00    +0.005 A 
ATOM     10  C   UNL     1      11.794   9.093  16.023  0.00  0.00    +0.000 A 
ATOM     11  C   UNL     1      11.004   9.059  15.788  0.00  0.00    +0.000 A 
ATOM     12  C   UNL     1      10.436   8.738  16.294  0.00  0.00    +0.000 A 
ATOM     13  C   UNL     1      10.659   8.451  17.035  0.00  0.00    +0.005 A 
ENDBRANCH   6   8
ENDBRANCH   4   5
ENDBRANCH   3   4
BRANCH  16  17
ATOM     17  N   UNL     1      15.027   6.509  20.122  0.00  0.00    -0.215 NA
BRANCH  17  18
ATOM     18  C   UNL     1      15.817   6.742  20.170  0.00  0.00    +0.078 C 
ATOM     19  C   UNL     1      16.405   6.281  19.821  0.00  0.00    +0.050 C 
ATOM     20  C   UNL     1      17.195   6.513  19.869  0.00  0.00    +0.144 C 
ATOM     21  O   UNL     1      17.397   7.207  20.267  0.00  0.00    -0.354 OA
ATOM     22  C   UNL     1      16.809   7.669  20.616  0.00  0.00    +0.144 C 
ATOM     23  C   UNL     1      16.019   7.436  20.568  0.00  0.00    +0.050 C 
ENDBRANCH  17  18
ENDBRANCH  16  17
TORSDOF 5
ENDMDL
MODEL 8
REMARK VINA RESULT:      -6.8     16.158     18.681
REMARK  Name = 
REMARK  5 active torsions:
REMARK  status: ('A' for Active; 'I' for Inactive)
REMARK    1  A    between atoms: C_3  and  C_4
REMARK    2  A    between atoms: C_4  and  N_5
REMARK    3  A    between atoms: C_6  and  C_8
REMARK    4  A    between atoms: C_16  and  N_17
REMARK    5  A    between atoms: N_17  and  C_18
REMARK                            x       y       z     vdW  Elec       q    Type
REMARK                         _______ _______ _______ _____ _____    ______ ____
ROOT
ATOM      1  O   UNL     1      14.465   8.533  19.386  0.00  0.00    -0.219 OA
ATOM      2  C   UNL     1      13.907   8.099  18.963  0.00  0.00    +0.199 C 
ATOM      3  C   UNL     1      13.357   7.573  19.282  0.00  0.00    +0.169 C 
ATOM     14  O   UNL     1      12.910   7.263  18.662  0.00  0.00    -0.350 OA
ATOM     15  C   UNL     1      13.183   7.597  17.959  0.00  0.00    +0.162 C 
ATOM     16  C   UNL     1      13.799   8.113  18.145  0.00  0.00    +0.135 C 
ENDROOT
BRANCH   3   4
ATOM      4  C   UNL     1      13.270   7.389  20.082  0.00  0.00    +0.148 C 
BRANCH   4   5
ATOM      5  N   UNL     1      12.544   7.506  20.456  0.00  0.00    -0.199 NA
ATOM      6  C   UNL     1      12.441   7.274  21.240  0.00  0.00    +0.265 C 
ATOM      7  O   UNL     1      13.065   6.924  21.652  0.00  0.00    -0.268 OA
BRANCH   6   8
ATOM      8  C   UNL     1      11.715   7.391  21.614  0.00  0.00    +0.055 A 
ATOM      9  C   UNL     1      11.555   8.107  21.990  0.00  0.00    +0.005 A 
ATOM     10  C   UNL     1      10.829   8.223  22.364  0.00  0.00    +0.000 A 
ATOM     11  C   UNL     1      10.262   7.623  22.361  0.00  0.00    +0.000 A 
ATOM     12  C   UNL     1      10.423   6.906  21.985  0.00  0.00    +0.000 A 
ATOM     13  C   UNL     1      11.149   6.790  21.611  0.00  0.00    +0.005 A 
ENDBRANCH   6   8
ENDBRANCH   4   5
ENDBRANCH   3   4
BRANCH  16  17
ATOM     17  N   UNL     1      14.232   8.565  17.607  0.00  0.00    -0.215 NA
BRANCH  17  18
ATOM     18  C   UNL     1      14.000   8.599  16.816  0.00  0.00    +0.078 C 
ATOM     19  C   UNL     1      14.417   8.175  16.245  0.00  0.00    +0.050 C 
ATOM     20  C   UNL     1      14.186   8.209  15.454  0.00  0.00    +0.144 C 
ATOM     21  O   UNL     1      13.537   8.668  15.234  0.00  0.00    -0.354 OA
ATOM     22  C   UNL     1      13.120   9.094  15.805  0.00  0.00    +0.144 C 
ATOM     23  C   UNL     1      13.352   9.059  16.596  0.00  0.00    +0.050 C 
ENDBRANCH  17  18
ENDBRANCH  16  17
TORSDOF 5
ENDMDL
