MODEL 1
REMARK VINA RESULT:      -9.6      0.000      0.000
REMARK  Name = 
REMARK  9 active torsions:
REMARK  status: ('A' for Active; 'I' for Inactive)
REMARK    1  A    between atoms: C_2  and  C_4
REMARK    2  A    between atoms: C_4  and  C_6
REMARK    3  A    between atoms: N_8  and  C_9
REMARK    4  A    between atoms: C_11  and  C_17
REMARK    5  A    between atoms: N_19  and  C_20
REMARK    6  A    between atoms: C_20  and  C_21
REMARK    7  A    between atoms: C_20  and  C_27
REMARK    8  A    between atoms: C_21  and  C_22
REMARK    9  A    between atoms: C_22  and  S_23
REMARK                            x       y       z     vdW  Elec       q    Type
REMARK                         _______ _______ _______ _____ _____    ______ ____
ROOT
ATOM      9  C   UNL     1      -1.855   0.024  24.722  0.00  0.00    +0.150 C 
ATOM     10  C   UNL     1      -2.221   0.763  24.728  0.00  0.00    -0.002 C 
ATOM     11  C   UNL     1      -1.819   1.425  24.445  0.00  0.00    +0.033 C 
ATOM     12  C   UNL     1      -1.049   1.348  24.155  0.00  0.00    +0.066 C 
ATOM     13  C   UNL     1      -0.683   0.608  24.149  0.00  0.00    +0.189 C 
ATOM     14  O   UNL     1       0.085   0.531  23.860  0.00  0.00    -0.220 OA
ATOM     15  C   UNL     1      -1.085  -0.053  24.433  0.00  0.00    +0.206 C 
ATOM     16  O   UNL     1      -0.720  -0.793  24.427  0.00  0.00    -0.218 OA
ENDROOT
BRANCH   9   8
ATOM      6  C   UNL     1      -2.990  -0.844  24.690  0.00  0.00    +0.259 C 
ATOM      7  O   UNL     1      -3.323  -0.385  24.088  0.00  0.00    -0.272 OA
ATOM      8  N   UNL     1      -2.257  -0.639  25.006  0.00  0.00    -0.199 NA
BRANCH   6   4
ATOM      4  C   UNL     1      -3.392  -1.506  24.973  0.00  0.00    +0.169 C 
ATOM      5  N   UNL     1      -3.485  -1.615  25.786  0.00  0.00    -0.123 NA
BRANCH   4   2
ATOM      1  C   UNL     1      -4.302  -1.842  23.924  0.00  0.00    +0.002 C 
ATOM      2  C   UNL     1      -3.700  -2.059  24.445  0.00  0.00    +0.027 C 
ATOM      3  C   UNL     1      -3.407  -2.831  24.438  0.00  0.00    +0.002 C 
ENDBRANCH   4   2
ENDBRANCH   6   4
ENDBRANCH   9   8
BRANCH  11  17
ATOM     17  C   UNL     1      -2.184   2.164  24.451  0.00  0.00    +0.261 C 
ATOM     18  O   UNL     1      -2.351   2.547  23.740  0.00  0.00    -0.269 OA
ATOM     19  N   UNL     1      -2.383   2.520  25.168  0.00  0.00    -0.194 NA
BRANCH  19  20
ATOM     20  C   UNL     1      -2.749   3.259  25.174  0.00  0.00    +0.176 C 
BRANCH  20  27
ATOM     27  C   UNL     1      -2.301   3.940  25.309  0.00  0.00    +0.281 C 
ATOM     28  N   UNL     1      -1.889   4.028  26.020  0.00  0.00    -0.086 NA
ATOM     29  O   UNL     1      -2.265   4.531  24.735  0.00  0.00    -0.270 OA
ENDBRANCH  20  27
BRANCH  20  21
ATOM     21  C   UNL     1      -3.561   3.319  25.046  0.00  0.00    +0.056 C 
BRANCH  21  22
ATOM     22  C   UNL     1      -4.077   3.374  25.688  0.00  0.00    +0.153 C 
BRANCH  22  23
ATOM     23  S   UNL     1      -4.891   3.306  25.570  0.00  0.00    -0.008 S 
ATOM     24  C   UNL     1      -5.705   3.239  25.452  0.00  0.00    +0.176 C 
ATOM     25  O   UNL     1      -4.910   4.071  25.260  0.00  0.00    -0.173 OA
ATOM     26  O   UNL     1      -4.872   2.542  25.881  0.00  0.00    -0.173 OA
ENDBRANCH  22  23
ENDBRANCH  21  22
ENDBRANCH  20  21
ENDBRANCH  19  20
ENDBRANCH  11  17
TORSDOF 9
ENDMDL
MODEL 2
REMARK VINA RESULT:      -9.6      1.624      5.133
REMARK  Name = 
REMARK  9 active torsions:
REMARK  status: ('A' for Active; 'I' for Inactive)
REMARK    1  A    between atoms: C_2  and  C_4
REMARK    2  A    between atoms: C_4  and  C_6
REMARK    3  A    between atoms: N_8  and  C_9
REMARK    4  A    between atoms: C_11  and  C_17
REMARK    5  A    between atoms: N_19  and  C_20
REMARK    6  A    between atoms: C_20  and  C_21
REMARK    7  A    between atoms: C_20  and  C_27
REMARK    8  A    between atoms: C_21  and  C_22
REMARK    9  A    between atoms: C_22  and  S_23
REMARK                            x       y       z     vdW  Elec       q    Type
REMARK                         _______ _______ _______ _____ _____    ______ ____
ROOT
ATOM      9  C   UNL     1      -4.103   2.468  25.373  0.00  0.00    +0.150 C 
ATOM     10  C   UNL     1      -3.732   1.764  25.160  0.00  0.00    -0.002 C 
ATOM     11  C   UNL     1      -4.166   1.159  24.803  0.00  0.00    +0.033 C 
ATOM     12  C   UNL     1      -4.973   1.260  24.660  0.00  0.00    +0.066 C 
ATOM     13  C   UNL     1      -5.344   1.965  24.874  0.00  0.00    +0.189 C 
ATOM     14  O   UNL     1      -6.151   2.066  24.731  0.00  0.00    -0.220 OA
ATOM     15  C   UNL     1      -4.910   2.569  25.230  0.00  0.00    +0.206 C 
ATOM     16  O   UNL     1      -5.282   3.274  25.444  0.00  0.00    -0.218 OA
ENDROOT
BRANCH   9   8
ATOM      6  C   UNL     1      -3.021   3.400  25.341  0.00  0.00    +0.259 C 
ATOM      7  O   UNL     1      -2.804   3.123  24.593  0.00  0.00    -0.272 OA
ATOM      8  N   UNL     1      -3.669   3.073  25.730  0.00  0.00    -0.199 NA
BRANCH   6   4
ATOM      4  C   UNL     1      -2.587   4.005  25.698  0.00  0.00    +0.169 C 
ATOM      5  N   UNL     1      -2.866   4.361  26.387  0.00  0.00    -0.123 NA
BRANCH   4   2
ATOM      1  C   UNL     1      -1.836   4.968  24.955  0.00  0.00    +0.002 C 
ATOM      2  C   UNL     1      -1.874   4.253  25.366  0.00  0.00    +0.027 C 
ATOM      3  C   UNL     1      -1.197   3.786  25.443  0.00  0.00    +0.002 C 
ENDBRANCH   4   2
ENDBRANCH   6   4
ENDBRANCH   9   8
BRANCH  11  17
ATOM     17  C   UNL     1      -3.794   0.455  24.589  0.00  0.00    +0.261 C 
ATOM     18  O   UNL     1      -3.746   0.239  23.795  0.00  0.00    -0.269 OA
ATOM     19  N   UNL     1      -3.471  -0.033  25.170  0.00  0.00    -0.194 NA
BRANCH  19  20
ATOM     20  C   UNL     1      -3.099  -0.738  24.957  0.00  0.00    +0.176 C 
BRANCH  20  27
ATOM     27  C   UNL     1      -3.482  -1.459  25.079  0.00  0.00    +0.281 C 
ATOM     28  N   UNL     1      -3.700  -1.925  24.434  0.00  0.00    -0.086 NA
ATOM     29  O   UNL     1      -3.646  -1.714  25.847  0.00  0.00    -0.270 OA
ENDBRANCH  20  27
BRANCH  20  21
ATOM     21  C   UNL     1      -2.346  -0.722  24.622  0.00  0.00    +0.056 C 
BRANCH  21  22
ATOM     22  C   UNL     1      -1.683  -0.870  25.091  0.00  0.00    +0.153 C 
BRANCH  22  23
ATOM     23  S   UNL     1      -0.926  -0.737  24.790  0.00  0.00    -0.008 S 
ATOM     24  C   UNL     1      -0.170  -0.603  24.488  0.00  0.00    +0.176 C 
ATOM     25  O   UNL     1      -0.853  -0.069  25.269  0.00  0.00    -0.173 OA
ATOM     26  O   UNL     1      -1.000  -1.404  24.311  0.00  0.00    -0.173 OA
ENDBRANCH  22  23
ENDBRANCH  21  22
ENDBRANCH  20  21
ENDBRANCH  19  20
ENDBRANCH  11  17
TORSDOF 9
ENDMDL
MODEL 3
REMARK VINA RESULT:      -9.5      1.546      2.812
REMARK  Name = 
REMARK  9 active torsions:
REMARK  status: ('A' for Active; 'I' for Inactive)
REMARK    1  A    between atoms: C_2  and  C_4
REMARK    2  A    between atoms: C_4  and  C_6
REMARK    3  A    between atoms: N_8  and  C_9
REMARK    4  A    between atoms: C_11  and  C_17
REMARK    5  A    between atoms: N_19  and  C_20
REMARK    6  A    between atoms: C_20  and  C_21
REMARK    7  A    between atoms: C_20  and  C_27
REMARK    8  A    between atoms: C_21  and  C_22
REMARK    9  A    between atoms: C_22  and  S_23
REMARK                            x       y       z     vdW  Elec       q    Type
REMARK                         _______ _______ _______ _____ _____    ______ ____
ROOT
ATOM      9  C   UNL     1      -3.877   0.548  24.935  0.00  0.00    +0.150 C 
ATOM     10  C   UNL     1      -3.150   0.909  24.789  0.00  0.00    -0.002 C 
ATOM     11  C   UNL     1      -3.123   1.693  24.532  0.00  0.00    +0.033 C 
ATOM     12  C   UNL     1      -3.824   2.116  24.422  0.00  0.00    +0.066 C 
ATOM     13  C   UNL     1      -4.551   1.753  24.569  0.00  0.00    +0.189 C 
ATOM     14  O   UNL     1      -5.251   2.176  24.459  0.00  0.00    -0.220 OA
ATOM     15  C   UNL     1      -4.578   0.970  24.825  0.00  0.00    +0.206 C 
ATOM     16  O   UNL     1      -5.305   0.608  24.971  0.00  0.00    -0.218 OA
ENDROOT
BRANCH   9   8
ATOM      6  C   UNL     1      -3.562  -0.832  24.736  0.00  0.00    +0.259 C 
ATOM      7  O   UNL     1      -3.190  -0.644  24.022  0.00  0.00    -0.272 OA
ATOM      8  N   UNL     1      -3.904  -0.236  25.191  0.00  0.00    -0.199 NA
BRANCH   6   4
ATOM      4  C   UNL     1      -3.589  -1.616  24.992  0.00  0.00    +0.169 C 
ATOM      5  N   UNL     1      -3.664  -1.784  25.796  0.00  0.00    -0.123 NA
BRANCH   4   2
ATOM      1  C   UNL     1      -2.844  -2.665  24.370  0.00  0.00    +0.002 C 
ATOM      2  C   UNL     1      -3.542  -2.231  24.445  0.00  0.00    +0.027 C 
ATOM      3  C   UNL     1      -4.193  -2.413  23.972  0.00  0.00    +0.002 C 
ENDBRANCH   4   2
ENDBRANCH   6   4
ENDBRANCH   9   8
BRANCH  11  17
ATOM     17  C   UNL     1      -2.396   2.054  24.386  0.00  0.00    +0.261 C 
ATOM     18  O   UNL     1      -2.139   2.164  23.611  0.00  0.00    -0.269 OA
ATOM     19  N   UNL     1      -1.927   2.306  25.016  0.00  0.00    -0.194 NA
BRANCH  19  20
ATOM     20  C   UNL     1      -1.200   2.667  24.871  0.00  0.00    +0.176 C 
BRANCH  20  27
ATOM     27  C   UNL     1      -0.503   2.228  24.928  0.00  0.00    +0.281 C 
ATOM     28  N   UNL     1      -0.290   1.883  25.647  0.00  0.00    -0.086 NA
ATOM     29  O   UNL     1      -0.019   2.135  24.266  0.00  0.00    -0.270 OA
ENDBRANCH  20  27
BRANCH  20  21
ATOM     21  C   UNL     1      -1.169   3.466  24.670  0.00  0.00    +0.056 C 
BRANCH  21  22
ATOM     22  C   UNL     1      -1.046   4.035  25.255  0.00  0.00    +0.153 C 
BRANCH  22  23
ATOM     23  S   UNL     1      -1.171   4.833  25.087  0.00  0.00    -0.008 S 
ATOM     24  C   UNL     1      -1.296   5.631  24.919  0.00  0.00    +0.176 C 
ATOM     25  O   UNL     1      -1.859   4.820  25.541  0.00  0.00    -0.173 OA
ATOM     26  O   UNL     1      -0.482   4.845  24.633  0.00  0.00    -0.173 OA
ENDBRANCH  22  23
ENDBRANCH  21  22
ENDBRANCH  20  21
ENDBRANCH  19  20
ENDBRANCH  11  17
TORSDOF 9
ENDMDL
MODEL 4
REMARK VINA RESULT:      -9.1      1.708      4.398
REMARK  Name = 
REMARK  9 active torsions:
REMARK  status: ('A' for Active; 'I' for Inactive)
REMARK    1  A    between atoms: C_2  and  C_4
REMARK    2  A    between atoms: C_4  and  C_6
REMARK    3  A    between atoms: N_8  and  C_9
REMARK    4  A    between atoms: C_11  and  C_17
REMARK    5  A    between atoms: N_19  and  C_20
REMARK    6  A    between atoms: C_20  and  C_21
REMARK    7  A    between atoms: C_20  and  C_27
REMARK    8  A    between atoms: C_21  and  C_22
REMARK    9  A    between atoms: C_22  and  S_23
REMARK                            x       y       z     vdW  Elec       q    Type
REMARK                         _______ _______ _______ _____ _____    ______ ____
ROOT
ATOM      9  C   UNL     1      -2.170   2.492  25.063  0.00  0.00    +0.150 C 
ATOM     10  C   UNL     1      -2.076   1.727  24.770  0.00  0.00    -0.002 C 
ATOM     11  C   UNL     1      -1.415   1.281  24.983  0.00  0.00    +0.033 C 
ATOM     12  C   UNL     1      -0.847   1.602  25.490  0.00  0.00    +0.066 C 
ATOM     13  C   UNL     1      -0.941   2.368  25.782  0.00  0.00    +0.189 C 
ATOM     14  O   UNL     1      -0.374   2.688  26.288  0.00  0.00    -0.220 OA
ATOM     15  C   UNL     1      -1.602   2.813  25.569  0.00  0.00    +0.206 C 
ATOM     16  O   UNL     1      -1.696   3.579  25.862  0.00  0.00    -0.218 OA
ENDROOT
BRANCH   9   8
ATOM      6  C   UNL     1      -3.588   2.630  24.957  0.00  0.00    +0.259 C 
ATOM      7  O   UNL     1      -3.686   1.875  25.277  0.00  0.00    -0.272 OA
ATOM      8  N   UNL     1      -2.831   2.938  24.850  0.00  0.00    -0.199 NA
BRANCH   6   4
ATOM      4  C   UNL     1      -4.249   3.076  24.744  0.00  0.00    +0.169 C 
ATOM      5  N   UNL     1      -4.182   3.662  24.167  0.00  0.00    -0.123 NA
BRANCH   4   2
ATOM      1  C   UNL     1      -5.447   2.305  24.860  0.00  0.00    +0.002 C 
ATOM      2  C   UNL     1      -4.976   2.936  25.107  0.00  0.00    +0.027 C 
ATOM      3  C   UNL     1      -5.233   3.428  25.719  0.00  0.00    +0.002 C 
ENDBRANCH   4   2
ENDBRANCH   6   4
ENDBRANCH   9   8
BRANCH  11  17
ATOM     17  C   UNL     1      -1.321   0.516  24.691  0.00  0.00    +0.261 C 
ATOM     18  O   UNL     1      -1.084   0.399  23.910  0.00  0.00    -0.269 OA
ATOM     19  N   UNL     1      -1.465  -0.133  25.180  0.00  0.00    -0.194 NA
BRANCH  19  20
ATOM     20  C   UNL     1      -1.371  -0.899  24.888  0.00  0.00    +0.176 C 
BRANCH  20  27
ATOM     27  C   UNL     1      -0.648  -1.287  24.973  0.00  0.00    +0.281 C 
ATOM     28  N   UNL     1      -0.399  -1.537  25.720  0.00  0.00    -0.086 NA
ATOM     29  O   UNL     1      -0.173  -1.424  24.312  0.00  0.00    -0.270 OA
ENDBRANCH  20  27
BRANCH  20  21
ATOM     21  C   UNL     1      -2.000  -1.276  24.511  0.00  0.00    +0.056 C 
BRANCH  21  22
ATOM     22  C   UNL     1      -2.523  -1.743  24.948  0.00  0.00    +0.153 C 
BRANCH  22  23
ATOM     23  S   UNL     1      -3.213  -2.028  24.598  0.00  0.00    -0.008 S 
ATOM     24  C   UNL     1      -3.903  -2.313  24.247  0.00  0.00    +0.176 C 
ATOM     25  O   UNL     1      -3.659  -1.493  25.041  0.00  0.00    -0.173 OA
ATOM     26  O   UNL     1      -2.767  -2.562  24.154  0.00  0.00    -0.173 OA
ENDBRANCH  22  23
ENDBRANCH  21  22
ENDBRANCH  20  21
ENDBRANCH  19  20
ENDBRANCH  11  17
TORSDOF 9
ENDMDL
