MODEL 1
REMARK VINA RESULT:     -17.3      0.000      0.000
REMARK  Name = 
REMARK  4 active torsions:
REMARK  status: ('A' for Active; 'I' for Inactive)
REMARK    1  A    between atoms: N_9  and  C_10
REMARK    2  A    between atoms: C_10  and  C_11
REMARK    3  A    between atoms: C_24  and  C_25
REMARK    4  A    between atoms: C_27  and  C_31
REMARK                            x       y       z     vdW  Elec       q    Type
REMARK                         _______ _______ _______ _____ _____    ______ ____
ROOT
ATOM      1  O   UNL     1      -2.463   1.877  24.808  0.00  0.00    -0.267 OA
ATOM      2  C   UNL     1      -3.120   2.325  25.029  0.00  0.00    +0.261 A 
ATOM      3  N   UNL     1      -3.870   1.980  25.042  0.00  0.00    -0.299 N 
ATOM      4  C   UNL     1      -4.031   2.763  25.284  0.00  0.00    +0.110 C 
ATOM      5  C   UNL     1      -5.009   2.700  25.409  0.00  0.00    +0.039 C 
ATOM      6  C   UNL     1      -5.802   2.812  25.556  0.00  0.00    +0.011 C 
ATOM      7  C   UNL     1      -5.382   2.290  25.348  0.00  0.00    +0.054 C 
ATOM      8  C   UNL     1      -5.399   1.404  25.103  0.00  0.00    +0.078 C 
ATOM      9  N   UNL     1      -4.607   1.296  24.957  0.00  0.00    -0.266 NA
ATOM     20  C   UNL     1      -5.017   1.775  25.151  0.00  0.00    +0.074 C 
ATOM     21  C   UNL     1      -4.526   2.428  25.262  0.00  0.00    +0.041 A 
ATOM     22  C   UNL     1      -4.433   3.220  25.471  0.00  0.00    +0.013 A 
ATOM     23  C   UNL     1      -3.685   3.565  25.459  0.00  0.00    +0.006 A 
ATOM     24  C   UNL     1      -3.028   3.118  25.238  0.00  0.00    +0.056 A 
ENDROOT
BRANCH  24  25
ATOM     25  C   UNL     1      -2.278   3.463  25.225  0.00  0.00    +0.005 A 
ATOM     26  C   UNL     1      -1.644   3.084  25.594  0.00  0.00    +0.010 A 
ATOM     27  C   UNL     1      -0.894   3.429  25.582  0.00  0.00    +0.068 A 
ATOM     28  C   UNL     1      -0.780   4.153  25.201  0.00  0.00    +0.010 A 
ATOM     29  C   UNL     1      -1.414   4.531  24.833  0.00  0.00    +0.001 A 
ATOM     30  C   UNL     1      -2.163   4.186  24.845  0.00  0.00    +0.000 A 
BRANCH  27  31
ATOM     31  C   UNL     1      -0.260   3.052  25.950  0.00  0.00    +0.100 C 
ATOM     32  N   UNL     1       0.373   2.674  26.317  0.00  0.00    -0.191 NA
ENDBRANCH  27  31
ENDBRANCH  24  25
BRANCH   9  10
ATOM     10  C   UNL     1      -3.904   0.919  24.749  0.00  0.00    +0.138 C 
BRANCH  10  11
ATOM     11  C   UNL     1      -3.884   0.098  24.672  0.00  0.00    +0.139 A 
ATOM     12  C   UNL     1      -4.125  -0.333  24.011  0.00  0.00    +0.037 A 
ATOM     13  C   UNL     1      -4.010  -1.134  24.172  0.00  0.00    +0.037 A 
ATOM     14  C   UNL     1      -3.697  -1.198  24.933  0.00  0.00    +0.145 A 
ATOM     15  O   UNL     1      -3.620  -0.437  25.242  0.00  0.00    -0.456 OA
ATOM     16  C   UNL     1      -3.524  -1.942  25.247  0.00  0.00    +0.037 A 
ATOM     17  C   UNL     1      -3.663  -2.620  24.800  0.00  0.00    +0.003 A 
ATOM     18  C   UNL     1      -3.975  -2.557  24.039  0.00  0.00    +0.000 A 
ATOM     19  C   UNL     1      -4.149  -1.813  23.726  0.00  0.00    +0.003 A 
ENDBRANCH  10  11
ENDBRANCH   9  10
TORSDOF 4
ENDMDL
MODEL 2
REMARK VINA RESULT:     -16.8      1.111      4.609
REMARK  Name = 
REMARK  4 active torsions:
REMARK  status: ('A' for Active; 'I' for Inactive)
REMARK    1  A    between atoms: N_9  and  C_10
REMARK    2  A    between atoms: C_10  and  C_11
REMARK    3  A    between atoms: C_24  and  C_25
REMARK    4  A    between atoms: C_27  and  C_31
REMARK                            x       y       z     vdW  Elec       q    Type
REMARK                         _______ _______ _______ _____ _____    ______ ____
ROOT
ATOM      1  O   UNL     1      -2.911   0.735  25.022  0.00  0.00    -0.267 OA
ATOM      2  C   UNL     1      -3.725   0.875  25.041  0.00  0.00    +0.261 A 
ATOM      3  N   UNL     1      -4.011   1.649  25.007  0.00  0.00    -0.299 N 
ATOM      4  C   UNL     1      -4.714   1.201  25.056  0.00  0.00    +0.110 C 
ATOM      5  C   UNL     1      -5.378   1.933  25.037  0.00  0.00    +0.039 C 
ATOM      6  C   UNL     1      -6.038   2.410  25.032  0.00  0.00    +0.011 C 
ATOM      7  C   UNL     1      -5.341   2.489  25.004  0.00  0.00    +0.054 C 
ATOM      8  C   UNL     1      -4.690   3.135  24.945  0.00  0.00    +0.078 C 
ATOM      9  N   UNL     1      -4.034   2.656  24.950  0.00  0.00    -0.266 NA
ATOM     20  C   UNL     1      -4.691   2.601  24.975  0.00  0.00    +0.074 C 
ATOM     21  C   UNL     1      -4.823   1.789  25.026  0.00  0.00    +0.041 A 
ATOM     22  C   UNL     1      -5.349   1.156  25.080  0.00  0.00    +0.013 A 
ATOM     23  C   UNL     1      -5.064   0.384  25.115  0.00  0.00    +0.006 A 
ATOM     24  C   UNL     1      -4.251   0.243  25.095  0.00  0.00    +0.056 A 
ENDROOT
BRANCH  24  25
ATOM     25  C   UNL     1      -3.965  -0.530  25.130  0.00  0.00    +0.005 A 
ATOM     26  C   UNL     1      -4.119  -1.055  24.512  0.00  0.00    +0.010 A 
ATOM     27  C   UNL     1      -3.833  -1.828  24.546  0.00  0.00    +0.068 A 
ATOM     28  C   UNL     1      -3.393  -2.076  25.199  0.00  0.00    +0.010 A 
ATOM     29  C   UNL     1      -3.239  -1.552  25.816  0.00  0.00    +0.001 A 
ATOM     30  C   UNL     1      -3.525  -0.779  25.782  0.00  0.00    +0.000 A 
BRANCH  27  31
ATOM     31  C   UNL     1      -3.987  -2.353  23.929  0.00  0.00    +0.100 C 
ATOM     32  N   UNL     1      -4.141  -2.877  23.311  0.00  0.00    -0.191 NA
ENDBRANCH  27  31
ENDBRANCH  24  25
BRANCH   9  10
ATOM     10  C   UNL     1      -3.241   2.433  24.936  0.00  0.00    +0.138 C 
BRANCH  10  11
ATOM     11  C   UNL     1      -2.651   3.009  24.918  0.00  0.00    +0.139 A 
ATOM     12  C   UNL     1      -1.925   2.947  24.530  0.00  0.00    +0.037 A 
ATOM     13  C   UNL     1      -1.508   3.648  24.656  0.00  0.00    +0.037 A 
ATOM     14  C   UNL     1      -1.976   4.142  25.122  0.00  0.00    +0.145 A 
ATOM     15  O   UNL     1      -2.682   3.748  25.284  0.00  0.00    -0.456 OA
ATOM     16  C   UNL     1      -1.698   4.889  25.340  0.00  0.00    +0.037 A 
ATOM     17  C   UNL     1      -0.953   5.140  25.090  0.00  0.00    +0.003 A 
ATOM     18  C   UNL     1      -0.485   4.646  24.624  0.00  0.00    +0.000 A 
ATOM     19  C   UNL     1      -0.763   3.900  24.407  0.00  0.00    +0.003 A 
ENDBRANCH  10  11
ENDBRANCH   9  10
TORSDOF 4
ENDMDL
MODEL 3
REMARK VINA RESULT:     -14.3      2.187      5.569
REMARK  Name = 
REMARK  4 active torsions:
REMARK  status: ('A' for Active; 'I' for Inactive)
REMARK    1  A    between atoms: N_9  and  C_10
REMARK    2  A    between atoms: C_10  and  C_11
REMARK    3  A    between atoms: C_24  and  C_25
REMARK    4  A    between atoms: C_27  and  C_31
REMARK                            x       y       z     vdW  Elec       q    Type
REMARK                         _______ _______ _______ _____ _____    ______ ____
ROOT
ATOM      1  O   UNL     1      -2.374   0.648  25.138  0.00  0.00    -0.267 OA
ATOM      2  C   UNL     1      -1.730   0.266  24.791  0.00  0.00    +0.261 A 
ATOM      3  N   UNL     1      -1.083   0.705  24.529  0.00  0.00    -0.299 N 
ATOM      4  C   UNL     1      -0.856  -0.077  24.339  0.00  0.00    +0.110 C 
ATOM      5  C   UNL     1       0.029   0.101  23.936  0.00  0.00    +0.039 C 
ATOM      6  C   UNL     1       0.763   0.078  23.584  0.00  0.00    +0.011 C 
ATOM      7  C   UNL     1       0.326   0.563  23.842  0.00  0.00    +0.054 C 
ATOM      8  C   UNL     1       0.251   1.470  23.973  0.00  0.00    +0.078 C 
ATOM      9  N   UNL     1      -0.481   1.489  24.323  0.00  0.00    -0.266 NA
ATOM     20  C   UNL     1      -0.059   1.047  24.076  0.00  0.00    +0.074 C 
ATOM     21  C   UNL     1      -0.440   0.323  24.182  0.00  0.00    +0.041 A 
ATOM     22  C   UNL     1      -0.443  -0.497  24.098  0.00  0.00    +0.013 A 
ATOM     23  C   UNL     1      -1.089  -0.936  24.361  0.00  0.00    +0.006 A 
ATOM     24  C   UNL     1      -1.733  -0.554  24.707  0.00  0.00    +0.056 A 
ENDROOT
BRANCH  24  25
ATOM     25  C   UNL     1      -2.381  -0.993  24.970  0.00  0.00    +0.005 A 
ATOM     26  C   UNL     1      -2.892  -1.342  24.424  0.00  0.00    +0.010 A 
ATOM     27  C   UNL     1      -3.539  -1.781  24.687  0.00  0.00    +0.068 A 
ATOM     28  C   UNL     1      -3.675  -1.871  25.496  0.00  0.00    +0.010 A 
ATOM     29  C   UNL     1      -3.165  -1.523  26.041  0.00  0.00    +0.001 A 
ATOM     30  C   UNL     1      -2.517  -1.084  25.779  0.00  0.00    +0.000 A 
BRANCH  27  31
ATOM     31  C   UNL     1      -4.050  -2.129  24.141  0.00  0.00    +0.100 C 
ATOM     32  N   UNL     1      -4.561  -2.478  23.595  0.00  0.00    -0.191 NA
ENDBRANCH  27  31
ENDBRANCH  24  25
BRANCH   9  10
ATOM     10  C   UNL     1      -1.159   1.793  24.679  0.00  0.00    +0.138 C 
BRANCH  10  11
ATOM     11  C   UNL     1      -1.234   2.606  24.796  0.00  0.00    +0.139 A 
ATOM     12  C   UNL     1      -1.865   2.986  25.168  0.00  0.00    +0.037 A 
ATOM     13  C   UNL     1      -1.713   3.798  25.163  0.00  0.00    +0.037 A 
ATOM     14  C   UNL     1      -0.988   3.918  24.788  0.00  0.00    +0.145 A 
ATOM     15  O   UNL     1      -0.692   3.182  24.561  0.00  0.00    -0.456 OA
ATOM     16  C   UNL     1      -0.690   4.684  24.702  0.00  0.00    +0.037 A 
ATOM     17  C   UNL     1      -1.118   5.327  24.991  0.00  0.00    +0.003 A 
ATOM     18  C   UNL     1      -1.843   5.206  25.366  0.00  0.00    +0.000 A 
ATOM     19  C   UNL     1      -2.140   4.441  25.452  0.00  0.00    +0.003 A 
ENDBRANCH  10  11
ENDBRANCH   9  10
TORSDOF 4
ENDMDL
MODEL 4
REMARK VINA RESULT:     -13.9      1.732      3.120
REMARK  Name = 
REMARK  4 active torsions:
REMARK  status: ('A' for Active; 'I' for Inactive)
REMARK    1  A    between atoms: N_9  and  C_10
REMARK    2  A    between atoms: C_10  and  C_11
REMARK    3  A    between atoms: C_24  and  C_25
REMARK    4  A    between atoms: C_27  and  C_31
REMARK                            x       y       z     vdW  Elec       q    Type
REMARK                         _______ _______ _______ _____ _____    ______ ____
ROOT
ATOM      1  O   UNL     1      -2.798   1.554  25.381  0.00  0.00    -0.267 OA
ATOM      2  C   UNL     1      -2.063   1.720  25.044  0.00  0.00    +0.261 A 
ATOM      3  N   UNL     1      -1.614   1.112  24.714  0.00  0.00    -0.299 N 
ATOM      4  C   UNL     1      -1.127   1.779  24.589  0.00  0.00    +0.110 C 
ATOM      5  C   UNL     1      -0.365   1.346  24.134  0.00  0.00    +0.039 C 
ATOM      6  C   UNL     1       0.328   1.146  23.754  0.00  0.00    +0.011 C 
ATOM      7  C   UNL     1      -0.250   0.821  23.984  0.00  0.00    +0.054 C 
ATOM      8  C   UNL     1      -0.640  -0.010  24.031  0.00  0.00    +0.078 C 
ATOM      9  N   UNL     1      -1.329   0.192  24.410  0.00  0.00    -0.266 NA
ATOM     20  C   UNL     1      -0.779   0.481  24.188  0.00  0.00    +0.074 C 
ATOM     21  C   UNL     1      -0.880   1.277  24.378  0.00  0.00    +0.041 A 
ATOM     22  C   UNL     1      -0.594   2.051  24.372  0.00  0.00    +0.013 A 
ATOM     23  C   UNL     1      -1.042   2.659  24.702  0.00  0.00    +0.006 A 
ATOM     24  C   UNL     1      -1.777   2.493  25.038  0.00  0.00    +0.056 A 
ENDROOT
BRANCH  24  25
ATOM     25  C   UNL     1      -2.226   3.102  25.369  0.00  0.00    +0.005 A 
ATOM     26  C   UNL     1      -3.021   3.187  25.162  0.00  0.00    +0.010 A 
ATOM     27  C   UNL     1      -3.469   3.796  25.492  0.00  0.00    +0.068 A 
ATOM     28  C   UNL     1      -3.124   4.318  26.030  0.00  0.00    +0.010 A 
ATOM     29  C   UNL     1      -2.330   4.233  26.236  0.00  0.00    +0.001 A 
ATOM     30  C   UNL     1      -1.881   3.625  25.906  0.00  0.00    +0.000 A 
BRANCH  27  31
ATOM     31  C   UNL     1      -4.263   3.881  25.286  0.00  0.00    +0.100 C 
ATOM     32  N   UNL     1      -5.057   3.967  25.079  0.00  0.00    -0.191 NA
ENDBRANCH  27  31
ENDBRANCH  24  25
BRANCH   9  10
ATOM     10  C   UNL     1      -2.069   0.110  24.764  0.00  0.00    +0.138 C 
BRANCH  10  11
ATOM     11  C   UNL     1      -2.488  -0.595  24.683  0.00  0.00    +0.139 A 
ATOM     12  C   UNL     1      -2.392  -1.272  25.145  0.00  0.00    +0.037 A 
ATOM     13  C   UNL     1      -2.922  -1.844  24.874  0.00  0.00    +0.037 A 
ATOM     14  C   UNL     1      -3.345  -1.520  24.244  0.00  0.00    +0.145 A 
ATOM     15  O   UNL     1      -3.077  -0.749  24.125  0.00  0.00    -0.456 OA
ATOM     16  C   UNL     1      -3.921  -1.970  23.858  0.00  0.00    +0.037 A 
ATOM     17  C   UNL     1      -4.072  -2.743  24.103  0.00  0.00    +0.003 A 
ATOM     18  C   UNL     1      -3.649  -3.067  24.733  0.00  0.00    +0.000 A 
ATOM     19  C   UNL     1      -3.074  -2.617  25.118  0.00  0.00    +0.003 A 
ENDBRANCH  10  11
ENDBRANCH   9  10
TORSDOF 4
ENDMDL
MODEL 5
REMARK VINA RESULT:     -13.8      2.066      4.332
REMARK  Name = 
REMARK  4 active torsions:
REMARK  status: ('A' for Active; 'I' for Inactive)
REMARK    1  A    between atoms: N_9  and  C_10
REMARK    2  A    between atoms: C_10  and  C_11
REMARK    3  A    between atoms: C_24  and  C_25
REMARK    4  A    between atoms: C_27  and  C_31
REMARK                            x       y       z     vdW  Elec       q    Type
REMARK                         _______ _______ _______ _____ _____    ______ ____
ROOT
ATOM      1  O   UNL     1      -2.145   0.045  24.865  0.00  0.00    -0.267 OA
ATOM      2  C   UNL     1      -2.499  -0.657  24.612  0.00  0.00    +0.261 A 
ATOM      3  N   UNL     1      -3.316  -0.690  24.498  0.00  0.00    -0.299 N 
ATOM      4  C   UNL     1      -3.078  -1.465  24.300  0.00  0.00    +0.110 C 
ATOM      5  C   UNL     1      -3.957  -1.855  24.072  0.00  0.00    +0.039 C 
ATOM      6  C   UNL     1      -4.591  -2.317  23.854  0.00  0.00    +0.011 C 
ATOM      7  C   UNL     1      -4.478  -1.657  24.064  0.00  0.00    +0.054 C 
ATOM      8  C   UNL     1      -4.920  -0.871  24.239  0.00  0.00    +0.078 C 
ATOM      9  N   UNL     1      -4.285  -0.413  24.456  0.00  0.00    -0.266 NA
ATOM     20  C   UNL     1      -4.410  -1.029  24.258  0.00  0.00    +0.074 C 
ATOM     21  C   UNL     1      -3.669  -1.390  24.246  0.00  0.00    +0.041 A 
ATOM     22  C   UNL     1      -3.206  -2.059  24.108  0.00  0.00    +0.013 A 
ATOM     23  C   UNL     1      -2.391  -2.027  24.222  0.00  0.00    +0.006 A 
ATOM     24  C   UNL     1      -2.037  -1.326  24.474  0.00  0.00    +0.056 A 
ENDROOT
BRANCH  24  25
ATOM     25  C   UNL     1      -1.220  -1.293  24.588  0.00  0.00    +0.005 A 
ATOM     26  C   UNL     1      -0.741  -0.912  24.035  0.00  0.00    +0.010 A 
ATOM     27  C   UNL     1       0.076  -0.880  24.149  0.00  0.00    +0.068 A 
ATOM     28  C   UNL     1       0.413  -1.229  24.817  0.00  0.00    +0.010 A 
ATOM     29  C   UNL     1      -0.066  -1.610  25.370  0.00  0.00    +0.001 A 
ATOM     30  C   UNL     1      -0.882  -1.642  25.256  0.00  0.00    +0.000 A 
BRANCH  27  31
ATOM     31  C   UNL     1       0.555  -0.499  23.596  0.00  0.00    +0.100 C 
ATOM     32  N   UNL     1       1.033  -0.118  23.043  0.00  0.00    -0.191 NA
ENDBRANCH  27  31
ENDBRANCH  24  25
BRANCH   9  10
ATOM     10  C   UNL     1      -3.857   0.246  24.705  0.00  0.00    +0.138 C 
BRANCH  10  11
ATOM     11  C   UNL     1      -4.249   0.953  24.871  0.00  0.00    +0.139 A 
ATOM     12  C   UNL     1      -4.111   1.681  24.506  0.00  0.00    +0.037 A 
ATOM     13  C   UNL     1      -4.624   2.235  24.840  0.00  0.00    +0.037 A 
ATOM     14  C   UNL     1      -5.078   1.850  25.411  0.00  0.00    +0.145 A 
ATOM     15  O   UNL     1      -4.847   1.058  25.430  0.00  0.00    -0.456 OA
ATOM     16  C   UNL     1      -5.645   2.269  25.841  0.00  0.00    +0.037 A 
ATOM     17  C   UNL     1      -5.756   3.074  25.699  0.00  0.00    +0.003 A 
ATOM     18  C   UNL     1      -5.302   3.460  25.128  0.00  0.00    +0.000 A 
ATOM     19  C   UNL     1      -4.736   3.039  24.699  0.00  0.00    +0.003 A 
ENDBRANCH  10  11
ENDBRANCH   9  10
TORSDOF 4
ENDMDL
MODEL 6
REMARK VINA RESULT:     -13.5      2.188      3.878
REMARK  Name = 
REMARK  4 active torsions:
REMARK  status: ('A' for Active; 'I' for Inactive)
REMARK    1  A    between atoms: N_9  and  C_10
REMARK    2  A    between atoms: C_10  and  C_11
REMARK    3  A    between atoms: C_24  and  C_25
REMARK    4  A    between atoms: C_27  and  C_31
REMARK                            x       y       z     vdW  Elec       q    Type
REMARK                         _______ _______ _______ _____ _____    ______ ____
ROOT
ATOM      1  O   UNL     1      -1.996   0.961  24.446  0.00  0.00    -0.267 OA
ATOM      2  C   UNL     1      -1.507   1.615  24.567  0.00  0.00    +0.261 A 
ATOM      3  N   UNL     1      -1.837   2.348  24.755  0.00  0.00    -0.299 N 
ATOM      4  C   UNL     1      -1.020   2.519  24.745  0.00  0.00    +0.110 C 
ATOM      5  C   UNL     1      -1.050   3.481  24.968  0.00  0.00    +0.039 C 
ATOM      6  C   UNL     1      -0.905   4.264  25.139  0.00  0.00    +0.011 C 
ATOM      7  C   UNL     1      -1.461   3.842  25.075  0.00  0.00    +0.054 C 
ATOM      8  C   UNL     1      -2.379   3.844  25.131  0.00  0.00    +0.078 C 
ATOM      9  N   UNL     1      -2.519   3.063  24.960  0.00  0.00    -0.266 NA
ATOM     20  C   UNL     1      -2.008   3.474  25.024  0.00  0.00    +0.074 C 
ATOM     21  C   UNL     1      -1.350   3.001  24.876  0.00  0.00    +0.041 A 
ATOM     22  C   UNL     1      -0.531   2.923  24.809  0.00  0.00    +0.013 A 
ATOM     23  C   UNL     1      -0.201   2.191  24.621  0.00  0.00    +0.006 A 
ATOM     24  C   UNL     1      -0.689   1.537  24.500  0.00  0.00    +0.056 A 
ENDROOT
BRANCH  24  25
ATOM     25  C   UNL     1      -0.358   0.805  24.312  0.00  0.00    +0.005 A 
ATOM     26  C   UNL     1       0.146   0.734  23.662  0.00  0.00    +0.010 A 
ATOM     27  C   UNL     1       0.477   0.002  23.474  0.00  0.00    +0.068 A 
ATOM     28  C   UNL     1       0.302  -0.660  23.936  0.00  0.00    +0.010 A 
ATOM     29  C   UNL     1      -0.202  -0.589  24.585  0.00  0.00    +0.001 A 
ATOM     30  C   UNL     1      -0.532   0.143  24.773  0.00  0.00    +0.000 A 
BRANCH  27  31
ATOM     31  C   UNL     1       0.981  -0.069  22.826  0.00  0.00    +0.100 C 
ATOM     32  N   UNL     1       1.485  -0.139  22.177  0.00  0.00    -0.191 NA
ENDBRANCH  27  31
ENDBRANCH  24  25
BRANCH   9  10
ATOM     10  C   UNL     1      -2.936   2.365  24.825  0.00  0.00    +0.138 C 
BRANCH  10  11
ATOM     11  C   UNL     1      -3.748   2.335  24.967  0.00  0.00    +0.139 A 
ATOM     12  C   UNL     1      -4.320   2.035  24.453  0.00  0.00    +0.037 A 
ATOM     13  C   UNL     1      -5.057   2.114  24.817  0.00  0.00    +0.037 A 
ATOM     14  C   UNL     1      -4.940   2.463  25.555  0.00  0.00    +0.145 A 
ATOM     15  O   UNL     1      -4.132   2.600  25.648  0.00  0.00    -0.456 OA
ATOM     16  C   UNL     1      -5.586   2.613  26.048  0.00  0.00    +0.037 A 
ATOM     17  C   UNL     1      -6.347   2.412  25.802  0.00  0.00    +0.003 A 
ATOM     18  C   UNL     1      -6.463   2.063  25.063  0.00  0.00    +0.000 A 
ATOM     19  C   UNL     1      -5.818   1.914  24.571  0.00  0.00    +0.003 A 
ENDBRANCH  10  11
ENDBRANCH   9  10
TORSDOF 4
ENDMDL
MODEL 7
REMARK VINA RESULT:     -13.4      2.045      3.872
REMARK  Name = 
REMARK  4 active torsions:
REMARK  status: ('A' for Active; 'I' for Inactive)
REMARK    1  A    between atoms: N_9  and  C_10
REMARK    2  A    between atoms: C_10  and  C_11
REMARK    3  A    between atoms: C_24  and  C_25
REMARK    4  A    between atoms: C_27  and  C_31
REMARK                            x       y       z     vdW  Elec       q    Type
REMARK                         _______ _______ _______ _____ _____    ______ ____
ROOT
ATOM      1  O   UNL     1      -3.404   1.582  24.727  0.00  0.00    -0.267 OA
ATOM      2  C   UNL     1      -3.235   2.360  24.945  0.00  0.00    +0.261 A 
ATOM      3  N   UNL     1      -2.453   2.622  24.966  0.00  0.00    -0.299 N 
ATOM      4  C   UNL     1      -2.875   3.304  25.200  0.00  0.00    +0.110 C 
ATOM      5  C   UNL     1      -2.120   3.929  25.330  0.00  0.00    +0.039 C 
ATOM      6  C   UNL     1      -1.621   4.555  25.479  0.00  0.00    +0.011 C 
ATOM      7  C   UNL     1      -1.567   3.885  25.276  0.00  0.00    +0.054 C 
ATOM      8  C   UNL     1      -0.945   3.251  25.041  0.00  0.00    +0.078 C 
ATOM      9  N   UNL     1      -1.446   2.629  24.893  0.00  0.00    -0.266 NA
ATOM     20  C   UNL     1      -1.478   3.260  25.083  0.00  0.00    +0.074 C 
ATOM     21  C   UNL     1      -2.284   3.399  25.184  0.00  0.00    +0.041 A 
ATOM     22  C   UNL     1      -2.897   3.914  25.383  0.00  0.00    +0.013 A 
ATOM     23  C   UNL     1      -3.678   3.652  25.362  0.00  0.00    +0.006 A 
ATOM     24  C   UNL     1      -3.848   2.875  25.144  0.00  0.00    +0.056 A 
ENDROOT
BRANCH  24  25
ATOM     25  C   UNL     1      -4.630   2.613  25.124  0.00  0.00    +0.005 A 
ATOM     26  C   UNL     1      -5.032   2.460  25.828  0.00  0.00    +0.010 A 
ATOM     27  C   UNL     1      -5.814   2.198  25.808  0.00  0.00    +0.068 A 
ATOM     28  C   UNL     1      -6.194   2.089  25.083  0.00  0.00    +0.010 A 
ATOM     29  C   UNL     1      -5.792   2.242  24.380  0.00  0.00    +0.001 A 
ATOM     30  C   UNL     1      -5.010   2.504  24.400  0.00  0.00    +0.000 A 
BRANCH  27  31
ATOM     31  C   UNL     1      -6.216   2.045  26.512  0.00  0.00    +0.100 C 
ATOM     32  N   UNL     1      -6.618   1.892  27.215  0.00  0.00    -0.191 NA
ENDBRANCH  27  31
ENDBRANCH  24  25
BRANCH   9  10
ATOM     10  C   UNL     1      -1.697   1.871  24.687  0.00  0.00    +0.138 C 
BRANCH  10  11
ATOM     11  C   UNL     1      -1.150   1.313  24.424  0.00  0.00    +0.139 A 
ATOM     12  C   UNL     1      -1.006   0.577  24.768  0.00  0.00    +0.037 A 
ATOM     13  C   UNL     1      -0.417   0.200  24.328  0.00  0.00    +0.037 A 
ATOM     14  C   UNL     1      -0.197   0.705  23.713  0.00  0.00    +0.145 A 
ATOM     15  O   UNL     1      -0.650   1.392  23.772  0.00  0.00    -0.456 OA
ATOM     16  C   UNL     1       0.387   0.473  23.178  0.00  0.00    +0.037 A 
ATOM     17  C   UNL     1       0.751  -0.263  23.259  0.00  0.00    +0.003 A 
ATOM     18  C   UNL     1       0.531  -0.767  23.873  0.00  0.00    +0.000 A 
ATOM     19  C   UNL     1      -0.053  -0.535  24.408  0.00  0.00    +0.003 A 
ENDBRANCH  10  11
ENDBRANCH   9  10
TORSDOF 4
ENDMDL
