MODEL 1
REMARK VINA RESULT:      -9.3      0.000      0.000
REMARK  Name = 
REMARK  5 active torsions:
REMARK  status: ('A' for Active; 'I' for Inactive)
REMARK    1  A    between atoms: N_6  and  C_7
REMARK    2  A    between atoms: C_7  and  C_8
REMARK    3  A    between atoms: C_20  and  C_21
REMARK    4  A    between atoms: C_21  and  C_22
REMARK    5  A    between atoms: C_22  and  C_23
REMARK                            x       y       z     vdW  Elec       q    Type
REMARK                         _______ _______ _______ _____ _____    ______ ____
ROOT
ATOM      1  C   UNL     1      -1.356  -0.215  24.765  0.00  0.00    +0.090 C 
ATOM      2  N   UNL     1      -1.519   0.486  24.359  0.00  0.00    -0.271 NA
ATOM      3  C   UNL     1      -2.255   0.824  24.512  0.00  0.00    +0.083 C 
ATOM      4  C   UNL     1      -2.806   0.499  25.033  0.00  0.00    +0.035 C 
ATOM      5  C   UNL     1      -3.470   0.988  25.041  0.00  0.00    +0.074 C 
ATOM      6  N   UNL     1      -3.330   1.617  24.525  0.00  0.00    -0.262 NA
ATOM     15  C   UNL     1      -2.579   1.515  24.197  0.00  0.00    +0.151 C 
ATOM     16  C   UNL     1      -2.246   2.037  23.653  0.00  0.00    +0.257 C 
ATOM     17  O   UNL     1      -2.714   2.685  23.446  0.00  0.00    -0.272 OA
ATOM     18  N   UNL     1      -1.507   1.998  23.288  0.00  0.00    -0.203 NA
ATOM     19  C   UNL     1      -0.919   1.426  23.378  0.00  0.00    +0.131 C 
ATOM     20  C   UNL     1      -0.924   0.753  23.854  0.00  0.00    +0.080 C 
ENDROOT
BRANCH   6   7
ATOM      7  C   UNL     1      -3.849   2.238  24.363  0.00  0.00    +0.100 C 
BRANCH   7   8
ATOM      8  C   UNL     1      -4.518   2.348  24.834  0.00  0.00    -0.005 A 
ATOM      9  C   UNL     1      -4.481   2.839  25.495  0.00  0.00    -0.003 A 
ATOM     10  C   UNL     1      -5.150   2.948  25.964  0.00  0.00    +0.001 A 
ATOM     11  C   UNL     1      -5.856   2.568  25.773  0.00  0.00    +0.011 A 
ATOM     12  C   UNL     1      -5.892   2.076  25.111  0.00  0.00    +0.057 A 
ATOM     13 CL   UNL     1      -6.598   1.695  24.919  0.00  0.00    -0.082 Cl
ATOM     14  C   UNL     1      -5.224   1.966  24.641  0.00  0.00    +0.008 A 
ENDBRANCH   7   8
ENDBRANCH   6   7
BRANCH  20  21
ATOM     21  C   UNL     1      -0.244   0.287  23.822  0.00  0.00    +0.027 C 
BRANCH  21  22
ATOM     22  C   UNL     1       0.434   0.572  23.448  0.00  0.00    +0.087 C 
BRANCH  22  23
ATOM     23  C   UNL     1       0.955   0.047  23.082  0.00  0.00    +0.226 C 
ATOM     24  O   UNL     1       0.688  -0.694  22.835  0.00  0.00    -0.275 OA
ATOM     25  N   UNL     1       1.742   0.264  22.963  0.00  0.00    -0.279 N 
ATOM     26  C   UNL     1       2.263  -0.261  22.596  0.00  0.00    +0.096 C 
ATOM     27  C   UNL     1       3.050  -0.045  22.477  0.00  0.00    +0.054 C 
ATOM     28  C   UNL     1       3.317   0.696  22.724  0.00  0.00    +0.155 C 
ATOM     29  O   UNL     1       4.104   0.912  22.604  0.00  0.00    -0.223 OA
ATOM     30  C   UNL     1       2.796   1.221  23.090  0.00  0.00    +0.054 C 
ATOM     31  C   UNL     1       2.008   1.004  23.209  0.00  0.00    +0.096 C 
ENDBRANCH  22  23
ENDBRANCH  21  22
ENDBRANCH  20  21
TORSDOF 5
ENDMDL
MODEL 2
REMARK VINA RESULT:      -9.3      3.167      4.607
REMARK  Name = 
REMARK  5 active torsions:
REMARK  status: ('A' for Active; 'I' for Inactive)
REMARK    1  A    between atoms: N_6  and  C_7
REMARK    2  A    between atoms: C_7  and  C_8
REMARK    3  A    between atoms: C_20  and  C_21
REMARK    4  A    between atoms: C_21  and  C_22
REMARK    5  A    between atoms: C_22  and  C_23
REMARK                            x       y       z     vdW  Elec       q    Type
REMARK                         _______ _______ _______ _____ _____    ______ ____
ROOT
ATOM      1  C   UNL     1      -1.043   0.480  23.528  0.00  0.00    +0.090 C 
ATOM      2  N   UNL     1      -0.926   0.755  24.298  0.00  0.00    -0.271 NA
ATOM      3  C   UNL     1      -0.813   1.568  24.375  0.00  0.00    +0.083 C 
ATOM      4  C   UNL     1      -0.814   2.090  23.735  0.00  0.00    +0.035 C 
ATOM      5  C   UNL     1      -0.685   2.850  24.026  0.00  0.00    +0.074 C 
ATOM      6  N   UNL     1      -0.604   2.800  24.846  0.00  0.00    -0.262 NA
ATOM     15  C   UNL     1      -0.683   2.007  25.061  0.00  0.00    +0.151 C 
ATOM     16  C   UNL     1      -0.635   1.740  25.840  0.00  0.00    +0.257 C 
ATOM     17  O   UNL     1      -0.500   2.322  26.410  0.00  0.00    -0.272 OA
ATOM     18  N   UNL     1      -0.704   0.970  26.126  0.00  0.00    -0.203 NA
ATOM     19  C   UNL     1      -0.839   0.274  25.702  0.00  0.00    +0.131 C 
ATOM     20  C   UNL     1      -0.938   0.179  24.888  0.00  0.00    +0.080 C 
ENDROOT
BRANCH   6   7
ATOM      7  C   UNL     1      -0.468   3.431  25.360  0.00  0.00    +0.100 C 
BRANCH   7   8
ATOM      8  C   UNL     1      -0.841   4.155  25.231  0.00  0.00    -0.005 A 
ATOM      9  C   UNL     1      -0.446   4.757  24.828  0.00  0.00    -0.003 A 
ATOM     10  C   UNL     1      -0.819   5.480  24.699  0.00  0.00    +0.001 A 
ATOM     11  C   UNL     1      -1.587   5.604  24.973  0.00  0.00    +0.011 A 
ATOM     12  C   UNL     1      -1.982   5.001  25.377  0.00  0.00    +0.057 A 
ATOM     13 CL   UNL     1      -2.750   5.124  25.652  0.00  0.00    -0.082 Cl
ATOM     14  C   UNL     1      -1.609   4.278  25.506  0.00  0.00    +0.008 A 
ENDBRANCH   7   8
ENDBRANCH   6   7
BRANCH  20  21
ATOM     21  C   UNL     1      -1.065  -0.595  24.632  0.00  0.00    +0.027 C 
BRANCH  21  22
ATOM     22  C   UNL     1      -1.719  -1.018  24.906  0.00  0.00    +0.087 C 
BRANCH  22  23
ATOM     23  C   UNL     1      -1.827  -1.804  24.678  0.00  0.00    +0.226 C 
ATOM     24  O   UNL     1      -1.185  -2.322  24.665  0.00  0.00    -0.275 OA
ATOM     25  N   UNL     1      -2.577  -2.070  24.462  0.00  0.00    -0.279 N 
ATOM     26  C   UNL     1      -2.685  -2.856  24.234  0.00  0.00    +0.096 C 
ATOM     27  C   UNL     1      -3.436  -3.123  24.019  0.00  0.00    +0.054 C 
ATOM     28  C   UNL     1      -4.078  -2.604  24.031  0.00  0.00    +0.155 C 
ATOM     29  O   UNL     1      -4.828  -2.872  23.816  0.00  0.00    -0.223 OA
ATOM     30  C   UNL     1      -3.969  -1.819  24.260  0.00  0.00    +0.054 C 
ATOM     31  C   UNL     1      -3.218  -1.553  24.475  0.00  0.00    +0.096 C 
ENDBRANCH  22  23
ENDBRANCH  21  22
ENDBRANCH  20  21
TORSDOF 5
ENDMDL
MODEL 3
REMARK VINA RESULT:      -8.6      3.541      4.892
REMARK  Name = 
REMARK  5 active torsions:
REMARK  status: ('A' for Active; 'I' for Inactive)
REMARK    1  A    between atoms: N_6  and  C_7
REMARK    2  A    between atoms: C_7  and  C_8
REMARK    3  A    between atoms: C_20  and  C_21
REMARK    4  A    between atoms: C_21  and  C_22
REMARK    5  A    between atoms: C_22  and  C_23
REMARK                            x       y       z     vdW  Elec       q    Type
REMARK                         _______ _______ _______ _____ _____    ______ ____
ROOT
ATOM      1  C   UNL     1      -4.417   1.786  25.660  0.00  0.00    +0.090 C 
ATOM      2  N   UNL     1      -4.077   1.535  24.951  0.00  0.00    -0.271 NA
ATOM      3  C   UNL     1      -4.141   0.729  24.789  0.00  0.00    +0.083 C 
ATOM      4  C   UNL     1      -4.517   0.192  25.291  0.00  0.00    +0.035 C 
ATOM      5  C   UNL     1      -4.471  -0.556  24.947  0.00  0.00    +0.074 C 
ATOM      6  N   UNL     1      -4.065  -0.482  24.231  0.00  0.00    -0.262 NA
ATOM     15  C   UNL     1      -3.862   0.312  24.134  0.00  0.00    +0.151 C 
ATOM     16  C   UNL     1      -3.449   0.598  23.480  0.00  0.00    +0.257 C 
ATOM     17  O   UNL     1      -3.244   0.036  22.911  0.00  0.00    -0.272 OA
ATOM     18  N   UNL     1      -3.214   1.372  23.318  0.00  0.00    -0.203 NA
ATOM     19  C   UNL     1      -3.334   2.051  23.772  0.00  0.00    +0.131 C 
ATOM     20  C   UNL     1      -3.718   2.123  24.499  0.00  0.00    +0.080 C 
ENDROOT
BRANCH   6   7
ATOM      7  C   UNL     1      -3.894  -1.095  23.706  0.00  0.00    +0.100 C 
BRANCH   7   8
ATOM      8  C   UNL     1      -3.682  -1.838  23.994  0.00  0.00    -0.005 A 
ATOM      9  C   UNL     1      -4.239  -2.446  24.017  0.00  0.00    -0.003 A 
ATOM     10  C   UNL     1      -4.026  -3.189  24.305  0.00  0.00    +0.001 A 
ATOM     11  C   UNL     1      -3.258  -3.325  24.572  0.00  0.00    +0.011 A 
ATOM     12  C   UNL     1      -2.701  -2.715  24.549  0.00  0.00    +0.057 A 
ATOM     13 CL   UNL     1      -1.931  -2.850  24.815  0.00  0.00    -0.082 Cl
ATOM     14  C   UNL     1      -2.913  -1.973  24.261  0.00  0.00    +0.008 A 
ENDBRANCH   7   8
ENDBRANCH   6   7
BRANCH  20  21
ATOM     21  C   UNL     1      -3.746   2.886  24.814  0.00  0.00    +0.027 C 
BRANCH  21  22
ATOM     22  C   UNL     1      -3.049   3.258  25.054  0.00  0.00    +0.087 C 
BRANCH  22  23
ATOM     23  C   UNL     1      -3.022   4.081  25.113  0.00  0.00    +0.226 C 
ATOM     24  O   UNL     1      -3.717   4.510  25.224  0.00  0.00    -0.275 OA
ATOM     25  N   UNL     1      -2.297   4.473  25.061  0.00  0.00    -0.279 N 
ATOM     26  C   UNL     1      -2.270   5.296  25.120  0.00  0.00    +0.096 C 
ATOM     27  C   UNL     1      -1.545   5.688  25.067  0.00  0.00    +0.054 C 
ATOM     28  C   UNL     1      -0.850   5.258  24.956  0.00  0.00    +0.155 C 
ATOM     29  O   UNL     1      -0.126   5.651  24.904  0.00  0.00    -0.223 OA
ATOM     30  C   UNL     1      -0.878   4.436  24.897  0.00  0.00    +0.054 C 
ATOM     31  C   UNL     1      -1.603   4.044  24.949  0.00  0.00    +0.096 C 
ENDBRANCH  22  23
ENDBRANCH  21  22
ENDBRANCH  20  21
TORSDOF 5
ENDMDL
MODEL 4
REMARK VINA RESULT:      -8.5      2.955      4.564
REMARK  Name = 
REMARK  5 active torsions:
REMARK  status: ('A' for Active; 'I' for Inactive)
REMARK    1  A    between atoms: N_6  and  C_7
REMARK    2  A    between atoms: C_7  and  C_8
REMARK    3  A    between atoms: C_20  and  C_21
REMARK    4  A    between atoms: C_21  and  C_22
REMARK    5  A    between atoms: C_22  and  C_23
REMARK                            x       y       z     vdW  Elec       q    Type
REMARK                         _______ _______ _______ _____ _____    ______ ____
ROOT
ATOM      1  C   UNL     1      -0.128   0.648  23.769  0.00  0.00    +0.090 C 
ATOM      2  N   UNL     1      -0.573   0.462  24.439  0.00  0.00    -0.271 NA
ATOM      3  C   UNL     1      -0.938  -0.278  24.431  0.00  0.00    +0.083 C 
ATOM      4  C   UNL     1      -0.875  -0.810  23.803  0.00  0.00    +0.035 C 
ATOM      5  C   UNL     1      -1.312  -1.483  23.994  0.00  0.00    +0.074 C 
ATOM      6  N   UNL     1      -1.645  -1.367  24.740  0.00  0.00    -0.262 NA
ATOM     15  C   UNL     1      -1.414  -0.622  25.010  0.00  0.00    +0.151 C 
ATOM     16  C   UNL     1      -1.642  -0.313  25.740  0.00  0.00    +0.257 C 
ATOM     17  O   UNL     1      -2.126  -0.799  26.199  0.00  0.00    -0.272 OA
ATOM     18  N   UNL     1      -1.450   0.418  26.071  0.00  0.00    -0.203 NA
ATOM     19  C   UNL     1      -0.983   1.020  25.754  0.00  0.00    +0.131 C 
ATOM     20  C   UNL     1      -0.592   1.039  25.027  0.00  0.00    +0.080 C 
ENDROOT
BRANCH   6   7
ATOM      7  C   UNL     1      -2.125  -1.903  25.145  0.00  0.00    +0.100 C 
BRANCH   7   8
ATOM      8  C   UNL     1      -2.732  -2.296  24.747  0.00  0.00    -0.005 A 
ATOM      9  C   UNL     1      -2.667  -3.103  24.588  0.00  0.00    -0.003 A 
ATOM     10  C   UNL     1      -3.273  -3.494  24.190  0.00  0.00    +0.001 A 
ATOM     11  C   UNL     1      -3.945  -3.080  23.950  0.00  0.00    +0.011 A 
ATOM     12  C   UNL     1      -4.009  -2.273  24.109  0.00  0.00    +0.057 A 
ATOM     13 CL   UNL     1      -4.681  -1.858  23.869  0.00  0.00    -0.082 Cl
ATOM     14  C   UNL     1      -3.404  -1.881  24.507  0.00  0.00    +0.008 A 
ENDBRANCH   7   8
ENDBRANCH   6   7
BRANCH  20  21
ATOM     21  C   UNL     1      -0.165   1.727  24.869  0.00  0.00    +0.027 C 
BRANCH  21  22
ATOM     22  C   UNL     1      -0.440   2.455  25.145  0.00  0.00    +0.087 C 
BRANCH  22  23
ATOM     23  C   UNL     1      -0.181   3.154  24.791  0.00  0.00    +0.226 C 
ATOM     24  O   UNL     1       0.505   3.155  24.332  0.00  0.00    -0.275 OA
ATOM     25  N   UNL     1      -0.607   3.852  24.898  0.00  0.00    -0.279 N 
ATOM     26  C   UNL     1      -0.348   4.551  24.544  0.00  0.00    +0.096 C 
ATOM     27  C   UNL     1      -0.775   5.250  24.650  0.00  0.00    +0.054 C 
ATOM     28  C   UNL     1      -1.460   5.249  25.110  0.00  0.00    +0.155 C 
ATOM     29  O   UNL     1      -1.886   5.947  25.216  0.00  0.00    -0.223 OA
ATOM     30  C   UNL     1      -1.719   4.550  25.463  0.00  0.00    +0.054 C 
ATOM     31  C   UNL     1      -1.292   3.852  25.357  0.00  0.00    +0.096 C 
ENDBRANCH  22  23
ENDBRANCH  21  22
ENDBRANCH  20  21
TORSDOF 5
ENDMDL
MODEL 5
REMARK VINA RESULT:      -8.3      2.318      6.529
REMARK  Name = 
REMARK  5 active torsions:
REMARK  status: ('A' for Active; 'I' for Inactive)
REMARK    1  A    between atoms: N_6  and  C_7
REMARK    2  A    between atoms: C_7  and  C_8
REMARK    3  A    between atoms: C_20  and  C_21
REMARK    4  A    between atoms: C_21  and  C_22
REMARK    5  A    between atoms: C_22  and  C_23
REMARK                            x       y       z     vdW  Elec       q    Type
REMARK                         _______ _______ _______ _____ _____    ______ ____
ROOT
ATOM      1  C   UNL     1      -0.955   2.950  24.476  0.00  0.00    +0.090 C 
ATOM      2  N   UNL     1      -0.960   2.124  24.507  0.00  0.00    -0.271 NA
ATOM      3  C   UNL     1      -0.294   1.751  24.193  0.00  0.00    +0.083 C 
ATOM      4  C   UNL     1       0.344   2.160  23.866  0.00  0.00    +0.035 C 
ATOM      5  C   UNL     1       0.899   1.604  23.613  0.00  0.00    +0.074 C 
ATOM      6  N   UNL     1       0.604   0.853  23.783  0.00  0.00    -0.262 NA
ATOM     15  C   UNL     1      -0.134   0.944  24.142  0.00  0.00    +0.151 C 
ATOM     16  C   UNL     1      -0.599   0.310  24.393  0.00  0.00    +0.257 C 
ATOM     17  O   UNL     1      -0.281  -0.440  24.262  0.00  0.00    -0.272 OA
ATOM     18  N   UNL     1      -1.339   0.327  24.755  0.00  0.00    -0.203 NA
ATOM     19  C   UNL     1      -1.798   0.983  24.958  0.00  0.00    +0.131 C 
ATOM     20  C   UNL     1      -1.629   1.783  24.847  0.00  0.00    +0.080 C 
ENDROOT
BRANCH   6   7
ATOM      7  C   UNL     1       0.980   0.136  23.623  0.00  0.00    +0.100 C 
BRANCH   7   8
ATOM      8  C   UNL     1       1.571   0.100  23.049  0.00  0.00    -0.005 A 
ATOM      9  C   UNL     1       1.391  -0.165  22.288  0.00  0.00    -0.003 A 
ATOM     10  C   UNL     1       1.982  -0.201  21.715  0.00  0.00    +0.001 A 
ATOM     11  C   UNL     1       2.753   0.028  21.899  0.00  0.00    +0.011 A 
ATOM     12  C   UNL     1       2.932   0.293  22.661  0.00  0.00    +0.057 A 
ATOM     13 CL   UNL     1       3.702   0.522  22.847  0.00  0.00    -0.082 Cl
ATOM     14  C   UNL     1       2.342   0.329  23.235  0.00  0.00    +0.008 A 
ENDBRANCH   7   8
ENDBRANCH   6   7
BRANCH  20  21
ATOM     21  C   UNL     1      -2.206   2.310  25.112  0.00  0.00    +0.027 C 
BRANCH  21  22
ATOM     22  C   UNL     1      -3.005   2.116  25.042  0.00  0.00    +0.087 C 
BRANCH  22  23
ATOM     23  C   UNL     1      -3.581   2.634  25.327  0.00  0.00    +0.226 C 
ATOM     24  O   UNL     1      -3.358   3.341  25.689  0.00  0.00    -0.275 OA
ATOM     25  N   UNL     1      -4.380   2.443  25.249  0.00  0.00    -0.279 N 
ATOM     26  C   UNL     1      -4.956   2.961  25.534  0.00  0.00    +0.096 C 
ATOM     27  C   UNL     1      -5.756   2.771  25.455  0.00  0.00    +0.054 C 
ATOM     28  C   UNL     1      -5.978   2.064  25.093  0.00  0.00    +0.155 C 
ATOM     29  O   UNL     1      -6.778   1.874  25.015  0.00  0.00    -0.223 OA
ATOM     30  C   UNL     1      -5.402   1.547  24.809  0.00  0.00    +0.054 C 
ATOM     31  C   UNL     1      -4.603   1.737  24.887  0.00  0.00    +0.096 C 
ENDBRANCH  22  23
ENDBRANCH  21  22
ENDBRANCH  20  21
TORSDOF 5
ENDMDL
MODEL 6
REMARK VINA RESULT:      -7.9      2.057      2.892
REMARK  Name = 
REMARK  5 active torsions:
REMARK  status: ('A' for Active; 'I' for Inactive)
REMARK    1  A    between atoms: N_6  and  C_7
REMARK    2  A    between atoms: C_7  and  C_8
REMARK    3  A    between atoms: C_20  and  C_21
REMARK    4  A    between atoms: C_21  and  C_22
REMARK    5  A    between atoms: C_22  and  C_23
REMARK                            x       y       z     vdW  Elec       q    Type
REMARK                         _______ _______ _______ _____ _____    ______ ____
ROOT
ATOM      1  C   UNL     1       0.698   1.569  24.193  0.00  0.00    +0.090 C 
ATOM      2  N   UNL     1       0.485   0.804  23.967  0.00  0.00    -0.271 NA
ATOM      3  C   UNL     1      -0.242   0.536  24.251  0.00  0.00    +0.083 C 
ATOM      4  C   UNL     1      -0.737   0.990  24.731  0.00  0.00    +0.035 C 
ATOM      5  C   UNL     1      -1.408   0.540  24.902  0.00  0.00    +0.074 C 
ATOM      6  N   UNL     1      -1.326  -0.191  24.528  0.00  0.00    -0.262 NA
ATOM     15  C   UNL     1      -0.606  -0.193  24.126  0.00  0.00    +0.151 C 
ATOM     16  C   UNL     1      -0.332  -0.835  23.685  0.00  0.00    +0.257 C 
ATOM     17  O   UNL     1      -0.830  -1.494  23.666  0.00  0.00    -0.272 OA
ATOM     18  N   UNL     1       0.371  -0.906  23.262  0.00  0.00    -0.203 NA
ATOM     19  C   UNL     1       0.977  -0.352  23.174  0.00  0.00    +0.131 C 
ATOM     20  C   UNL     1       1.027   0.409  23.488  0.00  0.00    +0.080 C 
ENDROOT
BRANCH   6   7
ATOM      7  C   UNL     1      -1.870  -0.811  24.551  0.00  0.00    +0.100 C 
BRANCH   7   8
ATOM      8  C   UNL     1      -2.620  -0.690  24.873  0.00  0.00    -0.005 A 
ATOM      9  C   UNL     1      -2.780  -0.920  25.649  0.00  0.00    -0.003 A 
ATOM     10  C   UNL     1      -3.529  -0.797  25.969  0.00  0.00    +0.001 A 
ATOM     11  C   UNL     1      -4.121  -0.445  25.514  0.00  0.00    +0.011 A 
ATOM     12  C   UNL     1      -3.961  -0.215  24.738  0.00  0.00    +0.057 A 
ATOM     13 CL   UNL     1      -4.552   0.137  24.282  0.00  0.00    -0.082 Cl
ATOM     14  C   UNL     1      -3.212  -0.337  24.417  0.00  0.00    +0.008 A 
ENDBRANCH   7   8
ENDBRANCH   6   7
BRANCH  20  21
ATOM     21  C   UNL     1       1.711   0.830  23.297  0.00  0.00    +0.027 C 
BRANCH  21  22
ATOM     22  C   UNL     1       2.412   0.425  23.134  0.00  0.00    +0.087 C 
BRANCH  22  23
ATOM     23  C   UNL     1       3.114   0.845  23.025  0.00  0.00    +0.226 C 
ATOM     24  O   UNL     1       3.091   1.626  22.759  0.00  0.00    -0.275 OA
ATOM     25  N   UNL     1       3.839   0.484  23.182  0.00  0.00    -0.279 N 
ATOM     26  C   UNL     1       4.541   0.904  23.073  0.00  0.00    +0.096 C 
ATOM     27  C   UNL     1       5.266   0.542  23.230  0.00  0.00    +0.054 C 
ATOM     28  C   UNL     1       5.289  -0.239  23.495  0.00  0.00    +0.155 C 
ATOM     29  O   UNL     1       6.014  -0.600  23.652  0.00  0.00    -0.223 OA
ATOM     30  C   UNL     1       4.587  -0.658  23.604  0.00  0.00    +0.054 C 
ATOM     31  C   UNL     1       3.862  -0.296  23.447  0.00  0.00    +0.096 C 
ENDBRANCH  22  23
ENDBRANCH  21  22
ENDBRANCH  20  21
TORSDOF 5
ENDMDL
MODEL 7
REMARK VINA RESULT:      -7.9      3.508      5.005
REMARK  Name = 
REMARK  5 active torsions:
REMARK  status: ('A' for Active; 'I' for Inactive)
REMARK    1  A    between atoms: N_6  and  C_7
REMARK    2  A    between atoms: C_7  and  C_8
REMARK    3  A    between atoms: C_20  and  C_21
REMARK    4  A    between atoms: C_21  and  C_22
REMARK    5  A    between atoms: C_22  and  C_23
REMARK                            x       y       z     vdW  Elec       q    Type
REMARK                         _______ _______ _______ _____ _____    ______ ____
ROOT
ATOM      1  C   UNL     1      -4.524   1.896  24.401  0.00  0.00    +0.090 C 
ATOM      2  N   UNL     1      -3.761   1.810  24.705  0.00  0.00    -0.271 NA
ATOM      3  C   UNL     1      -3.374   2.511  24.903  0.00  0.00    +0.083 C 
ATOM      4  C   UNL     1      -3.712   3.259  24.811  0.00  0.00    +0.035 C 
ATOM      5  C   UNL     1      -3.165   3.820  25.066  0.00  0.00    +0.074 C 
ATOM      6  N   UNL     1      -2.487   3.420  25.316  0.00  0.00    -0.262 NA
ATOM     15  C   UNL     1      -2.617   2.611  25.215  0.00  0.00    +0.151 C 
ATOM     16  C   UNL     1      -2.060   2.034  25.406  0.00  0.00    +0.257 C 
ATOM     17  O   UNL     1      -1.346   2.313  25.712  0.00  0.00    -0.272 OA
ATOM     18  N   UNL     1      -2.121   1.215  25.332  0.00  0.00    -0.203 NA
ATOM     19  C   UNL     1      -2.757   0.770  25.049  0.00  0.00    +0.131 C 
ATOM     20  C   UNL     1      -3.486   1.035  24.769  0.00  0.00    +0.080 C 
ENDROOT
BRANCH   6   7
ATOM      7  C   UNL     1      -1.801   3.767  25.615  0.00  0.00    +0.100 C 
BRANCH   7   8
ATOM      8  C   UNL     1      -1.519   4.470  25.288  0.00  0.00    -0.005 A 
ATOM      9  C   UNL     1      -1.888   5.186  25.468  0.00  0.00    -0.003 A 
ATOM     10  C   UNL     1      -1.606   5.888  25.141  0.00  0.00    +0.001 A 
ATOM     11  C   UNL     1      -0.955   5.876  24.634  0.00  0.00    +0.011 A 
ATOM     12  C   UNL     1      -0.586   5.160  24.455  0.00  0.00    +0.057 A 
ATOM     13 CL   UNL     1       0.065   5.147  23.948  0.00  0.00    -0.082 Cl
ATOM     14  C   UNL     1      -0.868   4.457  24.781  0.00  0.00    +0.008 A 
ENDBRANCH   7   8
ENDBRANCH   6   7
BRANCH  20  21
ATOM     21  C   UNL     1      -4.010   0.447  24.522  0.00  0.00    +0.027 C 
BRANCH  21  22
ATOM     22  C   UNL     1      -3.817  -0.348  24.632  0.00  0.00    +0.087 C 
BRANCH  22  23
ATOM     23  C   UNL     1      -4.266  -0.935  24.264  0.00  0.00    +0.226 C 
ATOM     24  O   UNL     1      -4.982  -0.741  23.903  0.00  0.00    -0.275 OA
ATOM     25  N   UNL     1      -3.998  -1.715  24.257  0.00  0.00    -0.279 N 
ATOM     26  C   UNL     1      -4.447  -2.302  23.889  0.00  0.00    +0.096 C 
ATOM     27  C   UNL     1      -4.178  -3.082  23.883  0.00  0.00    +0.054 C 
ATOM     28  C   UNL     1      -3.462  -3.276  24.244  0.00  0.00    +0.155 C 
ATOM     29  O   UNL     1      -3.195  -4.056  24.237  0.00  0.00    -0.223 OA
ATOM     30  C   UNL     1      -3.014  -2.689  24.612  0.00  0.00    +0.054 C 
ATOM     31  C   UNL     1      -3.282  -1.908  24.618  0.00  0.00    +0.096 C 
ENDBRANCH  22  23
ENDBRANCH  21  22
ENDBRANCH  20  21
TORSDOF 5
ENDMDL
MODEL 8
REMARK VINA RESULT:      -6.6     15.665     16.959
REMARK  Name = 
REMARK  5 active torsions:
REMARK  status: ('A' for Active; 'I' for Inactive)
REMARK    1  A    between atoms: N_6  and  C_7
REMARK    2  A    between atoms: C_7  and  C_8
REMARK    3  A    between atoms: C_20  and  C_21
REMARK    4  A    between atoms: C_21  and  C_22
REMARK    5  A    between atoms: C_22  and  C_23
REMARK                            x       y       z     vdW  Elec       q    Type
REMARK                         _______ _______ _______ _____ _____    ______ ____
ROOT
ATOM      1  C   UNL     1      -5.159 -10.635  14.387  0.00  0.00    +0.090 C 
ATOM      2  N   UNL     1      -5.673 -10.238  13.878  0.00  0.00    -0.271 NA
ATOM      3  C   UNL     1      -5.380 -10.083  13.123  0.00  0.00    +0.083 C 
ATOM      4  C   UNL     1      -4.624 -10.302  12.875  0.00  0.00    +0.035 C 
ATOM      5  C   UNL     1      -4.530 -10.054  12.093  0.00  0.00    +0.074 C 
ATOM      6  N   UNL     1      -5.228  -9.682  11.858  0.00  0.00    -0.262 NA
ATOM     15  C   UNL     1      -5.753  -9.700  12.495  0.00  0.00    +0.151 C 
ATOM     16  C   UNL     1      -6.512  -9.378  12.467  0.00  0.00    +0.257 C 
ATOM     17  O   UNL     1      -6.727  -9.028  11.750  0.00  0.00    -0.272 OA
ATOM     18  N   UNL     1      -7.086  -9.360  13.059  0.00  0.00    -0.203 NA
ATOM     19  C   UNL     1      -7.041  -9.660  13.828  0.00  0.00    +0.131 C 
ATOM     20  C   UNL     1      -6.412 -10.050  14.192  0.00  0.00    +0.080 C 
ENDROOT
BRANCH   6   7
ATOM      7  C   UNL     1      -5.376  -9.351  11.117  0.00  0.00    +0.100 C 
BRANCH   7   8
ATOM      8  C   UNL     1      -4.800  -9.389  10.527  0.00  0.00    -0.005 A 
ATOM      9  C   UNL     1      -4.161  -8.868  10.540  0.00  0.00    -0.003 A 
ATOM     10  C   UNL     1      -3.586  -8.907   9.950  0.00  0.00    +0.001 A 
ATOM     11  C   UNL     1      -3.650  -9.466   9.346  0.00  0.00    +0.011 A 
ATOM     12  C   UNL     1      -4.291  -9.986   9.334  0.00  0.00    +0.057 A 
ATOM     13 CL   UNL     1      -4.356 -10.545   8.730  0.00  0.00    -0.082 Cl
ATOM     14  C   UNL     1      -4.866  -9.948   9.923  0.00  0.00    +0.008 A 
ENDBRANCH   7   8
ENDBRANCH   6   7
BRANCH  20  21
ATOM     21  C   UNL     1      -6.540 -10.283  14.973  0.00  0.00    +0.027 C 
BRANCH  21  22
ATOM     22  C   UNL     1      -7.164  -9.956  15.403  0.00  0.00    +0.087 C 
BRANCH  22  23
ATOM     23  C   UNL     1      -7.300 -10.199  16.180  0.00  0.00    +0.226 C 
ATOM     24  O   UNL     1      -6.824 -10.781  16.521  0.00  0.00    -0.275 OA
ATOM     25  N   UNL     1      -7.911  -9.858  16.617  0.00  0.00    -0.279 N 
ATOM     26  C   UNL     1      -8.047 -10.100  17.394  0.00  0.00    +0.096 C 
ATOM     27  C   UNL     1      -8.659  -9.759  17.831  0.00  0.00    +0.054 C 
ATOM     28  C   UNL     1      -9.134  -9.177  17.491  0.00  0.00    +0.155 C 
ATOM     29  O   UNL     1      -9.746  -8.837  17.928  0.00  0.00    -0.223 OA
ATOM     30  C   UNL     1      -8.998  -8.935  16.714  0.00  0.00    +0.054 C 
ATOM     31  C   UNL     1      -8.386  -9.276  16.278  0.00  0.00    +0.096 C 
ENDBRANCH  22  23
ENDBRANCH  21  22
ENDBRANCH  20  21
TORSDOF 5
ENDMDL
MODEL 9
REMARK VINA RESULT:      -6.6     15.089     16.399
REMARK  Name = 
REMARK  5 active torsions:
REMARK  status: ('A' for Active; 'I' for Inactive)
REMARK    1  A    between atoms: N_6  and  C_7
REMARK    2  A    between atoms: C_7  and  C_8
REMARK    3  A    between atoms: C_20  and  C_21
REMARK    4  A    between atoms: C_21  and  C_22
REMARK    5  A    between atoms: C_22  and  C_23
REMARK                            x       y       z     vdW  Elec       q    Type
REMARK                         _______ _______ _______ _____ _____    ______ ____
ROOT
ATOM      1  C   UNL     1      -3.448 -10.781  14.740  0.00  0.00    +0.090 C 
ATOM      2  N   UNL     1      -4.171 -10.517  14.439  0.00  0.00    -0.271 NA
ATOM      3  C   UNL     1      -4.204 -10.422  13.621  0.00  0.00    +0.083 C 
ATOM      4  C   UNL     1      -3.568 -10.576  13.118  0.00  0.00    +0.035 C 
ATOM      5  C   UNL     1      -3.809 -10.419  12.346  0.00  0.00    +0.074 C 
ATOM      6  N   UNL     1      -4.595 -10.168  12.370  0.00  0.00    -0.262 NA
ATOM     15  C   UNL     1      -4.839 -10.170  13.158  0.00  0.00    +0.151 C 
ATOM     16  C   UNL     1      -5.596  -9.950  13.400  0.00  0.00    +0.257 C 
ATOM     17  O   UNL     1      -6.112  -9.722  12.797  0.00  0.00    -0.272 OA
ATOM     18  N   UNL     1      -5.906  -9.928  14.164  0.00  0.00    -0.203 NA
ATOM     19  C   UNL     1      -5.535 -10.121  14.875  0.00  0.00    +0.131 C 
ATOM     20  C   UNL     1      -4.763 -10.383  14.998  0.00  0.00    +0.080 C 
ENDROOT
BRANCH   6   7
ATOM      7  C   UNL     1      -5.056  -9.953  11.720  0.00  0.00    +0.100 C 
BRANCH   7   8
ATOM      8  C   UNL     1      -4.743 -10.003  10.958  0.00  0.00    -0.005 A 
ATOM      9  C   UNL     1      -4.713 -10.731  10.572  0.00  0.00    -0.003 A 
ATOM     10  C   UNL     1      -4.400 -10.781   9.811  0.00  0.00    +0.001 A 
ATOM     11  C   UNL     1      -4.117 -10.104   9.434  0.00  0.00    +0.011 A 
ATOM     12  C   UNL     1      -4.147  -9.375   9.822  0.00  0.00    +0.057 A 
ATOM     13 CL   UNL     1      -3.864  -8.697   9.446  0.00  0.00    -0.082 Cl
ATOM     14  C   UNL     1      -4.460  -9.325  10.583  0.00  0.00    +0.008 A 
ENDBRANCH   7   8
ENDBRANCH   6   7
BRANCH  20  21
ATOM     21  C   UNL     1      -4.555 -10.531  15.783  0.00  0.00    +0.027 C 
BRANCH  21  22
ATOM     22  C   UNL     1      -5.121 -10.456  16.379  0.00  0.00    +0.087 C 
BRANCH  22  23
ATOM     23  C   UNL     1      -4.901 -10.546  17.169  0.00  0.00    +0.226 C 
ATOM     24  O   UNL     1      -4.103 -10.614  17.371  0.00  0.00    -0.275 OA
ATOM     25  N   UNL     1      -5.479 -10.569  17.758  0.00  0.00    -0.279 N 
ATOM     26  C   UNL     1      -5.259 -10.660  18.548  0.00  0.00    +0.096 C 
ATOM     27  C   UNL     1      -5.837 -10.683  19.137  0.00  0.00    +0.054 C 
ATOM     28  C   UNL     1      -6.634 -10.615  18.935  0.00  0.00    +0.155 C 
ATOM     29  O   UNL     1      -7.212 -10.638  19.524  0.00  0.00    -0.223 OA
ATOM     30  C   UNL     1      -6.854 -10.525  18.145  0.00  0.00    +0.054 C 
ATOM     31  C   UNL     1      -6.275 -10.502  17.557  0.00  0.00    +0.096 C 
ENDBRANCH  22  23
ENDBRANCH  21  22
ENDBRANCH  20  21
TORSDOF 5
ENDMDL
MODEL 10
REMARK VINA RESULT:      -6.5     16.264     17.003
REMARK  Name = 
REMARK  5 active torsions:
REMARK  status: ('A' for Active; 'I' for Inactive)
REMARK    1  A    between atoms: N_6  and  C_7
REMARK    2  A    between atoms: C_7  and  C_8
REMARK    3  A    between atoms: C_20  and  C_21
REMARK    4  A    between atoms: C_21  and  C_22
REMARK    5  A    between atoms: C_22  and  C_23
REMARK                            x       y       z     vdW  Elec       q    Type
REMARK                         _______ _______ _______ _____ _____    ______ ____
ROOT
ATOM      1  C   UNL     1      -4.603  -9.847  12.070  0.00  0.00    +0.090 C 
ATOM      2  N   UNL     1      -5.414  -9.797  12.215  0.00  0.00    -0.271 NA
ATOM      3  C   UNL     1      -5.877  -9.559  11.575  0.00  0.00    +0.083 C 
ATOM      4  C   UNL     1      -5.567  -9.379  10.832  0.00  0.00    +0.035 C 
ATOM      5  C   UNL     1      -6.194  -9.165  10.339  0.00  0.00    +0.074 C 
ATOM      6  N   UNL     1      -6.891  -9.212  10.779  0.00  0.00    -0.262 NA
ATOM     15  C   UNL     1      -6.695  -9.456  11.543  0.00  0.00    +0.151 C 
ATOM     16  C   UNL     1      -7.251  -9.565  12.142  0.00  0.00    +0.257 C 
ATOM     17  O   UNL     1      -8.036  -9.415  11.933  0.00  0.00    -0.272 OA
ATOM     18  N   UNL     1      -7.128  -9.805  12.921  0.00  0.00    -0.203 NA
ATOM     19  C   UNL     1      -6.416  -9.994  13.294  0.00  0.00    +0.131 C 
ATOM     20  C   UNL     1      -5.654  -9.990  12.980  0.00  0.00    +0.080 C 
ENDROOT
BRANCH   6   7
ATOM      7  C   UNL     1      -7.651  -9.046  10.503  0.00  0.00    +0.100 C 
BRANCH   7   8
ATOM      8  C   UNL     1      -7.767  -8.851   9.710  0.00  0.00    -0.005 A 
ATOM      9  C   UNL     1      -7.862  -9.447   9.148  0.00  0.00    -0.003 A 
ATOM     10  C   UNL     1      -7.979  -9.252   8.356  0.00  0.00    +0.001 A 
ATOM     11  C   UNL     1      -8.001  -8.461   8.124  0.00  0.00    +0.011 A 
ATOM     12  C   UNL     1      -7.906  -7.864   8.686  0.00  0.00    +0.057 A 
ATOM     13 CL   UNL     1      -7.928  -7.072   8.455  0.00  0.00    -0.082 Cl
ATOM     14  C   UNL     1      -7.789  -8.059   9.479  0.00  0.00    +0.008 A 
ENDBRANCH   7   8
ENDBRANCH   6   7
BRANCH  20  21
ATOM     21  C   UNL     1      -5.052 -10.210  13.500  0.00  0.00    +0.027 C 
BRANCH  21  22
ATOM     22  C   UNL     1      -5.204 -10.256  14.310  0.00  0.00    +0.087 C 
BRANCH  22  23
ATOM     23  C   UNL     1      -4.609 -10.501  14.827  0.00  0.00    +0.226 C 
ATOM     24  O   UNL     1      -3.889 -10.773  14.530  0.00  0.00    -0.275 OA
ATOM     25  N   UNL     1      -4.735 -10.472  15.642  0.00  0.00    -0.279 N 
ATOM     26  C   UNL     1      -4.140 -10.717  16.160  0.00  0.00    +0.096 C 
ATOM     27  C   UNL     1      -4.266 -10.688  16.975  0.00  0.00    +0.054 C 
ATOM     28  C   UNL     1      -4.985 -10.416  17.272  0.00  0.00    +0.155 C 
ATOM     29  O   UNL     1      -5.110 -10.387  18.087  0.00  0.00    -0.223 OA
ATOM     30  C   UNL     1      -5.579 -10.171  16.755  0.00  0.00    +0.054 C 
ATOM     31  C   UNL     1      -5.453 -10.200  15.940  0.00  0.00    +0.096 C 
ENDBRANCH  22  23
ENDBRANCH  21  22
ENDBRANCH  20  21
TORSDOF 5
ENDMDL
