MODEL 1
REMARK VINA RESULT:     -10.9      0.000      0.000
REMARK  Name = 
REMARK  4 active torsions:
REMARK  status: ('A' for Active; 'I' for Inactive)
REMARK    1  A    between atoms: C_3  and  C_12
REMARK    2  A    between atoms: N_4  and  C_6
REMARK    3  A    between atoms: C_14  and  C_17
REMARK    4  A    between atoms: C_20  and  C_23
REMARK                            x       y       z     vdW  Elec       q    Type
REMARK                         _______ _______ _______ _____ _____    ______ ____
ROOT
ATOM     12  C   UNL     1      -3.163   2.892  24.941  0.00  0.00    +0.251 A 
ATOM     13  N   UNL     1      -3.249   2.104  25.170  0.00  0.00    -0.190 NA
ATOM     14  C   UNL     1      -3.317   1.646  24.488  0.00  0.00    +0.205 A 
ATOM     15  N   UNL     1      -3.273   2.150  23.837  0.00  0.00    -0.056 NA
ATOM     16  O   UNL     1      -3.178   2.920  24.117  0.00  0.00    -0.336 OA
ENDROOT
BRANCH  14  17
ATOM     17  C   UNL     1      -3.413   0.827  24.461  0.00  0.00    +0.058 A 
ATOM     18  C   UNL     1      -4.141   0.491  24.653  0.00  0.00    +0.006 A 
ATOM     19  C   UNL     1      -4.237  -0.329  24.627  0.00  0.00    +0.019 A 
ATOM     20  C   UNL     1      -3.604  -0.811  24.408  0.00  0.00    +0.084 A 
ATOM     21  N   UNL     1      -2.876  -0.475  24.216  0.00  0.00    -0.244 NA
ATOM     22  C   UNL     1      -2.780   0.345  24.243  0.00  0.00    +0.102 A 
BRANCH  20  23
ATOM     23  C   UNL     1      -3.700  -1.630  24.382  0.00  0.00    +0.056 A 
ATOM     24  C   UNL     1      -3.331  -2.107  24.946  0.00  0.00    +0.104 A 
ATOM     25  N   UNL     1      -3.427  -2.926  24.919  0.00  0.00    -0.222 NA
ATOM     26  C   UNL     1      -3.890  -3.268  24.329  0.00  0.00    +0.199 A 
ATOM     27  N   UNL     1      -4.259  -2.792  23.765  0.00  0.00    -0.222 NA
ATOM     28  C   UNL     1      -4.163  -1.973  23.792  0.00  0.00    +0.104 A 
ENDBRANCH  20  23
ENDBRANCH  14  17
BRANCH  12   3
ATOM      1  C   UNL     1      -3.355   4.563  26.256  0.00  0.00    +0.019 C 
ATOM      2  C   UNL     1      -3.690   3.968  25.793  0.00  0.00    +0.027 C 
ATOM      3  C   UNL     1      -3.077   3.538  25.447  0.00  0.00    +0.138 C 
ATOM      4  N   UNL     1      -2.364   3.867  25.696  0.00  0.00    -0.268 NA
ATOM      5  C   UNL     1      -2.534   4.500  26.196  0.00  0.00    +0.072 C 
BRANCH   4   6
ATOM      6  C   UNL     1      -1.610   3.607  25.483  0.00  0.00    +0.063 C 
ATOM      7  C   UNL     1      -1.260   3.881  24.788  0.00  0.00    +0.048 C 
ATOM      8  C   UNL     1      -0.507   3.622  24.574  0.00  0.00    +0.144 C 
ATOM      9  O   UNL     1      -0.103   3.089  25.056  0.00  0.00    -0.354 OA
ATOM     10  C   UNL     1      -0.451   2.814  25.752  0.00  0.00    +0.144 C 
ATOM     11  C   UNL     1      -1.205   3.073  25.965  0.00  0.00    +0.048 C 
ENDBRANCH   4   6
ENDBRANCH  12   3
TORSDOF 4
ENDMDL
MODEL 2
REMARK VINA RESULT:     -10.5      0.897      1.930
REMARK  Name = 
REMARK  4 active torsions:
REMARK  status: ('A' for Active; 'I' for Inactive)
REMARK    1  A    between atoms: C_3  and  C_12
REMARK    2  A    between atoms: N_4  and  C_6
REMARK    3  A    between atoms: C_14  and  C_17
REMARK    4  A    between atoms: C_20  and  C_23
REMARK                            x       y       z     vdW  Elec       q    Type
REMARK                         _______ _______ _______ _____ _____    ______ ____
ROOT
ATOM     12  C   UNL     1      -2.269   2.728  24.350  0.00  0.00    +0.251 A 
ATOM     13  N   UNL     1      -2.388   1.986  24.691  0.00  0.00    -0.190 NA
ATOM     14  C   UNL     1      -2.653   1.474  24.102  0.00  0.00    +0.205 A 
ATOM     15  N   UNL     1      -2.698   1.899  23.397  0.00  0.00    -0.056 NA
ATOM     16  O   UNL     1      -2.460   2.673  23.550  0.00  0.00    -0.336 OA
ENDROOT
BRANCH  14  17
ATOM     17  C   UNL     1      -2.841   0.677  24.201  0.00  0.00    +0.058 A 
ATOM     18  C   UNL     1      -3.625   0.427  24.136  0.00  0.00    +0.006 A 
ATOM     19  C   UNL     1      -3.813  -0.370  24.235  0.00  0.00    +0.019 A 
ATOM     20  C   UNL     1      -3.217  -0.917  24.398  0.00  0.00    +0.084 A 
ATOM     21  N   UNL     1      -2.434  -0.668  24.463  0.00  0.00    -0.244 NA
ATOM     22  C   UNL     1      -2.246   0.130  24.364  0.00  0.00    +0.102 A 
BRANCH  20  23
ATOM     23  C   UNL     1      -3.405  -1.715  24.497  0.00  0.00    +0.056 A 
ATOM     24  C   UNL     1      -3.816  -2.118  23.906  0.00  0.00    +0.104 A 
ATOM     25  N   UNL     1      -4.004  -2.915  24.004  0.00  0.00    -0.222 NA
ATOM     26  C   UNL     1      -3.781  -3.309  24.694  0.00  0.00    +0.199 A 
ATOM     27  N   UNL     1      -3.370  -2.907  25.285  0.00  0.00    -0.222 NA
ATOM     28  C   UNL     1      -3.182  -2.109  25.186  0.00  0.00    +0.104 A 
ENDBRANCH  20  23
ENDBRANCH  14  17
BRANCH  12   3
ATOM      1  C   UNL     1      -1.208   4.355  25.237  0.00  0.00    +0.019 C 
ATOM      2  C   UNL     1      -1.220   3.655  24.800  0.00  0.00    +0.027 C 
ATOM      3  C   UNL     1      -2.004   3.404  24.741  0.00  0.00    +0.138 C 
ATOM      4  N   UNL     1      -2.476   3.949  25.141  0.00  0.00    -0.268 NA
ATOM      5  C   UNL     1      -1.986   4.537  25.448  0.00  0.00    +0.072 C 
BRANCH   4   6
ATOM      6  C   UNL     1      -3.296   3.913  25.220  0.00  0.00    +0.063 C 
ATOM      7  C   UNL     1      -3.783   4.170  24.606  0.00  0.00    +0.048 C 
ATOM      8  C   UNL     1      -4.603   4.134  24.685  0.00  0.00    +0.144 C 
ATOM      9  O   UNL     1      -4.937   3.840  25.379  0.00  0.00    -0.354 OA
ATOM     10  C   UNL     1      -4.452   3.582  25.994  0.00  0.00    +0.144 C 
ATOM     11  C   UNL     1      -3.631   3.619  25.915  0.00  0.00    +0.048 C 
ENDBRANCH   4   6
ENDBRANCH  12   3
TORSDOF 4
ENDMDL
MODEL 3
REMARK VINA RESULT:      -9.6      1.656      2.179
REMARK  Name = 
REMARK  4 active torsions:
REMARK  status: ('A' for Active; 'I' for Inactive)
REMARK    1  A    between atoms: C_3  and  C_12
REMARK    2  A    between atoms: N_4  and  C_6
REMARK    3  A    between atoms: C_14  and  C_17
REMARK    4  A    between atoms: C_20  and  C_23
REMARK                            x       y       z     vdW  Elec       q    Type
REMARK                         _______ _______ _______ _____ _____    ______ ____
ROOT
ATOM     12  C   UNL     1      -4.344   2.197  24.677  0.00  0.00    +0.251 A 
ATOM     13  N   UNL     1      -3.908   1.593  25.032  0.00  0.00    -0.190 NA
ATOM     14  C   UNL     1      -3.501   1.189  24.439  0.00  0.00    +0.205 A 
ATOM     15  N   UNL     1      -3.686   1.543  23.718  0.00  0.00    -0.056 NA
ATOM     16  O   UNL     1      -4.206   2.165  23.865  0.00  0.00    -0.336 OA
ENDROOT
BRANCH  14  17
ATOM     17  C   UNL     1      -2.998   0.544  24.549  0.00  0.00    +0.058 A 
ATOM     18  C   UNL     1      -3.273  -0.133  24.931  0.00  0.00    +0.006 A 
ATOM     19  C   UNL     1      -2.770  -0.778  25.041  0.00  0.00    +0.019 A 
ATOM     20  C   UNL     1      -1.992  -0.745  24.768  0.00  0.00    +0.084 A 
ATOM     21  N   UNL     1      -1.717  -0.068  24.386  0.00  0.00    -0.244 NA
ATOM     22  C   UNL     1      -2.220   0.577  24.276  0.00  0.00    +0.102 A 
BRANCH  20  23
ATOM     23  C   UNL     1      -1.489  -1.390  24.878  0.00  0.00    +0.056 A 
ATOM     24  C   UNL     1      -0.778  -1.293  25.286  0.00  0.00    +0.104 A 
ATOM     25  N   UNL     1      -0.275  -1.938  25.396  0.00  0.00    -0.222 NA
ATOM     26  C   UNL     1      -0.482  -2.678  25.097  0.00  0.00    +0.199 A 
ATOM     27  N   UNL     1      -1.192  -2.775  24.689  0.00  0.00    -0.222 NA
ATOM     28  C   UNL     1      -1.696  -2.130  24.579  0.00  0.00    +0.104 A 
ENDBRANCH  20  23
ENDBRANCH  14  17
BRANCH  12   3
ATOM      1  C   UNL     1      -5.903   3.311  25.617  0.00  0.00    +0.019 C 
ATOM      2  C   UNL     1      -5.638   2.640  25.217  0.00  0.00    +0.027 C 
ATOM      3  C   UNL     1      -4.832   2.736  25.066  0.00  0.00    +0.138 C 
ATOM      4  N   UNL     1      -4.601   3.465  25.372  0.00  0.00    -0.268 NA
ATOM      5  C   UNL     1      -5.262   3.821  25.713  0.00  0.00    +0.072 C 
BRANCH   4   6
ATOM      6  C   UNL     1      -3.840   3.783  25.343  0.00  0.00    +0.063 C 
ATOM      7  C   UNL     1      -3.580   4.170  24.662  0.00  0.00    +0.048 C 
ATOM      8  C   UNL     1      -2.820   4.488  24.633  0.00  0.00    +0.144 C 
ATOM      9  O   UNL     1      -2.319   4.421  25.285  0.00  0.00    -0.354 OA
ATOM     10  C   UNL     1      -2.578   4.034  25.967  0.00  0.00    +0.144 C 
ATOM     11  C   UNL     1      -3.339   3.716  25.996  0.00  0.00    +0.048 C 
ENDBRANCH   4   6
ENDBRANCH  12   3
TORSDOF 4
ENDMDL
MODEL 4
REMARK VINA RESULT:      -9.5      2.119      5.012
REMARK  Name = 
REMARK  4 active torsions:
REMARK  status: ('A' for Active; 'I' for Inactive)
REMARK    1  A    between atoms: C_3  and  C_12
REMARK    2  A    between atoms: N_4  and  C_6
REMARK    3  A    between atoms: C_14  and  C_17
REMARK    4  A    between atoms: C_20  and  C_23
REMARK                            x       y       z     vdW  Elec       q    Type
REMARK                         _______ _______ _______ _____ _____    ______ ____
ROOT
ATOM     12  C   UNL     1      -3.452  -1.168  24.206  0.00  0.00    +0.251 A 
ATOM     13  N   UNL     1      -3.749  -0.565  24.685  0.00  0.00    -0.190 NA
ATOM     14  C   UNL     1      -3.858   0.104  24.216  0.00  0.00    +0.205 A 
ATOM     15  N   UNL     1      -3.628  -0.084  23.447  0.00  0.00    -0.056 NA
ATOM     16  O   UNL     1      -3.377  -0.869  23.441  0.00  0.00    -0.336 OA
ENDROOT
BRANCH  14  17
ATOM     17  C   UNL     1      -4.146   0.834  24.471  0.00  0.00    +0.058 A 
ATOM     18  C   UNL     1      -4.792   0.866  24.983  0.00  0.00    +0.006 A 
ATOM     19  C   UNL     1      -5.080   1.596  25.238  0.00  0.00    +0.019 A 
ATOM     20  C   UNL     1      -4.723   2.293  24.981  0.00  0.00    +0.084 A 
ATOM     21  N   UNL     1      -4.077   2.262  24.469  0.00  0.00    -0.244 NA
ATOM     22  C   UNL     1      -3.789   1.532  24.214  0.00  0.00    +0.102 A 
BRANCH  20  23
ATOM     23  C   UNL     1      -5.011   3.023  25.236  0.00  0.00    +0.056 A 
ATOM     24  C   UNL     1      -4.535   3.695  25.186  0.00  0.00    +0.104 A 
ATOM     25  N   UNL     1      -4.823   4.425  25.441  0.00  0.00    -0.222 NA
ATOM     26  C   UNL     1      -5.588   4.482  25.746  0.00  0.00    +0.199 A 
ATOM     27  N   UNL     1      -6.064   3.811  25.797  0.00  0.00    -0.222 NA
ATOM     28  C   UNL     1      -5.776   3.081  25.542  0.00  0.00    +0.104 A 
ENDBRANCH  20  23
ENDBRANCH  14  17
BRANCH  12   3
ATOM      1  C   UNL     1      -3.353  -3.235  24.729  0.00  0.00    +0.019 C 
ATOM      2  C   UNL     1      -3.768  -2.584  24.437  0.00  0.00    +0.027 C 
ATOM      3  C   UNL     1      -3.263  -1.932  24.450  0.00  0.00    +0.138 C 
ATOM      4  N   UNL     1      -2.536  -2.180  24.749  0.00  0.00    -0.268 NA
ATOM      5  C   UNL     1      -2.590  -2.984  24.922  0.00  0.00    +0.072 C 
BRANCH   4   6
ATOM      6  C   UNL     1      -1.869  -1.705  24.857  0.00  0.00    +0.063 C 
ATOM      7  C   UNL     1      -1.318  -1.623  24.249  0.00  0.00    +0.048 C 
ATOM      8  C   UNL     1      -0.652  -1.149  24.357  0.00  0.00    +0.144 C 
ATOM      9  O   UNL     1      -0.537  -0.757  25.073  0.00  0.00    -0.354 OA
ATOM     10  C   UNL     1      -1.088  -0.838  25.682  0.00  0.00    +0.144 C 
ATOM     11  C   UNL     1      -1.754  -1.313  25.574  0.00  0.00    +0.048 C 
ENDBRANCH   4   6
ENDBRANCH  12   3
TORSDOF 4
ENDMDL
MODEL 5
REMARK VINA RESULT:      -9.2      3.111      5.062
REMARK  Name = 
REMARK  4 active torsions:
REMARK  status: ('A' for Active; 'I' for Inactive)
REMARK    1  A    between atoms: C_3  and  C_12
REMARK    2  A    between atoms: N_4  and  C_6
REMARK    3  A    between atoms: C_14  and  C_17
REMARK    4  A    between atoms: C_20  and  C_23
REMARK                            x       y       z     vdW  Elec       q    Type
REMARK                         _______ _______ _______ _____ _____    ______ ____
ROOT
ATOM     12  C   UNL     1      -2.586   0.239  24.968  0.00  0.00    +0.251 A 
ATOM     13  N   UNL     1      -2.048   0.307  24.345  0.00  0.00    -0.190 NA
ATOM     14  C   UNL     1      -1.296   0.133  24.637  0.00  0.00    +0.205 A 
ATOM     15  N   UNL     1      -1.369  -0.042  25.440  0.00  0.00    -0.056 NA
ATOM     16  O   UNL     1      -2.165   0.024  25.643  0.00  0.00    -0.336 OA
ENDROOT
BRANCH  14  17
ATOM     17  C   UNL     1      -0.595   0.134  24.203  0.00  0.00    +0.058 A 
ATOM     18  C   UNL     1      -0.272   0.848  23.944  0.00  0.00    +0.006 A 
ATOM     19  C   UNL     1       0.430   0.849  23.509  0.00  0.00    +0.019 A 
ATOM     20  C   UNL     1       0.808   0.137  23.334  0.00  0.00    +0.084 A 
ATOM     21  N   UNL     1       0.485  -0.577  23.593  0.00  0.00    -0.244 NA
ATOM     22  C   UNL     1      -0.217  -0.578  24.027  0.00  0.00    +0.102 A 
BRANCH  20  23
ATOM     23  C   UNL     1       1.509   0.138  22.899  0.00  0.00    +0.056 A 
ATOM     24  C   UNL     1       2.180   0.513  23.200  0.00  0.00    +0.104 A 
ATOM     25  N   UNL     1       2.881   0.514  22.765  0.00  0.00    -0.222 NA
ATOM     26  C   UNL     1       2.912   0.140  22.030  0.00  0.00    +0.199 A 
ATOM     27  N   UNL     1       2.241  -0.234  21.729  0.00  0.00    -0.222 NA
ATOM     28  C   UNL     1       1.540  -0.235  22.164  0.00  0.00    +0.104 A 
ENDBRANCH  20  23
ENDBRANCH  14  17
BRANCH  12   3
ATOM      1  C   UNL     1      -4.591   0.965  24.879  0.00  0.00    +0.019 C 
ATOM      2  C   UNL     1      -3.779   1.097  24.942  0.00  0.00    +0.027 C 
ATOM      3  C   UNL     1      -3.399   0.365  24.921  0.00  0.00    +0.138 C 
ATOM      4  N   UNL     1      -3.976  -0.219  24.846  0.00  0.00    -0.268 NA
ATOM      5  C   UNL     1      -4.713   0.151  24.820  0.00  0.00    +0.072 C 
BRANCH   4   6
ATOM      6  C   UNL     1      -3.841  -1.032  24.804  0.00  0.00    +0.063 C 
ATOM      7  C   UNL     1      -3.683  -1.460  25.491  0.00  0.00    +0.048 C 
ATOM      8  C   UNL     1      -3.547  -2.273  25.450  0.00  0.00    +0.144 C 
ATOM      9  O   UNL     1      -3.570  -2.657  24.721  0.00  0.00    -0.354 OA
ATOM     10  C   UNL     1      -3.728  -2.230  24.033  0.00  0.00    +0.144 C 
ATOM     11  C   UNL     1      -3.863  -1.417  24.074  0.00  0.00    +0.048 C 
ENDBRANCH   4   6
ENDBRANCH  12   3
TORSDOF 4
ENDMDL
MODEL 6
REMARK VINA RESULT:      -9.2      1.886      5.736
REMARK  Name = 
REMARK  4 active torsions:
REMARK  status: ('A' for Active; 'I' for Inactive)
REMARK    1  A    between atoms: C_3  and  C_12
REMARK    2  A    between atoms: N_4  and  C_6
REMARK    3  A    between atoms: C_14  and  C_17
REMARK    4  A    between atoms: C_20  and  C_23
REMARK                            x       y       z     vdW  Elec       q    Type
REMARK                         _______ _______ _______ _____ _____    ______ ____
ROOT
ATOM     12  C   UNL     1      -1.345  -0.706  25.262  0.00  0.00    +0.251 A 
ATOM     13  N   UNL     1      -1.315   0.043  24.917  0.00  0.00    -0.190 NA
ATOM     14  C   UNL     1      -1.300   0.602  25.523  0.00  0.00    +0.205 A 
ATOM     15  N   UNL     1      -1.321   0.200  26.242  0.00  0.00    -0.056 NA
ATOM     16  O   UNL     1      -1.349  -0.608  26.081  0.00  0.00    -0.336 OA
ENDROOT
BRANCH  14  17
ATOM     17  C   UNL     1      -1.269   1.421  25.425  0.00  0.00    +0.058 A 
ATOM     18  C   UNL     1      -0.641   1.851  25.744  0.00  0.00    +0.006 A 
ATOM     19  C   UNL     1      -0.610   2.670  25.647  0.00  0.00    +0.019 A 
ATOM     20  C   UNL     1      -1.207   3.058  25.232  0.00  0.00    +0.084 A 
ATOM     21  N   UNL     1      -1.835   2.629  24.913  0.00  0.00    -0.244 NA
ATOM     22  C   UNL     1      -1.866   1.810  25.010  0.00  0.00    +0.102 A 
BRANCH  20  23
ATOM     23  C   UNL     1      -1.176   3.878  25.134  0.00  0.00    +0.056 A 
ATOM     24  C   UNL     1      -1.769   4.353  25.456  0.00  0.00    +0.104 A 
ATOM     25  N   UNL     1      -1.738   5.172  25.358  0.00  0.00    -0.222 NA
ATOM     26  C   UNL     1      -1.115   5.515  24.941  0.00  0.00    +0.199 A 
ATOM     27  N   UNL     1      -0.522   5.039  24.620  0.00  0.00    -0.222 NA
ATOM     28  C   UNL     1      -0.553   4.220  24.717  0.00  0.00    +0.104 A 
ENDBRANCH  20  23
ENDBRANCH  14  17
BRANCH  12   3
ATOM      1  C   UNL     1      -0.991  -2.547  24.241  0.00  0.00    +0.019 C 
ATOM      2  C   UNL     1      -0.714  -1.872  24.626  0.00  0.00    +0.027 C 
ATOM      3  C   UNL     1      -1.368  -1.425  24.859  0.00  0.00    +0.138 C 
ATOM      4  N   UNL     1      -2.048  -1.825  24.619  0.00  0.00    -0.268 NA
ATOM      5  C   UNL     1      -1.816  -2.518  24.237  0.00  0.00    +0.072 C 
BRANCH   4   6
ATOM      6  C   UNL     1      -2.825  -1.575  24.739  0.00  0.00    +0.063 C 
ATOM      7  C   UNL     1      -3.192  -1.703  25.467  0.00  0.00    +0.048 C 
ATOM      8  C   UNL     1      -3.969  -1.453  25.587  0.00  0.00    +0.144 C 
ATOM      9  O   UNL     1      -4.379  -1.076  24.980  0.00  0.00    -0.354 OA
ATOM     10  C   UNL     1      -4.013  -0.947  24.252  0.00  0.00    +0.144 C 
ATOM     11  C   UNL     1      -3.236  -1.197  24.131  0.00  0.00    +0.048 C 
ENDBRANCH   4   6
ENDBRANCH  12   3
TORSDOF 4
ENDMDL
