MODEL 1
REMARK VINA RESULT:     -13.7      0.000      0.000
REMARK  Name = 
REMARK  5 active torsions:
REMARK  status: ('A' for Active; 'I' for Inactive)
REMARK    1  A    between atoms: C_2  and  C_3
REMARK    2  A    between atoms: C_3  and  S_4
REMARK    3  A    between atoms: S_4  and  N_7
REMARK    4  A    between atoms: N_7  and  C_8
REMARK    5  A    between atoms: N_20  and  C_21
REMARK                            x       y       z     vdW  Elec       q    Type
REMARK                         _______ _______ _______ _____ _____    ______ ____
ROOT
ATOM      8  C   UNL     1      -2.917   2.707  25.041  0.00  0.00    +0.147 A 
ATOM      9  C   UNL     1      -3.522   3.264  25.098  0.00  0.00    +0.024 A 
ATOM     10  C   UNL     1      -4.310   3.019  25.097  0.00  0.00    +0.014 A 
ATOM     11  C   UNL     1      -4.492   2.217  25.038  0.00  0.00    +0.041 A 
ATOM     12  C   UNL     1      -5.214   1.649  25.010  0.00  0.00    +0.058 C 
ATOM     13  C   UNL     1      -5.916   1.650  25.026  0.00  0.00    +0.011 C 
ATOM     14  C   UNL     1      -5.315   1.102  24.970  0.00  0.00    +0.043 C 
ATOM     15  C   UNL     1      -4.742   0.302  24.895  0.00  0.00    +0.097 C 
ATOM     16  N   UNL     1      -3.990   0.666  24.906  0.00  0.00    -0.262 N 
ATOM     17  C   UNL     1      -4.673   0.866  24.937  0.00  0.00    +0.101 C 
ATOM     18  C   UNL     1      -3.168   0.735  24.893  0.00  0.00    +0.327 C 
ATOM     19  O   UNL     1      -2.815   1.480  24.944  0.00  0.00    -0.250 OA
ATOM     20  N   UNL     1      -2.698   0.060  24.830  0.00  0.00    -0.162 NA
ATOM     28  C   UNL     1      -4.555   1.688  24.999  0.00  0.00    +0.110 C 
ATOM     29  N   UNL     1      -3.886   1.659  24.981  0.00  0.00    -0.298 N 
ATOM     30  C   UNL     1      -3.099   1.904  24.983  0.00  0.00    +0.277 A 
ATOM     31  O   UNL     1      -2.350   1.561  24.939  0.00  0.00    -0.266 OA
ENDROOT
BRANCH  20  21
ATOM     21  C   UNL     1      -3.050  -0.684  24.780  0.00  0.00    +0.075 A 
ATOM     22  C   UNL     1      -3.273  -0.986  24.046  0.00  0.00    +0.019 A 
ATOM     23  C   UNL     1      -3.625  -1.730  23.995  0.00  0.00    +0.031 A 
ATOM     24  C   UNL     1      -3.754  -2.173  24.680  0.00  0.00    +0.140 A 
ATOM     25  F   UNL     1      -4.106  -2.918  24.629  0.00  0.00    -0.204 F 
ATOM     26  C   UNL     1      -3.531  -1.871  25.414  0.00  0.00    +0.031 A 
ATOM     27  C   UNL     1      -3.179  -1.127  25.465  0.00  0.00    +0.019 A 
ENDBRANCH  20  21
BRANCH   8   7
ATOM      7  N   UNL     1      -2.129   2.952  25.043  0.00  0.00    -0.096 NA
BRANCH   7   4
ATOM      4  S   UNL     1      -1.947   3.755  25.092  0.00  0.00    +0.073 S 
ATOM      5  O   UNL     1      -1.914   3.697  25.914  0.00  0.00    -0.153 OA
ATOM      6  O   UNL     1      -1.980   3.813  24.270  0.00  0.00    -0.153 OA
BRANCH   4   3
ATOM      3  C   UNL     1      -1.765   4.559  25.142  0.00  0.00    +0.174 C 
BRANCH   3   2
ATOM      1  C   UNL     1      -0.845   5.628  24.916  0.00  0.00    +0.002 C 
ATOM      2  C   UNL     1      -1.003   4.820  24.966  0.00  0.00    +0.027 C 
ENDBRANCH   3   2
ENDBRANCH   4   3
ENDBRANCH   7   4
ENDBRANCH   8   7
TORSDOF 5
ENDMDL
MODEL 2
REMARK VINA RESULT:     -13.6      2.091      4.509
REMARK  Name = 
REMARK  5 active torsions:
REMARK  status: ('A' for Active; 'I' for Inactive)
REMARK    1  A    between atoms: C_2  and  C_3
REMARK    2  A    between atoms: C_3  and  S_4
REMARK    3  A    between atoms: S_4  and  N_7
REMARK    4  A    between atoms: N_7  and  C_8
REMARK    5  A    between atoms: N_20  and  C_21
REMARK                            x       y       z     vdW  Elec       q    Type
REMARK                         _______ _______ _______ _____ _____    ______ ____
ROOT
ATOM      8  C   UNL     1      -3.864   0.581  24.741  0.00  0.00    +0.147 A 
ATOM      9  C   UNL     1      -4.679   0.496  24.838  0.00  0.00    +0.024 A 
ATOM     10  C   UNL     1      -5.143   1.152  25.023  0.00  0.00    +0.014 A 
ATOM     11  C   UNL     1      -4.793   1.893  25.111  0.00  0.00    +0.041 A 
ATOM     12  C   UNL     1      -5.007   2.766  25.302  0.00  0.00    +0.058 C 
ATOM     13  C   UNL     1      -5.555   3.177  25.454  0.00  0.00    +0.011 C 
ATOM     14  C   UNL     1      -4.751   3.258  25.357  0.00  0.00    +0.043 C 
ATOM     15  C   UNL     1      -3.811   3.554  25.282  0.00  0.00    +0.097 C 
ATOM     16  N   UNL     1      -3.449   2.824  25.097  0.00  0.00    -0.262 N 
ATOM     17  C   UNL     1      -4.104   3.068  25.233  0.00  0.00    +0.101 C 
ATOM     18  C   UNL     1      -2.849   2.287  24.915  0.00  0.00    +0.327 C 
ATOM     19  O   UNL     1      -3.031   1.491  24.794  0.00  0.00    -0.250 OA
ATOM     20  N   UNL     1      -2.068   2.545  24.855  0.00  0.00    -0.162 NA
ATOM     28  C   UNL     1      -4.516   2.349  25.157  0.00  0.00    +0.110 C 
ATOM     29  N   UNL     1      -3.978   1.978  25.014  0.00  0.00    -0.298 N 
ATOM     30  C   UNL     1      -3.513   1.322  24.829  0.00  0.00    +0.277 A 
ATOM     31  O   UNL     1      -2.718   1.154  24.688  0.00  0.00    -0.266 OA
ENDROOT
BRANCH  20  21
ATOM     21  C   UNL     1      -1.886   3.340  24.976  0.00  0.00    +0.075 A 
ATOM     22  C   UNL     1      -1.877   3.864  24.339  0.00  0.00    +0.019 A 
ATOM     23  C   UNL     1      -1.695   4.658  24.460  0.00  0.00    +0.031 A 
ATOM     24  C   UNL     1      -1.520   4.931  25.219  0.00  0.00    +0.140 A 
ATOM     25  F   UNL     1      -1.338   5.727  25.340  0.00  0.00    -0.204 F 
ATOM     26  C   UNL     1      -1.529   4.408  25.857  0.00  0.00    +0.031 A 
ATOM     27  C   UNL     1      -1.712   3.613  25.736  0.00  0.00    +0.019 A 
ENDBRANCH  20  21
BRANCH   8   7
ATOM      7  N   UNL     1      -3.400  -0.076  24.555  0.00  0.00    -0.096 NA
BRANCH   7   4
ATOM      4  S   UNL     1      -3.751  -0.816  24.464  0.00  0.00    +0.073 S 
ATOM      5  O   UNL     1      -3.860  -0.667  23.661  0.00  0.00    -0.153 OA
ATOM      6  O   UNL     1      -3.643  -0.966  25.268  0.00  0.00    -0.153 OA
BRANCH   4   3
ATOM      3  C   UNL     1      -4.103  -1.558  24.373  0.00  0.00    +0.174 C 
BRANCH   3   2
ATOM      1  C   UNL     1      -3.984  -2.962  24.139  0.00  0.00    +0.002 C 
ATOM      2  C   UNL     1      -3.633  -2.223  24.239  0.00  0.00    +0.027 C 
ENDBRANCH   3   2
ENDBRANCH   4   3
ENDBRANCH   7   4
ENDBRANCH   8   7
TORSDOF 5
ENDMDL
MODEL 3
REMARK VINA RESULT:     -13.0      1.655      2.650
REMARK  Name = 
REMARK  5 active torsions:
REMARK  status: ('A' for Active; 'I' for Inactive)
REMARK    1  A    between atoms: C_2  and  C_3
REMARK    2  A    between atoms: C_3  and  S_4
REMARK    3  A    between atoms: S_4  and  N_7
REMARK    4  A    between atoms: N_7  and  C_8
REMARK    5  A    between atoms: N_20  and  C_21
REMARK                            x       y       z     vdW  Elec       q    Type
REMARK                         _______ _______ _______ _____ _____    ______ ____
ROOT
ATOM      8  C   UNL     1      -1.439   1.852  25.002  0.00  0.00    +0.147 A 
ATOM      9  C   UNL     1      -0.638   1.951  24.831  0.00  0.00    +0.024 A 
ATOM     10  C   UNL     1      -0.183   1.306  24.593  0.00  0.00    +0.014 A 
ATOM     11  C   UNL     1      -0.529   0.560  24.527  0.00  0.00    +0.041 A 
ATOM     12  C   UNL     1      -0.319  -0.307  24.304  0.00  0.00    +0.058 C 
ATOM     13  C   UNL     1       0.218  -0.707  24.096  0.00  0.00    +0.011 C 
ATOM     14  C   UNL     1      -0.573  -0.802  24.265  0.00  0.00    +0.043 C 
ATOM     15  C   UNL     1      -1.497  -1.115  24.423  0.00  0.00    +0.097 C 
ATOM     16  N   UNL     1      -1.852  -0.394  24.651  0.00  0.00    -0.262 N 
ATOM     17  C   UNL     1      -1.208  -0.624  24.452  0.00  0.00    +0.101 C 
ATOM     18  C   UNL     1      -2.439   0.131  24.896  0.00  0.00    +0.327 C 
ATOM     19  O   UNL     1      -2.259   0.928  25.012  0.00  0.00    -0.250 OA
ATOM     20  N   UNL     1      -3.207  -0.140  25.025  0.00  0.00    -0.162 NA
ATOM     28  C   UNL     1      -0.801   0.101  24.500  0.00  0.00    +0.110 C 
ATOM     29  N   UNL     1      -1.330   0.460  24.698  0.00  0.00    -0.298 N 
ATOM     30  C   UNL     1      -1.785   1.106  24.935  0.00  0.00    +0.277 A 
ATOM     31  O   UNL     1      -2.566   1.259  25.152  0.00  0.00    -0.266 OA
ENDROOT
BRANCH  20  21
ATOM     21  C   UNL     1      -3.388  -0.937  24.909  0.00  0.00    +0.075 A 
ATOM     22  C   UNL     1      -3.675  -1.193  24.179  0.00  0.00    +0.019 A 
ATOM     23  C   UNL     1      -3.856  -1.988  24.062  0.00  0.00    +0.031 A 
ATOM     24  C   UNL     1      -3.751  -2.530  24.676  0.00  0.00    +0.140 A 
ATOM     25  F   UNL     1      -3.932  -3.327  24.560  0.00  0.00    -0.204 F 
ATOM     26  C   UNL     1      -3.464  -2.274  25.406  0.00  0.00    +0.031 A 
ATOM     27  C   UNL     1      -3.283  -1.478  25.523  0.00  0.00    +0.019 A 
ENDBRANCH  20  21
BRANCH   8   7
ATOM      7  N   UNL     1      -1.893   2.498  25.239  0.00  0.00    -0.096 NA
BRANCH   7   4
ATOM      4  S   UNL     1      -1.568   3.255  25.233  0.00  0.00    +0.073 S 
ATOM      5  O   UNL     1      -1.314   3.153  26.011  0.00  0.00    -0.153 OA
ATOM      6  O   UNL     1      -1.821   3.358  24.454  0.00  0.00    -0.153 OA
BRANCH   4   3
ATOM      3  C   UNL     1      -1.242   4.014  25.227  0.00  0.00    +0.174 C 
BRANCH   3   2
ATOM      1  C   UNL     1      -1.422   5.426  25.107  0.00  0.00    +0.002 C 
ATOM      2  C   UNL     1      -1.736   4.675  25.237  0.00  0.00    +0.027 C 
ENDBRANCH   3   2
ENDBRANCH   4   3
ENDBRANCH   7   4
ENDBRANCH   8   7
TORSDOF 5
ENDMDL
MODEL 4
REMARK VINA RESULT:     -11.4      2.636      5.179
REMARK  Name = 
REMARK  5 active torsions:
REMARK  status: ('A' for Active; 'I' for Inactive)
REMARK    1  A    between atoms: C_2  and  C_3
REMARK    2  A    between atoms: C_3  and  S_4
REMARK    3  A    between atoms: S_4  and  N_7
REMARK    4  A    between atoms: N_7  and  C_8
REMARK    5  A    between atoms: N_20  and  C_21
REMARK                            x       y       z     vdW  Elec       q    Type
REMARK                         _______ _______ _______ _____ _____    ______ ____
ROOT
ATOM      8  C   UNL     1      -1.917   0.014  24.742  0.00  0.00    +0.147 A 
ATOM      9  C   UNL     1      -1.267  -0.437  24.507  0.00  0.00    +0.024 A 
ATOM     10  C   UNL     1      -0.548  -0.068  24.343  0.00  0.00    +0.014 A 
ATOM     11  C   UNL     1      -0.478   0.751  24.413  0.00  0.00    +0.041 A 
ATOM     12  C   UNL     1       0.137   1.426  24.313  0.00  0.00    +0.058 C 
ATOM     13  C   UNL     1       0.806   1.539  24.135  0.00  0.00    +0.011 C 
ATOM     14  C   UNL     1       0.162   1.981  24.367  0.00  0.00    +0.043 C 
ATOM     15  C   UNL     1      -0.490   2.675  24.630  0.00  0.00    +0.097 C 
ATOM     16  N   UNL     1      -1.159   2.195  24.767  0.00  0.00    -0.262 N 
ATOM     17  C   UNL     1      -0.482   2.109  24.565  0.00  0.00    +0.101 C 
ATOM     18  C   UNL     1      -1.934   1.994  24.966  0.00  0.00    +0.327 C 
ATOM     19  O   UNL     1      -2.174   1.204  24.947  0.00  0.00    -0.250 OA
ATOM     20  N   UNL     1      -2.470   2.582  25.183  0.00  0.00    -0.162 NA
ATOM     28  C   UNL     1      -0.487   1.282  24.475  0.00  0.00    +0.110 C 
ATOM     29  N   UNL     1      -1.129   1.201  24.648  0.00  0.00    -0.298 N 
ATOM     30  C   UNL     1      -1.848   0.832  24.813  0.00  0.00    +0.277 A 
ATOM     31  O   UNL     1      -2.607   1.049  25.053  0.00  0.00    -0.266 OA
ENDROOT
BRANCH  20  21
ATOM     21  C   UNL     1      -2.231   3.371  25.203  0.00  0.00    +0.075 A 
ATOM     22  C   UNL     1      -2.315   3.844  24.532  0.00  0.00    +0.019 A 
ATOM     23  C   UNL     1      -2.077   4.633  24.550  0.00  0.00    +0.031 A 
ATOM     24  C   UNL     1      -1.754   4.950  25.241  0.00  0.00    +0.140 A 
ATOM     25  F   UNL     1      -1.515   5.740  25.260  0.00  0.00    -0.204 F 
ATOM     26  C   UNL     1      -1.671   4.477  25.911  0.00  0.00    +0.031 A 
ATOM     27  C   UNL     1      -1.909   3.688  25.893  0.00  0.00    +0.019 A 
ENDBRANCH  20  21
BRANCH   8   7
ATOM      7  N   UNL     1      -2.636  -0.356  24.906  0.00  0.00    -0.096 NA
BRANCH   7   4
ATOM      4  S   UNL     1      -2.727  -1.164  24.767  0.00  0.00    +0.073 S 
ATOM      5  O   UNL     1      -2.471  -1.324  25.534  0.00  0.00    -0.153 OA
ATOM      6  O   UNL     1      -2.982  -1.003  23.999  0.00  0.00    -0.153 OA
BRANCH   4   3
ATOM      3  C   UNL     1      -2.817  -1.972  24.628  0.00  0.00    +0.174 C 
BRANCH   3   2
ATOM      1  C   UNL     1      -3.659  -3.122  24.522  0.00  0.00    +0.002 C 
ATOM      2  C   UNL     1      -3.562  -2.320  24.691  0.00  0.00    +0.027 C 
ENDBRANCH   3   2
ENDBRANCH   4   3
ENDBRANCH   7   4
ENDBRANCH   8   7
TORSDOF 5
ENDMDL
MODEL 5
REMARK VINA RESULT:     -11.4      1.683      2.554
REMARK  Name = 
REMARK  5 active torsions:
REMARK  status: ('A' for Active; 'I' for Inactive)
REMARK    1  A    between atoms: C_2  and  C_3
REMARK    2  A    between atoms: C_3  and  S_4
REMARK    3  A    between atoms: S_4  and  N_7
REMARK    4  A    between atoms: N_7  and  C_8
REMARK    5  A    between atoms: N_20  and  C_21
REMARK                            x       y       z     vdW  Elec       q    Type
REMARK                         _______ _______ _______ _____ _____    ______ ____
ROOT
ATOM      8  C   UNL     1      -3.981   2.030  25.019  0.00  0.00    +0.147 A 
ATOM      9  C   UNL     1      -3.367   2.571  24.916  0.00  0.00    +0.024 A 
ATOM     10  C   UNL     1      -2.614   2.306  24.706  0.00  0.00    +0.014 A 
ATOM     11  C   UNL     1      -2.476   1.500  24.599  0.00  0.00    +0.041 A 
ATOM     12  C   UNL     1      -1.803   0.914  24.380  0.00  0.00    +0.058 C 
ATOM     13  C   UNL     1      -1.122   0.897  24.210  0.00  0.00    +0.011 C 
ATOM     14  C   UNL     1      -1.731   0.365  24.313  0.00  0.00    +0.043 C 
ATOM     15  C   UNL     1      -2.326  -0.420  24.390  0.00  0.00    +0.097 C 
ATOM     16  N   UNL     1      -3.038  -0.036  24.600  0.00  0.00    -0.262 N 
ATOM     17  C   UNL     1      -2.365   0.146  24.450  0.00  0.00    +0.101 C 
ATOM     18  C   UNL     1      -3.832   0.055  24.805  0.00  0.00    +0.327 C 
ATOM     19  O   UNL     1      -4.138   0.808  24.948  0.00  0.00    -0.250 OA
ATOM     20  N   UNL     1      -4.320  -0.608  24.866  0.00  0.00    -0.162 NA
ATOM     28  C   UNL     1      -2.441   0.970  24.543  0.00  0.00    +0.110 C 
ATOM     29  N   UNL     1      -3.091   0.959  24.703  0.00  0.00    -0.298 N 
ATOM     30  C   UNL     1      -3.843   1.224  24.912  0.00  0.00    +0.277 A 
ATOM     31  O   UNL     1      -4.586   0.900  25.067  0.00  0.00    -0.266 OA
ENDROOT
BRANCH  20  21
ATOM     21  C   UNL     1      -4.014  -1.360  24.723  0.00  0.00    +0.075 A 
ATOM     22  C   UNL     1      -4.081  -1.697  23.973  0.00  0.00    +0.019 A 
ATOM     23  C   UNL     1      -3.776  -2.449  23.829  0.00  0.00    +0.031 A 
ATOM     24  C   UNL     1      -3.403  -2.866  24.436  0.00  0.00    +0.140 A 
ATOM     25  F   UNL     1      -3.097  -3.619  24.292  0.00  0.00    -0.204 F 
ATOM     26  C   UNL     1      -3.336  -2.529  25.186  0.00  0.00    +0.031 A 
ATOM     27  C   UNL     1      -3.641  -1.777  25.330  0.00  0.00    +0.019 A 
ENDBRANCH  20  21
BRANCH   8   7
ATOM      7  N   UNL     1      -4.733   2.296  25.229  0.00  0.00    -0.096 NA
BRANCH   7   4
ATOM      4  S   UNL     1      -4.877   3.103  25.314  0.00  0.00    +0.073 S 
ATOM      5  O   UNL     1      -5.044   3.159  24.509  0.00  0.00    -0.153 OA
ATOM      6  O   UNL     1      -4.709   3.048  26.120  0.00  0.00    -0.153 OA
BRANCH   4   3
ATOM      3  C   UNL     1      -5.020   3.912  25.400  0.00  0.00    +0.174 C 
BRANCH   3   2
ATOM      1  C   UNL     1      -5.943   4.991  25.559  0.00  0.00    +0.002 C 
ATOM      2  C   UNL     1      -5.787   4.181  25.544  0.00  0.00    +0.027 C 
ENDBRANCH   3   2
ENDBRANCH   4   3
ENDBRANCH   7   4
ENDBRANCH   8   7
TORSDOF 5
ENDMDL
MODEL 6
REMARK VINA RESULT:     -11.4      1.998      2.871
REMARK  Name = 
REMARK  5 active torsions:
REMARK  status: ('A' for Active; 'I' for Inactive)
REMARK    1  A    between atoms: C_2  and  C_3
REMARK    2  A    between atoms: C_3  and  S_4
REMARK    3  A    between atoms: S_4  and  N_7
REMARK    4  A    between atoms: N_7  and  C_8
REMARK    5  A    between atoms: N_20  and  C_21
REMARK                            x       y       z     vdW  Elec       q    Type
REMARK                         _______ _______ _______ _____ _____    ______ ____
ROOT
ATOM      8  C   UNL     1      -4.190   1.395  24.893  0.00  0.00    +0.147 A 
ATOM      9  C   UNL     1      -4.932   1.122  24.660  0.00  0.00    +0.024 A 
ATOM     10  C   UNL     1      -5.029   0.335  24.431  0.00  0.00    +0.014 A 
ATOM     11  C   UNL     1      -4.384  -0.179  24.437  0.00  0.00    +0.041 A 
ATOM     12  C   UNL     1      -4.166  -1.052  24.255  0.00  0.00    +0.058 C 
ATOM     13  C   UNL     1      -4.449  -1.656  24.034  0.00  0.00    +0.011 C 
ATOM     14  C   UNL     1      -3.717  -1.383  24.266  0.00  0.00    +0.043 C 
ATOM     15  C   UNL     1      -2.769  -1.245  24.509  0.00  0.00    +0.097 C 
ATOM     16  N   UNL     1      -2.794  -0.436  24.716  0.00  0.00    -0.262 N 
ATOM     17  C   UNL     1      -3.247  -0.935  24.486  0.00  0.00    +0.101 C 
ATOM     18  C   UNL     1      -2.525   0.302  24.969  0.00  0.00    +0.327 C 
ATOM     19  O   UNL     1      -3.050   0.937  25.021  0.00  0.00    -0.250 OA
ATOM     20  N   UNL     1      -1.732   0.405  25.169  0.00  0.00    -0.162 NA
ATOM     28  C   UNL     1      -3.935  -0.468  24.459  0.00  0.00    +0.110 C 
ATOM     29  N   UNL     1      -3.641   0.095  24.671  0.00  0.00    -0.298 N 
ATOM     30  C   UNL     1      -3.544   0.881  24.899  0.00  0.00    +0.277 A 
ATOM     31  O   UNL     1      -2.936   1.373  25.161  0.00  0.00    -0.266 OA
ENDROOT
BRANCH  20  21
ATOM     21  C   UNL     1      -1.207  -0.228  25.117  0.00  0.00    +0.075 A 
ATOM     22  C   UNL     1      -1.115  -0.741  25.756  0.00  0.00    +0.019 A 
ATOM     23  C   UNL     1      -0.590  -1.375  25.705  0.00  0.00    +0.031 A 
ATOM     24  C   UNL     1      -0.156  -1.496  25.013  0.00  0.00    +0.140 A 
ATOM     25  F   UNL     1       0.370  -2.131  24.962  0.00  0.00    -0.204 F 
ATOM     26  C   UNL     1      -0.248  -0.983  24.374  0.00  0.00    +0.031 A 
ATOM     27  C   UNL     1      -0.773  -0.349  24.426  0.00  0.00    +0.019 A 
ENDBRANCH  20  21
BRANCH   8   7
ATOM      7  N   UNL     1      -4.093   2.181  25.121  0.00  0.00    -0.096 NA
BRANCH   7   4
ATOM      4  S   UNL     1      -4.746   2.684  25.159  0.00  0.00    +0.073 S 
ATOM      5  O   UNL     1      -4.878   2.455  25.940  0.00  0.00    -0.153 OA
ATOM      6  O   UNL     1      -4.615   2.912  24.377  0.00  0.00    -0.153 OA
BRANCH   4   3
ATOM      3  C   UNL     1      -5.400   3.186  25.196  0.00  0.00    +0.174 C 
BRANCH   3   2
ATOM      1  C   UNL     1      -5.972   4.448  25.546  0.00  0.00    +0.002 C 
ATOM      2  C   UNL     1      -5.320   3.943  25.513  0.00  0.00    +0.027 C 
ENDBRANCH   3   2
ENDBRANCH   4   3
ENDBRANCH   7   4
ENDBRANCH   8   7
TORSDOF 5
ENDMDL
MODEL 7
REMARK VINA RESULT:     -11.3      2.339      3.754
REMARK  Name = 
REMARK  5 active torsions:
REMARK  status: ('A' for Active; 'I' for Inactive)
REMARK    1  A    between atoms: C_2  and  C_3
REMARK    2  A    between atoms: C_3  and  S_4
REMARK    3  A    between atoms: S_4  and  N_7
REMARK    4  A    between atoms: N_7  and  C_8
REMARK    5  A    between atoms: N_20  and  C_21
REMARK                            x       y       z     vdW  Elec       q    Type
REMARK                         _______ _______ _______ _____ _____    ______ ____
ROOT
ATOM      8  C   UNL     1      -1.251   0.128  24.244  0.00  0.00    +0.147 A 
ATOM      9  C   UNL     1      -1.103  -0.662  24.431  0.00  0.00    +0.024 A 
ATOM     10  C   UNL     1      -1.687  -1.115  24.797  0.00  0.00    +0.014 A 
ATOM     11  C   UNL     1      -2.418  -0.779  24.976  0.00  0.00    +0.041 A 
ATOM     12  C   UNL     1      -3.228  -0.991  25.356  0.00  0.00    +0.058 C 
ATOM     13  C   UNL     1      -3.573  -1.525  25.654  0.00  0.00    +0.011 C 
ATOM     14  C   UNL     1      -3.715  -0.744  25.468  0.00  0.00    +0.043 C 
ATOM     15  C   UNL     1      -4.073   0.166  25.326  0.00  0.00    +0.097 C 
ATOM     16  N   UNL     1      -3.411   0.521  24.960  0.00  0.00    -0.262 N 
ATOM     17  C   UNL     1      -3.588  -0.116  25.225  0.00  0.00    +0.101 C 
ATOM     18  C   UNL     1      -2.951   1.105  24.602  0.00  0.00    +0.327 C 
ATOM     19  O   UNL     1      -2.182   0.932  24.357  0.00  0.00    -0.250 OA
ATOM     20  N   UNL     1      -3.259   1.861  24.488  0.00  0.00    -0.162 NA
ATOM     28  C   UNL     1      -2.873  -0.513  25.071  0.00  0.00    +0.110 C 
ATOM     29  N   UNL     1      -2.566   0.012  24.790  0.00  0.00    -0.298 N 
ATOM     30  C   UNL     1      -1.982   0.465  24.424  0.00  0.00    +0.277 A 
ATOM     31  O   UNL     1      -1.888   1.237  24.149  0.00  0.00    -0.266 OA
ENDROOT
BRANCH  20  21
ATOM     21  C   UNL     1      -4.028   2.034  24.733  0.00  0.00    +0.075 A 
ATOM     22  C   UNL     1      -4.160   2.364  25.477  0.00  0.00    +0.019 A 
ATOM     23  C   UNL     1      -4.927   2.538  25.722  0.00  0.00    +0.031 A 
ATOM     24  C   UNL     1      -5.565   2.381  25.222  0.00  0.00    +0.140 A 
ATOM     25  F   UNL     1      -6.334   2.555  25.467  0.00  0.00    -0.204 F 
ATOM     26  C   UNL     1      -5.433   2.052  24.477  0.00  0.00    +0.031 A 
ATOM     27  C   UNL     1      -4.666   1.878  24.232  0.00  0.00    +0.019 A 
ENDBRANCH  20  21
BRANCH   8   7
ATOM      7  N   UNL     1      -0.667   0.581  23.878  0.00  0.00    -0.096 NA
BRANCH   7   4
ATOM      4  S   UNL     1       0.044   0.231  23.648  0.00  0.00    +0.073 S 
ATOM      5  O   UNL     1       0.369   0.404  24.386  0.00  0.00    -0.153 OA
ATOM      6  O   UNL     1      -0.282   0.057  22.910  0.00  0.00    -0.153 OA
BRANCH   4   3
ATOM      3  C   UNL     1       0.755  -0.120  23.418  0.00  0.00    +0.174 C 
BRANCH   3   2
ATOM      1  C   UNL     1       1.975  -0.061  22.678  0.00  0.00    +0.002 C 
ATOM      2  C   UNL     1       1.228   0.244  22.849  0.00  0.00    +0.027 C 
ENDBRANCH   3   2
ENDBRANCH   4   3
ENDBRANCH   7   4
ENDBRANCH   8   7
TORSDOF 5
ENDMDL
MODEL 8
REMARK VINA RESULT:     -11.1      2.603      4.193
REMARK  Name = 
REMARK  5 active torsions:
REMARK  status: ('A' for Active; 'I' for Inactive)
REMARK    1  A    between atoms: C_2  and  C_3
REMARK    2  A    between atoms: C_3  and  S_4
REMARK    3  A    between atoms: S_4  and  N_7
REMARK    4  A    between atoms: N_7  and  C_8
REMARK    5  A    between atoms: N_20  and  C_21
REMARK                            x       y       z     vdW  Elec       q    Type
REMARK                         _______ _______ _______ _____ _____    ______ ____
ROOT
ATOM      8  C   UNL     1      -0.967   1.920  24.414  0.00  0.00    +0.147 A 
ATOM      9  C   UNL     1      -0.290   2.392  24.450  0.00  0.00    +0.024 A 
ATOM     10  C   UNL     1      -0.350   3.184  24.673  0.00  0.00    +0.014 A 
ATOM     11  C   UNL     1      -1.087   3.504  24.861  0.00  0.00    +0.041 A 
ATOM     12  C   UNL     1      -1.474   4.294  25.128  0.00  0.00    +0.058 C 
ATOM     13  C   UNL     1      -1.316   4.959  25.286  0.00  0.00    +0.011 C 
ATOM     14  C   UNL     1      -1.981   4.491  25.250  0.00  0.00    +0.043 C 
ATOM     15  C   UNL     1      -2.887   4.094  25.266  0.00  0.00    +0.097 C 
ATOM     16  N   UNL     1      -2.702   3.315  25.029  0.00  0.00    -0.262 N 
ATOM     17  C   UNL     1      -2.355   3.925  25.147  0.00  0.00    +0.101 C 
ATOM     18  C   UNL     1      -2.820   2.522  24.830  0.00  0.00    +0.327 C 
ATOM     19  O   UNL     1      -2.178   2.051  24.615  0.00  0.00    -0.250 OA
ATOM     20  N   UNL     1      -3.580   2.202  24.846  0.00  0.00    -0.162 NA
ATOM     28  C   UNL     1      -1.586   3.662  24.971  0.00  0.00    +0.110 C 
ATOM     29  N   UNL     1      -1.763   3.033  24.825  0.00  0.00    -0.298 N 
ATOM     30  C   UNL     1      -1.703   2.241  24.602  0.00  0.00    +0.277 A 
ATOM     31  O   UNL     1      -2.204   1.595  24.494  0.00  0.00    -0.266 OA
ENDROOT
BRANCH  20  21
ATOM     21  C   UNL     1      -4.222   2.673  25.061  0.00  0.00    +0.075 A 
ATOM     22  C   UNL     1      -4.469   2.700  25.848  0.00  0.00    +0.019 A 
ATOM     23  C   UNL     1      -5.110   3.170  26.064  0.00  0.00    +0.031 A 
ATOM     24  C   UNL     1      -5.507   3.615  25.492  0.00  0.00    +0.140 A 
ATOM     25  F   UNL     1      -6.149   4.086  25.708  0.00  0.00    -0.204 F 
ATOM     26  C   UNL     1      -5.260   3.588  24.706  0.00  0.00    +0.031 A 
ATOM     27  C   UNL     1      -4.618   3.118  24.490  0.00  0.00    +0.019 A 
ENDBRANCH  20  21
BRANCH   8   7
ATOM      7  N   UNL     1      -0.906   1.129  24.191  0.00  0.00    -0.096 NA
BRANCH   7   4
ATOM      4  S   UNL     1      -0.186   0.830  23.922  0.00  0.00    +0.073 S 
ATOM      5  O   UNL     1       0.016   0.621  24.694  0.00  0.00    -0.153 OA
ATOM      6  O   UNL     1      -0.387   1.039  23.150  0.00  0.00    -0.153 OA
BRANCH   4   3
ATOM      3  C   UNL     1       0.535   0.531  23.654  0.00  0.00    +0.174 C 
BRANCH   3   2
ATOM      1  C   UNL     1       1.249  -0.374  22.809  0.00  0.00    +0.002 C 
ATOM      2  C   UNL     1       0.550  -0.148  23.185  0.00  0.00    +0.027 C 
ENDBRANCH   3   2
ENDBRANCH   4   3
ENDBRANCH   7   4
ENDBRANCH   8   7
TORSDOF 5
ENDMDL
