MODEL 1
REMARK VINA RESULT:     -16.1      0.000      0.000
REMARK  Name = 
REMARK  3 active torsions:
REMARK  status: ('A' for Active; 'I' for Inactive)
REMARK    1  A    between atoms: N_3  and  C_4
REMARK    2  A    between atoms: C_19  and  N_20
REMARK    3  A    between atoms: C_21  and  C_23
REMARK                            x       y       z     vdW  Elec       q    Type
REMARK                         _______ _______ _______ _____ _____    ______ ____
ROOT
ATOM      1  O   UNL     1      -0.882  -0.559  24.562  0.00  0.00    -0.250 OA
ATOM      2  C   UNL     1      -1.688  -0.734  24.554  0.00  0.00    +0.327 C 
ATOM      3  N   UNL     1      -2.243  -0.123  24.547  0.00  0.00    -0.162 NA
ATOM     10  N   UNL     1      -1.940  -1.520  24.553  0.00  0.00    -0.262 N 
ATOM     11  C   UNL     1      -1.891  -2.354  24.555  0.00  0.00    +0.097 C 
ATOM     12  C   UNL     1      -2.853  -2.577  24.546  0.00  0.00    +0.043 C 
ATOM     13  C   UNL     1      -3.591  -2.921  24.539  0.00  0.00    +0.011 C 
ATOM     14  C   UNL     1      -3.321  -2.273  24.541  0.00  0.00    +0.058 C 
ATOM     15  C   UNL     1      -2.387  -2.074  24.550  0.00  0.00    +0.101 C 
ATOM     16  C   UNL     1      -3.570  -1.389  24.536  0.00  0.00    +0.041 A 
ATOM     17  C   UNL     1      -4.244  -0.913  24.528  0.00  0.00    +0.014 A 
ATOM     18  C   UNL     1      -4.168  -0.091  24.527  0.00  0.00    +0.023 A 
ATOM     19  C   UNL     1      -3.419   0.254  24.534  0.00  0.00    +0.130 A 
ATOM     29  C   UNL     1      -2.745  -0.222  24.542  0.00  0.00    +0.276 A 
ATOM     30  O   UNL     1      -2.342   0.498  24.545  0.00  0.00    -0.266 OA
ATOM     31  N   UNL     1      -2.821  -1.043  24.543  0.00  0.00    -0.298 N 
ATOM     32  C   UNL     1      -3.104  -1.650  24.542  0.00  0.00    +0.110 C 
ENDROOT
BRANCH   3   4
ATOM      4  C   UNL     1      -1.991   0.662  24.548  0.00  0.00    +0.075 A 
ATOM      5  C   UNL     1      -1.866   1.057  23.835  0.00  0.00    +0.017 A 
ATOM      6  C   UNL     1      -1.613   1.842  23.836  0.00  0.00    +0.001 A 
ATOM      7  C   UNL     1      -1.486   2.234  24.552  0.00  0.00    +0.000 A 
ATOM      8  C   UNL     1      -1.611   1.839  25.265  0.00  0.00    +0.001 A 
ATOM      9  C   UNL     1      -1.864   1.054  25.264  0.00  0.00    +0.017 A 
ENDBRANCH   3   4
BRANCH  19  20
ATOM     20  N   UNL     1      -3.344   1.075  24.533  0.00  0.00    -0.171 NA
ATOM     21  C   UNL     1      -4.017   1.551  24.534  0.00  0.00    +0.269 C 
ATOM     22  O   UNL     1      -4.767   1.206  24.536  0.00  0.00    -0.268 OA
BRANCH  21  23
ATOM     23  C   UNL     1      -3.942   2.374  24.533  0.00  0.00    +0.058 A 
ATOM     24  C   UNL     1      -3.919   2.786  25.247  0.00  0.00    +0.025 A 
ATOM     25  C   UNL     1      -3.844   3.608  25.246  0.00  0.00    +0.099 A 
ATOM     26  N   UNL     1      -3.791   4.016  24.531  0.00  0.00    -0.242 NA
ATOM     27  C   UNL     1      -3.815   3.604  23.818  0.00  0.00    +0.099 A 
ATOM     28  C   UNL     1      -3.890   2.782  23.818  0.00  0.00    +0.025 A 
ENDBRANCH  21  23
ENDBRANCH  19  20
TORSDOF 3
ENDMDL
MODEL 2
REMARK VINA RESULT:     -15.2      1.012      2.282
REMARK  Name = 
REMARK  3 active torsions:
REMARK  status: ('A' for Active; 'I' for Inactive)
REMARK    1  A    between atoms: N_3  and  C_4
REMARK    2  A    between atoms: C_19  and  N_20
REMARK    3  A    between atoms: C_21  and  C_23
REMARK                            x       y       z     vdW  Elec       q    Type
REMARK                         _______ _______ _______ _____ _____    ______ ____
ROOT
ATOM      1  O   UNL     1      -4.676   0.174  23.824  0.00  0.00    -0.250 OA
ATOM      2  C   UNL     1      -4.020  -0.221  24.128  0.00  0.00    +0.327 C 
ATOM      3  N   UNL     1      -3.350   0.205  24.356  0.00  0.00    -0.162 NA
ATOM     10  N   UNL     1      -4.031  -1.043  24.205  0.00  0.00    -0.262 N 
ATOM     11  C   UNL     1      -4.322  -1.825  24.164  0.00  0.00    +0.097 C 
ATOM     12  C   UNL     1      -3.542  -2.311  24.527  0.00  0.00    +0.043 C 
ATOM     13  C   UNL     1      -2.995  -2.849  24.801  0.00  0.00    +0.011 C 
ATOM     14  C   UNL     1      -3.040  -2.154  24.714  0.00  0.00    +0.058 C 
ATOM     15  C   UNL     1      -3.803  -1.699  24.362  0.00  0.00    +0.101 C 
ATOM     16  C   UNL     1      -2.559  -1.380  24.832  0.00  0.00    +0.041 A 
ATOM     17  C   UNL     1      -1.826  -1.117  25.102  0.00  0.00    +0.014 A 
ATOM     18  C   UNL     1      -1.649  -0.311  25.094  0.00  0.00    +0.023 A 
ATOM     19  C   UNL     1      -2.205   0.231  24.816  0.00  0.00    +0.130 A 
ATOM     29  C   UNL     1      -2.938  -0.032  24.546  0.00  0.00    +0.276 A 
ATOM     30  O   UNL     1      -3.079   0.769  24.410  0.00  0.00    -0.266 OA
ATOM     31  N   UNL     1      -3.116  -0.837  24.554  0.00  0.00    -0.298 N 
ATOM     32  C   UNL     1      -3.047  -1.497  24.647  0.00  0.00    +0.110 C 
ENDROOT
BRANCH   3   4
ATOM      4  C   UNL     1      -3.339   1.026  24.280  0.00  0.00    +0.075 A 
ATOM      5  C   UNL     1      -3.600   1.503  24.900  0.00  0.00    +0.017 A 
ATOM      6  C   UNL     1      -3.589   2.324  24.824  0.00  0.00    +0.001 A 
ATOM      7  C   UNL     1      -3.316   2.669  24.125  0.00  0.00    +0.000 A 
ATOM      8  C   UNL     1      -3.055   2.193  23.505  0.00  0.00    +0.001 A 
ATOM      9  C   UNL     1      -3.066   1.371  23.582  0.00  0.00    +0.017 A 
ENDBRANCH   3   4
BRANCH  19  20
ATOM     20  N   UNL     1      -2.027   1.037  24.809  0.00  0.00    -0.171 NA
ATOM     21  C   UNL     1      -1.294   1.300  25.080  0.00  0.00    +0.269 C 
ATOM     22  O   UNL     1      -0.738   0.758  25.359  0.00  0.00    -0.268 OA
BRANCH  21  23
ATOM     23  C   UNL     1      -1.116   2.106  25.072  0.00  0.00    +0.058 A 
ATOM     24  C   UNL     1      -0.762   2.443  24.408  0.00  0.00    +0.025 A 
ATOM     25  C   UNL     1      -0.584   3.250  24.400  0.00  0.00    +0.099 A 
ATOM     26  N   UNL     1      -0.761   3.717  25.057  0.00  0.00    -0.242 NA
ATOM     27  C   UNL     1      -1.115   3.380  25.720  0.00  0.00    +0.099 A 
ATOM     28  C   UNL     1      -1.293   2.574  25.728  0.00  0.00    +0.025 A 
ENDBRANCH  21  23
ENDBRANCH  19  20
TORSDOF 3
ENDMDL
MODEL 3
REMARK VINA RESULT:     -15.2      1.168      4.270
REMARK  Name = 
REMARK  3 active torsions:
REMARK  status: ('A' for Active; 'I' for Inactive)
REMARK    1  A    between atoms: N_3  and  C_4
REMARK    2  A    between atoms: C_19  and  N_20
REMARK    3  A    between atoms: C_21  and  C_23
REMARK                            x       y       z     vdW  Elec       q    Type
REMARK                         _______ _______ _______ _____ _____    ______ ____
ROOT
ATOM      1  O   UNL     1      -5.535   0.468  24.868  0.00  0.00    -0.250 OA
ATOM      2  C   UNL     1      -4.979   1.072  24.941  0.00  0.00    +0.327 C 
ATOM      3  N   UNL     1      -4.173   0.893  24.951  0.00  0.00    -0.162 NA
ATOM     10  N   UNL     1      -5.228   1.856  25.004  0.00  0.00    -0.262 N 
ATOM     11  C   UNL     1      -5.750   2.507  25.046  0.00  0.00    +0.097 C 
ATOM     12  C   UNL     1      -5.094   3.241  25.134  0.00  0.00    +0.043 C 
ATOM     13  C   UNL     1      -4.691   3.945  25.211  0.00  0.00    +0.011 C 
ATOM     14  C   UNL     1      -4.537   3.262  25.154  0.00  0.00    +0.058 C 
ATOM     15  C   UNL     1      -5.184   2.564  25.070  0.00  0.00    +0.101 C 
ATOM     16  C   UNL     1      -3.823   2.685  25.125  0.00  0.00    +0.041 A 
ATOM     17  C   UNL     1      -2.999   2.684  25.151  0.00  0.00    +0.014 A 
ATOM     18  C   UNL     1      -2.586   1.971  25.100  0.00  0.00    +0.023 A 
ATOM     19  C   UNL     1      -2.997   1.260  25.022  0.00  0.00    +0.130 A 
ATOM     29  C   UNL     1      -3.821   1.261  24.995  0.00  0.00    +0.276 A 
ATOM     30  O   UNL     1      -3.734   0.445  24.924  0.00  0.00    -0.266 OA
ATOM     31  N   UNL     1      -4.234   1.974  25.047  0.00  0.00    -0.298 N 
ATOM     32  C   UNL     1      -4.354   2.630  25.102  0.00  0.00    +0.110 C 
ENDROOT
BRANCH   3   4
ATOM      4  C   UNL     1      -3.925   0.109  24.887  0.00  0.00    +0.075 A 
ATOM      5  C   UNL     1      -3.818  -0.347  25.566  0.00  0.00    +0.017 A 
ATOM      6  C   UNL     1      -3.570  -1.131  25.503  0.00  0.00    +0.001 A 
ATOM      7  C   UNL     1      -3.428  -1.460  24.759  0.00  0.00    +0.000 A 
ATOM      8  C   UNL     1      -3.535  -1.005  24.080  0.00  0.00    +0.001 A 
ATOM      9  C   UNL     1      -3.784  -0.220  24.144  0.00  0.00    +0.017 A 
ENDBRANCH   3   4
BRANCH  19  20
ATOM     20  N   UNL     1      -2.583   0.549  24.971  0.00  0.00    -0.171 NA
ATOM     21  C   UNL     1      -1.760   0.546  25.016  0.00  0.00    +0.269 C 
ATOM     22  O   UNL     1      -1.349   1.255  25.113  0.00  0.00    -0.268 OA
BRANCH  21  23
ATOM     23  C   UNL     1      -1.346  -0.167  24.965  0.00  0.00    +0.058 A 
ATOM     24  C   UNL     1      -1.089  -0.442  24.230  0.00  0.00    +0.025 A 
ATOM     25  C   UNL     1      -0.675  -1.155  24.179  0.00  0.00    +0.099 A 
ATOM     26  N   UNL     1      -0.519  -1.591  24.862  0.00  0.00    -0.242 NA
ATOM     27  C   UNL     1      -0.776  -1.315  25.595  0.00  0.00    +0.099 A 
ATOM     28  C   UNL     1      -1.189  -0.603  25.647  0.00  0.00    +0.025 A 
ENDBRANCH  21  23
ENDBRANCH  19  20
TORSDOF 3
ENDMDL
MODEL 4
REMARK VINA RESULT:     -15.1      1.425      4.064
REMARK  Name = 
REMARK  3 active torsions:
REMARK  status: ('A' for Active; 'I' for Inactive)
REMARK    1  A    between atoms: N_3  and  C_4
REMARK    2  A    between atoms: C_19  and  N_20
REMARK    3  A    between atoms: C_21  and  C_23
REMARK                            x       y       z     vdW  Elec       q    Type
REMARK                         _______ _______ _______ _____ _____    ______ ____
ROOT
ATOM      1  O   UNL     1       0.057   1.754  25.227  0.00  0.00    -0.250 OA
ATOM      2  C   UNL     1      -0.691   2.098  25.198  0.00  0.00    +0.327 C 
ATOM      3  N   UNL     1      -1.362   1.623  25.116  0.00  0.00    -0.162 NA
ATOM     10  N   UNL     1      -0.771   2.918  25.253  0.00  0.00    -0.262 N 
ATOM     11  C   UNL     1      -0.547   3.719  25.327  0.00  0.00    +0.097 C 
ATOM     12  C   UNL     1      -1.438   4.144  25.295  0.00  0.00    +0.043 C 
ATOM     13  C   UNL     1      -2.085   4.639  25.285  0.00  0.00    +0.011 C 
ATOM     14  C   UNL     1      -1.958   3.950  25.243  0.00  0.00    +0.058 C 
ATOM     15  C   UNL     1      -1.090   3.554  25.276  0.00  0.00    +0.101 C 
ATOM     16  C   UNL     1      -2.388   3.142  25.154  0.00  0.00    +0.041 A 
ATOM     17  C   UNL     1      -3.145   2.825  25.077  0.00  0.00    +0.014 A 
ATOM     18  C   UNL     1      -3.245   2.009  25.010  0.00  0.00    +0.023 A 
ATOM     19  C   UNL     1      -2.587   1.510  25.021  0.00  0.00    +0.130 A 
ATOM     29  C   UNL     1      -1.830   1.828  25.098  0.00  0.00    +0.276 A 
ATOM     30  O   UNL     1      -1.589   1.040  25.057  0.00  0.00    -0.266 OA
ATOM     31  N   UNL     1      -1.730   2.644  25.164  0.00  0.00    -0.298 N 
ATOM     32  C   UNL     1      -1.878   3.296  25.201  0.00  0.00    +0.110 C 
ENDROOT
BRANCH   3   4
ATOM      4  C   UNL     1      -1.281   0.804  25.062  0.00  0.00    +0.075 A 
ATOM      5  C   UNL     1      -1.292   0.342  25.745  0.00  0.00    +0.017 A 
ATOM      6  C   UNL     1      -1.212  -0.477  25.691  0.00  0.00    +0.001 A 
ATOM      7  C   UNL     1      -1.121  -0.835  24.952  0.00  0.00    +0.000 A 
ATOM      8  C   UNL     1      -1.110  -0.373  24.269  0.00  0.00    +0.001 A 
ATOM      9  C   UNL     1      -1.191   0.446  24.324  0.00  0.00    +0.017 A 
ENDBRANCH   3   4
BRANCH  19  20
ATOM     20  N   UNL     1      -2.688   0.694  24.954  0.00  0.00    -0.171 NA
ATOM     21  C   UNL     1      -3.446   0.376  24.891  0.00  0.00    +0.269 C 
ATOM     22  O   UNL     1      -4.104   0.873  24.895  0.00  0.00    -0.268 OA
BRANCH  21  23
ATOM     23  C   UNL     1      -3.546  -0.441  24.824  0.00  0.00    +0.058 A 
ATOM     24  C   UNL     1      -3.604  -0.789  24.079  0.00  0.00    +0.025 A 
ATOM     25  C   UNL     1      -3.705  -1.606  24.012  0.00  0.00    +0.099 A 
ATOM     26  N   UNL     1      -3.746  -2.073  24.691  0.00  0.00    -0.242 NA
ATOM     27  C   UNL     1      -3.688  -1.725  25.436  0.00  0.00    +0.099 A 
ATOM     28  C   UNL     1      -3.588  -0.909  25.503  0.00  0.00    +0.025 A 
ENDBRANCH  21  23
ENDBRANCH  19  20
TORSDOF 3
ENDMDL
MODEL 5
REMARK VINA RESULT:     -14.9      1.133      4.345
REMARK  Name = 
REMARK  3 active torsions:
REMARK  status: ('A' for Active; 'I' for Inactive)
REMARK    1  A    between atoms: N_3  and  C_4
REMARK    2  A    between atoms: C_19  and  N_20
REMARK    3  A    between atoms: C_21  and  C_23
REMARK                            x       y       z     vdW  Elec       q    Type
REMARK                         _______ _______ _______ _____ _____    ______ ____
ROOT
ATOM      1  O   UNL     1      -3.840   2.697  24.291  0.00  0.00    -0.250 OA
ATOM      2  C   UNL     1      -3.098   2.533  24.611  0.00  0.00    +0.327 C 
ATOM      3  N   UNL     1      -2.877   1.752  24.763  0.00  0.00    -0.162 NA
ATOM     10  N   UNL     1      -2.575   3.150  24.780  0.00  0.00    -0.262 N 
ATOM     11  C   UNL     1      -2.286   3.931  24.839  0.00  0.00    +0.097 C 
ATOM     12  C   UNL     1      -1.394   3.748  25.223  0.00  0.00    +0.043 C 
ATOM     13  C   UNL     1      -0.641   3.766  25.533  0.00  0.00    +0.011 C 
ATOM     14  C   UNL     1      -1.123   3.283  25.371  0.00  0.00    +0.058 C 
ATOM     15  C   UNL     1      -1.982   3.476  25.000  0.00  0.00    +0.101 C 
ATOM     16  C   UNL     1      -1.267   2.376  25.382  0.00  0.00    +0.041 A 
ATOM     17  C   UNL     1      -0.894   1.671  25.592  0.00  0.00    +0.014 A 
ATOM     18  C   UNL     1      -1.283   0.951  25.486  0.00  0.00    +0.023 A 
ATOM     19  C   UNL     1      -2.045   0.936  25.172  0.00  0.00    +0.130 A 
ATOM     29  C   UNL     1      -2.419   1.641  24.962  0.00  0.00    +0.276 A 
ATOM     30  O   UNL     1      -3.040   1.146  24.743  0.00  0.00    -0.266 OA
ATOM     31  N   UNL     1      -2.030   2.361  25.067  0.00  0.00    -0.298 N 
ATOM     32  C   UNL     1      -1.553   2.801  25.231  0.00  0.00    +0.110 C 
ENDROOT
BRANCH   3   4
ATOM      4  C   UNL     1      -3.399   1.137  24.595  0.00  0.00    +0.075 A 
ATOM      5  C   UNL     1      -3.377   0.765  23.859  0.00  0.00    +0.017 A 
ATOM      6  C   UNL     1      -3.899   0.150  23.691  0.00  0.00    +0.001 A 
ATOM      7  C   UNL     1      -4.445  -0.095  24.260  0.00  0.00    +0.000 A 
ATOM      8  C   UNL     1      -4.468   0.276  24.996  0.00  0.00    +0.001 A 
ATOM      9  C   UNL     1      -3.945   0.892  25.164  0.00  0.00    +0.017 A 
ENDBRANCH   3   4
BRANCH  19  20
ATOM     20  N   UNL     1      -2.434   0.217  25.067  0.00  0.00    -0.171 NA
ATOM     21  C   UNL     1      -2.067  -0.487  25.293  0.00  0.00    +0.269 C 
ATOM     22  O   UNL     1      -1.311  -0.471  25.624  0.00  0.00    -0.268 OA
BRANCH  21  23
ATOM     23  C   UNL     1      -2.456  -1.208  25.187  0.00  0.00    +0.058 A 
ATOM     24  C   UNL     1      -2.340  -1.641  24.495  0.00  0.00    +0.025 A 
ATOM     25  C   UNL     1      -2.729  -2.362  24.390  0.00  0.00    +0.099 A 
ATOM     26  N   UNL     1      -3.234  -2.647  24.977  0.00  0.00    -0.242 NA
ATOM     27  C   UNL     1      -3.350  -2.213  25.668  0.00  0.00    +0.099 A 
ATOM     28  C   UNL     1      -2.961  -1.493  25.774  0.00  0.00    +0.025 A 
ENDBRANCH  21  23
ENDBRANCH  19  20
TORSDOF 3
ENDMDL
