MODEL 1
REMARK VINA RESULT:     -12.0      0.000      0.000
REMARK  Name = 
REMARK  5 active torsions:
REMARK  status: ('A' for Active; 'I' for Inactive)
REMARK    1  A    between atoms: C_2  and  C_22
REMARK    2  A    between atoms: C_9  and  N_10
REMARK    3  A    between atoms: N_13  and  C_14
REMARK    4  A    between atoms: C_22  and  C_24
REMARK    5  A    between atoms: N_26  and  C_27
REMARK                            x       y       z     vdW  Elec       q    Type
REMARK                         _______ _______ _______ _____ _____    ______ ____
ROOT
ATOM      1  C   UNL     1      -0.691  -0.627  24.767  0.00  0.00    +0.052 C 
ATOM      2  C   UNL     1      -0.234  -0.673  24.081  0.00  0.00    -0.001 C 
ATOM      3  C   UNL     1       0.110   0.009  23.769  0.00  0.00    -0.000 C 
ATOM      4  C   UNL     1      -0.002   0.736  24.142  0.00  0.00    -0.001 C 
ATOM      5  C   UNL     1       0.455   0.690  23.456  0.00  0.00    -0.000 C 
ATOM      6  C   UNL     1       0.342   1.418  23.829  0.00  0.00    +0.002 C 
ATOM      7  C   UNL     1       0.230   2.145  24.202  0.00  0.00    +0.022 C 
ATOM      8  C   UNL     1      -0.227   2.190  24.887  0.00  0.00    +0.097 C 
ATOM     15  C   UNL     1      -0.572   1.510  25.200  0.00  0.00    +0.019 C 
ATOM     16  C   UNL     1      -1.028   1.556  25.885  0.00  0.00    +0.002 C 
ATOM     17  C   UNL     1      -0.459   0.782  24.827  0.00  0.00    +0.045 C 
ATOM     18  C   UNL     1      -0.804   0.101  25.140  0.00  0.00    +0.145 C 
ATOM     19  O   UNL     1      -1.260   0.147  25.824  0.00  0.00    -0.224 OA
ENDROOT
BRANCH   8   9
ATOM      9  N   UNL     1      -0.340   2.917  25.260  0.00  0.00    -0.189 NA
ATOM     10  C   UNL     1      -0.634   3.559  24.832  0.00  0.00    +0.339 C 
ATOM     11  O   UNL     1      -0.815   3.473  24.032  0.00  0.00    -0.249 OA
ATOM     12  N   UNL     1      -0.747   4.287  25.205  0.00  0.00    -0.187 NA
BRANCH  12  13
ATOM     13  C   UNL     1      -1.042   4.928  24.777  0.00  0.00    +0.117 C 
ATOM     14  C   UNL     1      -1.449   5.530  25.167  0.00  0.00    +0.025 C 
ENDBRANCH  12  13
ENDBRANCH   8   9
BRANCH   1  20
ATOM     20  C   UNL     1      -1.036  -1.308  25.080  0.00  0.00    +0.077 C 
ATOM     21  C   UNL     1      -0.733  -1.645  25.768  0.00  0.00    +0.009 C 
BRANCH  20  22
ATOM     22  C   UNL     1      -1.685  -1.652  24.702  0.00  0.00    +0.241 C 
ATOM     23  O   UNL     1      -1.577  -2.088  24.010  0.00  0.00    -0.273 OA
ATOM     24  N   UNL     1      -2.441  -1.559  25.018  0.00  0.00    -0.207 NA
BRANCH  24  25
ATOM     25  C   UNL     1      -3.090  -1.903  24.641  0.00  0.00    +0.095 C 
ATOM     26  C   UNL     1      -3.228  -2.713  24.716  0.00  0.00    +0.022 C 
ATOM     27  C   UNL     1      -3.878  -3.057  24.339  0.00  0.00    +0.002 C 
ATOM     28  C   UNL     1      -4.387  -2.591  23.888  0.00  0.00    +0.000 C 
ATOM     29  C   UNL     1      -4.248  -1.781  23.814  0.00  0.00    +0.002 C 
ATOM     30  C   UNL     1      -3.600  -1.437  24.190  0.00  0.00    +0.022 C 
ENDBRANCH  24  25
ENDBRANCH  20  22
ENDBRANCH   1  20
TORSDOF 5
ENDMDL
MODEL 2
REMARK VINA RESULT:     -11.4      2.464      6.140
REMARK  Name = 
REMARK  5 active torsions:
REMARK  status: ('A' for Active; 'I' for Inactive)
REMARK    1  A    between atoms: C_2  and  C_22
REMARK    2  A    between atoms: C_9  and  N_10
REMARK    3  A    between atoms: N_13  and  C_14
REMARK    4  A    between atoms: C_22  and  C_24
REMARK    5  A    between atoms: N_26  and  C_27
REMARK                            x       y       z     vdW  Elec       q    Type
REMARK                         _______ _______ _______ _____ _____    ______ ____
ROOT
ATOM      1  C   UNL     1      -4.174   2.770  24.482  0.00  0.00    +0.052 C 
ATOM      2  C   UNL     1      -4.738   2.805  25.083  0.00  0.00    -0.001 C 
ATOM      3  C   UNL     1      -5.071   2.110  25.377  0.00  0.00    -0.000 C 
ATOM      4  C   UNL     1      -4.840   1.380  25.070  0.00  0.00    -0.001 C 
ATOM      5  C   UNL     1      -5.404   1.415  25.671  0.00  0.00    -0.000 C 
ATOM      6  C   UNL     1      -5.173   0.684  25.364  0.00  0.00    +0.002 C 
ATOM      7  C   UNL     1      -4.942  -0.045  25.058  0.00  0.00    +0.022 C 
ATOM      8  C   UNL     1      -4.378  -0.081  24.457  0.00  0.00    +0.097 C 
ATOM     15  C   UNL     1      -4.045   0.614  24.162  0.00  0.00    +0.019 C 
ATOM     16  C   UNL     1      -3.481   0.579  23.562  0.00  0.00    +0.002 C 
ATOM     17  C   UNL     1      -4.276   1.345  24.469  0.00  0.00    +0.045 C 
ATOM     18  C   UNL     1      -3.943   2.039  24.175  0.00  0.00    +0.145 C 
ATOM     19  O   UNL     1      -3.379   2.004  23.575  0.00  0.00    -0.224 OA
ENDROOT
BRANCH   8   9
ATOM      9  N   UNL     1      -4.147  -0.810  24.150  0.00  0.00    -0.189 NA
ATOM     10  C   UNL     1      -3.890  -1.408  24.658  0.00  0.00    +0.339 C 
ATOM     11  O   UNL     1      -3.865  -1.276  25.472  0.00  0.00    -0.249 OA
ATOM     12  N   UNL     1      -3.658  -2.139  24.351  0.00  0.00    -0.187 NA
BRANCH  12  13
ATOM     13  C   UNL     1      -3.402  -2.736  24.859  0.00  0.00    +0.117 C 
ATOM     14  C   UNL     1      -3.117  -3.446  24.549  0.00  0.00    +0.025 C 
ENDBRANCH  12  13
ENDBRANCH   8   9
BRANCH   1  20
ATOM     20  C   UNL     1      -3.841   3.465  24.187  0.00  0.00    +0.077 C 
ATOM     21  C   UNL     1      -4.149   3.814  23.508  0.00  0.00    +0.009 C 
BRANCH  20  22
ATOM     22  C   UNL     1      -3.198   3.809  24.574  0.00  0.00    +0.241 C 
ATOM     23  O   UNL     1      -3.275   4.067  25.354  0.00  0.00    -0.273 OA
ATOM     24  N   UNL     1      -2.478   3.896  24.180  0.00  0.00    -0.207 NA
BRANCH  24  25
ATOM     25  C   UNL     1      -1.836   4.241  24.566  0.00  0.00    +0.095 C 
ATOM     26  C   UNL     1      -1.801   5.060  24.657  0.00  0.00    +0.022 C 
ATOM     27  C   UNL     1      -1.158   5.405  25.044  0.00  0.00    +0.002 C 
ATOM     28  C   UNL     1      -0.551   4.931  25.339  0.00  0.00    +0.000 C 
ATOM     29  C   UNL     1      -0.587   4.111  25.248  0.00  0.00    +0.002 C 
ATOM     30  C   UNL     1      -1.229   3.767  24.862  0.00  0.00    +0.022 C 
ENDBRANCH  24  25
ENDBRANCH  20  22
ENDBRANCH   1  20
TORSDOF 5
ENDMDL
MODEL 3
REMARK VINA RESULT:     -11.3      2.687      4.044
REMARK  Name = 
REMARK  5 active torsions:
REMARK  status: ('A' for Active; 'I' for Inactive)
REMARK    1  A    between atoms: C_2  and  C_22
REMARK    2  A    between atoms: C_9  and  N_10
REMARK    3  A    between atoms: N_13  and  C_14
REMARK    4  A    between atoms: C_22  and  C_24
REMARK    5  A    between atoms: N_26  and  C_27
REMARK                            x       y       z     vdW  Elec       q    Type
REMARK                         _______ _______ _______ _____ _____    ______ ____
ROOT
ATOM      1  C   UNL     1      -3.267  -0.128  24.729  0.00  0.00    +0.052 C 
ATOM      2  C   UNL     1      -3.089  -0.605  25.378  0.00  0.00    -0.001 C 
ATOM      3  C   UNL     1      -2.301  -0.760  25.572  0.00  0.00    -0.000 C 
ATOM      4  C   UNL     1      -1.694  -0.438  25.117  0.00  0.00    -0.001 C 
ATOM      5  C   UNL     1      -1.515  -0.915  25.766  0.00  0.00    -0.000 C 
ATOM      6  C   UNL     1      -0.906  -0.593  25.310  0.00  0.00    +0.002 C 
ATOM      7  C   UNL     1      -0.299  -0.272  24.855  0.00  0.00    +0.022 C 
ATOM      8  C   UNL     1      -0.477   0.205  24.206  0.00  0.00    +0.097 C 
ATOM     15  C   UNL     1      -1.264   0.360  24.011  0.00  0.00    +0.019 C 
ATOM     16  C   UNL     1      -1.442   0.836  23.363  0.00  0.00    +0.002 C 
ATOM     17  C   UNL     1      -1.872   0.038  24.467  0.00  0.00    +0.045 C 
ATOM     18  C   UNL     1      -2.659   0.194  24.273  0.00  0.00    +0.145 C 
ATOM     19  O   UNL     1      -2.837   0.669  23.624  0.00  0.00    -0.224 OA
ENDROOT
BRANCH   8   9
ATOM      9  N   UNL     1       0.130   0.527  23.750  0.00  0.00    -0.189 NA
ATOM     10  C   UNL     1       0.718   0.036  23.442  0.00  0.00    +0.339 C 
ATOM     11  O   UNL     1       0.698  -0.776  23.589  0.00  0.00    -0.249 OA
ATOM     12  N   UNL     1       1.327   0.357  22.985  0.00  0.00    -0.187 NA
BRANCH  12  13
ATOM     13  C   UNL     1       1.914  -0.133  22.677  0.00  0.00    +0.117 C 
ATOM     14  C   UNL     1       2.585   0.197  22.329  0.00  0.00    +0.025 C 
ENDBRANCH  12  13
ENDBRANCH   8   9
BRANCH   1  20
ATOM     20  C   UNL     1      -4.054   0.027  24.535  0.00  0.00    +0.077 C 
ATOM     21  C   UNL     1      -4.419  -0.392  23.926  0.00  0.00    +0.009 C 
BRANCH  20  22
ATOM     22  C   UNL     1      -4.475   0.603  24.950  0.00  0.00    +0.241 C 
ATOM     23  O   UNL     1      -4.672   0.479  25.742  0.00  0.00    -0.273 OA
ATOM     24  N   UNL     1      -4.699   1.301  24.573  0.00  0.00    -0.207 NA
BRANCH  24  25
ATOM     25  C   UNL     1      -5.120   1.877  24.989  0.00  0.00    +0.095 C 
ATOM     26  C   UNL     1      -5.917   1.758  25.164  0.00  0.00    +0.022 C 
ATOM     27  C   UNL     1      -6.339   2.334  25.579  0.00  0.00    +0.002 C 
ATOM     28  C   UNL     1      -5.962   3.028  25.819  0.00  0.00    +0.000 C 
ATOM     29  C   UNL     1      -5.164   3.146  25.644  0.00  0.00    +0.002 C 
ATOM     30  C   UNL     1      -4.744   2.571  25.229  0.00  0.00    +0.022 C 
ENDBRANCH  24  25
ENDBRANCH  20  22
ENDBRANCH   1  20
TORSDOF 5
ENDMDL
MODEL 4
REMARK VINA RESULT:     -10.8      2.306      3.390
REMARK  Name = 
REMARK  5 active torsions:
REMARK  status: ('A' for Active; 'I' for Inactive)
REMARK    1  A    between atoms: C_2  and  C_22
REMARK    2  A    between atoms: C_9  and  N_10
REMARK    3  A    between atoms: N_13  and  C_14
REMARK    4  A    between atoms: C_22  and  C_24
REMARK    5  A    between atoms: N_26  and  C_27
REMARK                            x       y       z     vdW  Elec       q    Type
REMARK                         _______ _______ _______ _____ _____    ______ ____
ROOT
ATOM      1  C   UNL     1      -4.165   0.268  24.477  0.00  0.00    +0.052 C 
ATOM      2  C   UNL     1      -4.793   0.347  25.007  0.00  0.00    -0.001 C 
ATOM      3  C   UNL     1      -4.988   1.090  25.307  0.00  0.00    -0.000 C 
ATOM      4  C   UNL     1      -4.557   1.754  25.078  0.00  0.00    -0.001 C 
ATOM      5  C   UNL     1      -5.184   1.833  25.608  0.00  0.00    -0.000 C 
ATOM      6  C   UNL     1      -4.752   2.498  25.378  0.00  0.00    +0.002 C 
ATOM      7  C   UNL     1      -4.321   3.162  25.149  0.00  0.00    +0.022 C 
ATOM      8  C   UNL     1      -3.694   3.083  24.618  0.00  0.00    +0.097 C 
ATOM     15  C   UNL     1      -3.497   2.341  24.318  0.00  0.00    +0.019 C 
ATOM     16  C   UNL     1      -2.871   2.262  23.788  0.00  0.00    +0.002 C 
ATOM     17  C   UNL     1      -3.930   1.676  24.548  0.00  0.00    +0.045 C 
ATOM     18  C   UNL     1      -3.733   0.933  24.247  0.00  0.00    +0.145 C 
ATOM     19  O   UNL     1      -3.107   0.855  23.717  0.00  0.00    -0.224 OA
ENDROOT
BRANCH   8   9
ATOM      9  N   UNL     1      -3.262   3.747  24.388  0.00  0.00    -0.189 NA
ATOM     10  C   UNL     1      -2.766   4.125  24.930  0.00  0.00    +0.339 C 
ATOM     11  O   UNL     1      -2.703   3.838  25.701  0.00  0.00    -0.249 OA
ATOM     12  N   UNL     1      -2.333   4.789  24.700  0.00  0.00    -0.187 NA
BRANCH  12  13
ATOM     13  C   UNL     1      -1.838   5.166  25.242  0.00  0.00    +0.117 C 
ATOM     14  C   UNL     1      -1.168   5.567  24.977  0.00  0.00    +0.025 C 
ENDBRANCH  12  13
ENDBRANCH   8   9
BRANCH   1  20
ATOM     20  C   UNL     1      -3.969  -0.474  24.176  0.00  0.00    +0.077 C 
ATOM     21  C   UNL     1      -4.350  -0.761  23.503  0.00  0.00    +0.009 C 
BRANCH  20  22
ATOM     22  C   UNL     1      -3.392  -0.931  24.550  0.00  0.00    +0.241 C 
ATOM     23  O   UNL     1      -3.496  -1.169  25.333  0.00  0.00    -0.273 OA
ATOM     24  N   UNL     1      -2.710  -1.149  24.139  0.00  0.00    -0.207 NA
BRANCH  24  25
ATOM     25  C   UNL     1      -2.132  -1.605  24.513  0.00  0.00    +0.095 C 
ATOM     26  C   UNL     1      -2.202  -2.427  24.527  0.00  0.00    +0.022 C 
ATOM     27  C   UNL     1      -1.624  -2.884  24.900  0.00  0.00    +0.002 C 
ATOM     28  C   UNL     1      -0.978  -2.518  25.259  0.00  0.00    +0.000 C 
ATOM     29  C   UNL     1      -0.909  -1.696  25.245  0.00  0.00    +0.002 C 
ATOM     30  C   UNL     1      -1.486  -1.240  24.872  0.00  0.00    +0.022 C 
ENDBRANCH  24  25
ENDBRANCH  20  22
ENDBRANCH   1  20
TORSDOF 5
ENDMDL
MODEL 5
REMARK VINA RESULT:     -10.8      2.894      4.362
REMARK  Name = 
REMARK  5 active torsions:
REMARK  status: ('A' for Active; 'I' for Inactive)
REMARK    1  A    between atoms: C_2  and  C_22
REMARK    2  A    between atoms: C_9  and  N_10
REMARK    3  A    between atoms: N_13  and  C_14
REMARK    4  A    between atoms: C_22  and  C_24
REMARK    5  A    between atoms: N_26  and  C_27
REMARK                            x       y       z     vdW  Elec       q    Type
REMARK                         _______ _______ _______ _____ _____    ______ ____
ROOT
ATOM      1  C   UNL     1      -2.246   3.232  24.972  0.00  0.00    +0.052 C 
ATOM      2  C   UNL     1      -1.843   3.447  25.658  0.00  0.00    -0.001 C 
ATOM      3  C   UNL     1      -1.113   3.104  25.832  0.00  0.00    -0.000 C 
ATOM      4  C   UNL     1      -0.787   2.545  25.321  0.00  0.00    -0.001 C 
ATOM      5  C   UNL     1      -0.383   2.761  26.007  0.00  0.00    -0.000 C 
ATOM      6  C   UNL     1      -0.057   2.201  25.495  0.00  0.00    +0.002 C 
ATOM      7  C   UNL     1       0.268   1.643  24.983  0.00  0.00    +0.022 C 
ATOM      8  C   UNL     1      -0.136   1.427  24.297  0.00  0.00    +0.097 C 
ATOM     15  C   UNL     1      -0.865   1.770  24.122  0.00  0.00    +0.019 C 
ATOM     16  C   UNL     1      -1.268   1.554  23.436  0.00  0.00    +0.002 C 
ATOM     17  C   UNL     1      -1.191   2.329  24.634  0.00  0.00    +0.045 C 
ATOM     18  C   UNL     1      -1.921   2.672  24.459  0.00  0.00    +0.145 C 
ATOM     19  O   UNL     1      -2.324   2.457  23.774  0.00  0.00    -0.224 OA
ENDROOT
BRANCH   8   9
ATOM      9  N   UNL     1       0.190   0.868  23.785  0.00  0.00    -0.189 NA
ATOM     10  C   UNL     1       0.987   0.915  23.576  0.00  0.00    +0.339 C 
ATOM     11  O   UNL     1       1.458   1.521  23.880  0.00  0.00    -0.249 OA
ATOM     12  N   UNL     1       1.313   0.356  23.064  0.00  0.00    -0.187 NA
BRANCH  12  13
ATOM     13  C   UNL     1       2.110   0.403  22.856  0.00  0.00    +0.117 C 
ATOM     14  C   UNL     1       2.423  -0.123  22.303  0.00  0.00    +0.025 C 
ENDBRANCH  12  13
ENDBRANCH   8   9
BRANCH   1  20
ATOM     20  C   UNL     1      -2.976   3.575  24.797  0.00  0.00    +0.077 C 
ATOM     21  C   UNL     1      -3.025   4.177  24.237  0.00  0.00    +0.009 C 
BRANCH  20  22
ATOM     22  C   UNL     1      -3.657   3.313  25.183  0.00  0.00    +0.241 C 
ATOM     23  O   UNL     1      -3.741   3.428  25.996  0.00  0.00    -0.273 OA
ATOM     24  N   UNL     1      -4.255   2.938  24.756  0.00  0.00    -0.207 NA
BRANCH  24  25
ATOM     25  C   UNL     1      -4.936   2.677  25.142  0.00  0.00    +0.095 C 
ATOM     26  C   UNL     1      -5.085   1.868  25.213  0.00  0.00    +0.022 C 
ATOM     27  C   UNL     1      -5.766   1.607  25.599  0.00  0.00    +0.002 C 
ATOM     28  C   UNL     1      -6.298   2.155  25.914  0.00  0.00    +0.000 C 
ATOM     29  C   UNL     1      -6.147   2.963  25.842  0.00  0.00    +0.002 C 
ATOM     30  C   UNL     1      -5.467   3.224  25.457  0.00  0.00    +0.022 C 
ENDBRANCH  24  25
ENDBRANCH  20  22
ENDBRANCH   1  20
TORSDOF 5
ENDMDL
MODEL 6
REMARK VINA RESULT:     -10.5      0.790      5.095
REMARK  Name = 
REMARK  5 active torsions:
REMARK  status: ('A' for Active; 'I' for Inactive)
REMARK    1  A    between atoms: C_2  and  C_22
REMARK    2  A    between atoms: C_9  and  N_10
REMARK    3  A    between atoms: N_13  and  C_14
REMARK    4  A    between atoms: C_22  and  C_24
REMARK    5  A    between atoms: N_26  and  C_27
REMARK                            x       y       z     vdW  Elec       q    Type
REMARK                         _______ _______ _______ _____ _____    ______ ____
ROOT
ATOM      1  C   UNL     1      -0.133   1.679  25.072  0.00  0.00    +0.052 C 
ATOM      2  C   UNL     1       0.298   1.619  24.371  0.00  0.00    -0.001 C 
ATOM      3  C   UNL     1       0.282   0.919  23.935  0.00  0.00    -0.000 C 
ATOM      4  C   UNL     1      -0.164   0.278  24.200  0.00  0.00    -0.001 C 
ATOM      5  C   UNL     1       0.266   0.219  23.499  0.00  0.00    -0.000 C 
ATOM      6  C   UNL     1      -0.181  -0.423  23.765  0.00  0.00    +0.002 C 
ATOM      7  C   UNL     1      -0.627  -1.063  24.029  0.00  0.00    +0.022 C 
ATOM      8  C   UNL     1      -1.057  -1.004  24.731  0.00  0.00    +0.097 C 
ATOM     15  C   UNL     1      -1.042  -0.304  25.167  0.00  0.00    +0.019 C 
ATOM     16  C   UNL     1      -1.472  -0.245  25.867  0.00  0.00    +0.002 C 
ATOM     17  C   UNL     1      -0.595   0.337  24.901  0.00  0.00    +0.045 C 
ATOM     18  C   UNL     1      -0.580   1.037  25.338  0.00  0.00    +0.145 C 
ATOM     19  O   UNL     1      -1.010   1.096  26.038  0.00  0.00    -0.224 OA
ENDROOT
BRANCH   8   9
ATOM      9  N   UNL     1      -1.504  -1.644  24.996  0.00  0.00    -0.189 NA
ATOM     10  C   UNL     1      -2.124  -1.934  24.535  0.00  0.00    +0.339 C 
ATOM     11  O   UNL     1      -2.297  -1.584  23.808  0.00  0.00    -0.249 OA
ATOM     12  N   UNL     1      -2.571  -2.576  24.800  0.00  0.00    -0.187 NA
BRANCH  12  13
ATOM     13  C   UNL     1      -3.191  -2.865  24.339  0.00  0.00    +0.117 C 
ATOM     14  C   UNL     1      -3.816  -3.268  24.695  0.00  0.00    +0.025 C 
ENDBRANCH  12  13
ENDBRANCH   8   9
BRANCH   1  20
ATOM     20  C   UNL     1      -0.117   2.378  25.508  0.00  0.00    +0.077 C 
ATOM     21  C   UNL     1       0.300   2.413  26.218  0.00  0.00    +0.009 C 
BRANCH  20  22
ATOM     22  C   UNL     1      -0.520   3.045  25.233  0.00  0.00    +0.241 C 
ATOM     23  O   UNL     1      -0.449   3.274  24.444  0.00  0.00    -0.273 OA
ATOM     24  N   UNL     1      -0.995   3.480  25.749  0.00  0.00    -0.207 NA
BRANCH  24  25
ATOM     25  C   UNL     1      -1.398   4.146  25.474  0.00  0.00    +0.095 C 
ATOM     26  C   UNL     1      -0.977   4.816  25.242  0.00  0.00    +0.022 C 
ATOM     27  C   UNL     1      -1.380   5.482  24.967  0.00  0.00    +0.002 C 
ATOM     28  C   UNL     1      -2.204   5.477  24.924  0.00  0.00    +0.000 C 
ATOM     29  C   UNL     1      -2.624   4.806  25.156  0.00  0.00    +0.002 C 
ATOM     30  C   UNL     1      -2.222   4.141  25.430  0.00  0.00    +0.022 C 
ENDBRANCH  24  25
ENDBRANCH  20  22
ENDBRANCH   1  20
TORSDOF 5
ENDMDL
MODEL 7
REMARK VINA RESULT:      -9.5      2.061      2.752
REMARK  Name = 
REMARK  5 active torsions:
REMARK  status: ('A' for Active; 'I' for Inactive)
REMARK    1  A    between atoms: C_2  and  C_22
REMARK    2  A    between atoms: C_9  and  N_10
REMARK    3  A    between atoms: N_13  and  C_14
REMARK    4  A    between atoms: C_22  and  C_24
REMARK    5  A    between atoms: N_26  and  C_27
REMARK                            x       y       z     vdW  Elec       q    Type
REMARK                         _______ _______ _______ _____ _____    ______ ____
ROOT
ATOM      1  C   UNL     1      -0.972   1.122  24.735  0.00  0.00    +0.052 C 
ATOM      2  C   UNL     1      -0.491   1.394  25.348  0.00  0.00    -0.001 C 
ATOM      3  C   UNL     1      -0.682   2.093  25.742  0.00  0.00    -0.000 C 
ATOM      4  C   UNL     1      -1.353   2.520  25.524  0.00  0.00    -0.001 C 
ATOM      5  C   UNL     1      -0.872   2.793  26.136  0.00  0.00    -0.000 C 
ATOM      6  C   UNL     1      -1.544   3.220  25.917  0.00  0.00    +0.002 C 
ATOM      7  C   UNL     1      -2.214   3.647  25.699  0.00  0.00    +0.022 C 
ATOM      8  C   UNL     1      -2.695   3.375  25.086  0.00  0.00    +0.097 C 
ATOM     15  C   UNL     1      -2.505   2.675  24.692  0.00  0.00    +0.019 C 
ATOM     16  C   UNL     1      -2.985   2.404  24.080  0.00  0.00    +0.002 C 
ATOM     17  C   UNL     1      -1.833   2.248  24.911  0.00  0.00    +0.045 C 
ATOM     18  C   UNL     1      -1.644   1.549  24.516  0.00  0.00    +0.145 C 
ATOM     19  O   UNL     1      -2.124   1.277  23.905  0.00  0.00    -0.224 OA
ENDROOT
BRANCH   8   9
ATOM      9  N   UNL     1      -3.366   3.801  24.868  0.00  0.00    -0.189 NA
ATOM     10  C   UNL     1      -4.018   3.831  25.373  0.00  0.00    +0.339 C 
ATOM     11  O   UNL     1      -3.999   3.434  26.096  0.00  0.00    -0.249 OA
ATOM     12  N   UNL     1      -4.691   4.258  25.154  0.00  0.00    -0.187 NA
BRANCH  12  13
ATOM     13  C   UNL     1      -5.342   4.287  25.659  0.00  0.00    +0.117 C 
ATOM     14  C   UNL     1      -6.034   4.665  25.416  0.00  0.00    +0.025 C 
ENDBRANCH  12  13
ENDBRANCH   8   9
BRANCH   1  20
ATOM     20  C   UNL     1      -0.782   0.423  24.341  0.00  0.00    +0.077 C 
ATOM     21  C   UNL     1      -0.291   0.442  23.679  0.00  0.00    +0.009 C 
BRANCH  20  22
ATOM     22  C   UNL     1      -1.084  -0.297  24.610  0.00  0.00    +0.241 C 
ATOM     23  O   UNL     1      -0.854  -0.593  25.345  0.00  0.00    -0.273 OA
ATOM     24  N   UNL     1      -1.616  -0.721  24.142  0.00  0.00    -0.207 NA
BRANCH  24  25
ATOM     25  C   UNL     1      -1.919  -1.440  24.411  0.00  0.00    +0.095 C 
ATOM     26  C   UNL     1      -1.468  -2.128  24.341  0.00  0.00    +0.022 C 
ATOM     27  C   UNL     1      -1.770  -2.848  24.610  0.00  0.00    +0.002 C 
ATOM     28  C   UNL     1      -2.522  -2.879  24.948  0.00  0.00    +0.000 C 
ATOM     29  C   UNL     1      -2.972  -2.191  25.017  0.00  0.00    +0.002 C 
ATOM     30  C   UNL     1      -2.671  -1.472  24.749  0.00  0.00    +0.022 C 
ENDBRANCH  24  25
ENDBRANCH  20  22
ENDBRANCH   1  20
TORSDOF 5
ENDMDL
