MODEL 1
REMARK VINA RESULT:     -12.0      0.000      0.000
REMARK  Name = 
REMARK  4 active torsions:
REMARK  status: ('A' for Active; 'I' for Inactive)
REMARK    1  A    between atoms: C_2  and  C_4
REMARK    2  A    between atoms: C_6  and  C_7
REMARK    3  A    between atoms: C_7  and  C_8
REMARK    4  A    between atoms: C_21  and  C_22
REMARK                            x       y       z     vdW  Elec       q    Type
REMARK                         _______ _______ _______ _____ _____    ______ ____
ROOT
ATOM      4  C   UNL     1      -3.359   2.204  24.002  0.00  0.00    +0.006 C 
ATOM      5  C   UNL     1      -3.818   1.528  24.117  0.00  0.00    +0.005 C 
ATOM      6  C   UNL     1      -4.455   1.546  24.640  0.00  0.00    +0.026 C 
ATOM     18  C   UNL     1      -4.634   2.241  25.049  0.00  0.00    -0.048 C 
ATOM     19  C   UNL     1      -5.271   2.259  25.573  0.00  0.00    +0.026 C 
ATOM     20  C   UNL     1      -4.174   2.916  24.934  0.00  0.00    -0.033 C 
ATOM     21  C   UNL     1      -3.537   2.898  24.411  0.00  0.00    +0.040 C 
ENDROOT
BRANCH   4   2
ATOM      1  C   UNL     1      -1.958   2.057  23.763  0.00  0.00    +0.000 C 
ATOM      2  C   UNL     1      -2.722   2.186  23.479  0.00  0.00    +0.000 C 
ATOM      3  C   UNL     1      -2.848   2.297  22.671  0.00  0.00    +0.000 C 
ENDBRANCH   4   2
BRANCH  21  22
ATOM     22  C   UNL     1      -3.078   3.574  24.297  0.00  0.00    +0.114 C 
ATOM     23  N   UNL     1      -3.195   4.237  24.773  0.00  0.00    -0.131 NA
ENDBRANCH  21  22
BRANCH   6   7
ATOM      7  C   UNL     1      -4.915   0.871  24.755  0.00  0.00    +0.070 C 
BRANCH   7   8
ATOM      8  C   UNL     1      -4.556   0.130  24.801  0.00  0.00    +0.139 A 
ATOM      9  N   UNL     1      -4.127  -0.162  25.442  0.00  0.00    -0.229 NA
ATOM     10  C   UNL     1      -3.869  -0.922  25.250  0.00  0.00    +0.100 A 
ATOM     11  C   UNL     1      -4.138  -1.099  24.491  0.00  0.00    +0.101 A 
ATOM     12  N   UNL     1      -4.563  -0.450  24.213  0.00  0.00    -0.229 NA
ATOM     13  C   UNL     1      -3.961  -1.830  24.152  0.00  0.00    +0.032 A 
ATOM     14  C   UNL     1      -3.516  -2.383  24.571  0.00  0.00    +0.059 A 
ATOM     15 CL   UNL     1      -3.339  -3.113  24.231  0.00  0.00    -0.082 Cl
ATOM     16  C   UNL     1      -3.246  -2.206  25.330  0.00  0.00    +0.013 A 
ATOM     17  C   UNL     1      -3.422  -1.475  25.670  0.00  0.00    +0.022 A 
ENDBRANCH   7   8
ENDBRANCH   6   7
TORSDOF 4
ENDMDL
MODEL 2
REMARK VINA RESULT:     -11.8      0.859      1.963
REMARK  Name = 
REMARK  4 active torsions:
REMARK  status: ('A' for Active; 'I' for Inactive)
REMARK    1  A    between atoms: C_2  and  C_4
REMARK    2  A    between atoms: C_6  and  C_7
REMARK    3  A    between atoms: C_7  and  C_8
REMARK    4  A    between atoms: C_21  and  C_22
REMARK                            x       y       z     vdW  Elec       q    Type
REMARK                         _______ _______ _______ _____ _____    ______ ____
ROOT
ATOM      4  C   UNL     1      -5.097   2.092  24.964  0.00  0.00    +0.006 C 
ATOM      5  C   UNL     1      -4.654   1.535  24.546  0.00  0.00    +0.005 C 
ATOM      6  C   UNL     1      -3.914   1.740  24.243  0.00  0.00    +0.026 C 
ATOM     18  C   UNL     1      -3.617   2.502  24.359  0.00  0.00    -0.048 C 
ATOM     19  C   UNL     1      -2.878   2.706  24.056  0.00  0.00    +0.026 C 
ATOM     20  C   UNL     1      -4.061   3.057  24.777  0.00  0.00    -0.033 C 
ATOM     21  C   UNL     1      -4.800   2.852  25.080  0.00  0.00    +0.040 C 
ENDROOT
BRANCH   4   2
ATOM      1  C   UNL     1      -5.915   1.686  26.063  0.00  0.00    +0.000 C 
ATOM      2  C   UNL     1      -5.836   1.887  25.267  0.00  0.00    +0.000 C 
ATOM      3  C   UNL     1      -6.498   1.883  24.773  0.00  0.00    +0.000 C 
ENDBRANCH   4   2
BRANCH  21  22
ATOM     22  C   UNL     1      -5.243   3.409  25.498  0.00  0.00    +0.114 C 
ATOM     23  N   UNL     1      -4.962   4.179  25.586  0.00  0.00    -0.131 NA
ENDBRANCH  21  22
BRANCH   6   7
ATOM      7  C   UNL     1      -3.471   1.184  23.825  0.00  0.00    +0.070 C 
BRANCH   7   8
ATOM      8  C   UNL     1      -3.447   0.399  24.078  0.00  0.00    +0.139 A 
ATOM      9  N   UNL     1      -3.035   0.113  24.733  0.00  0.00    -0.229 NA
ATOM     10  C   UNL     1      -3.165  -0.700  24.780  0.00  0.00    +0.100 A 
ATOM     11  C   UNL     1      -3.657  -0.916  24.154  0.00  0.00    +0.101 A 
ATOM     12  N   UNL     1      -3.832  -0.238  23.720  0.00  0.00    -0.229 NA
ATOM     13  C   UNL     1      -3.883  -1.705  24.061  0.00  0.00    +0.032 A 
ATOM     14  C   UNL     1      -3.617  -2.276  24.593  0.00  0.00    +0.059 A 
ATOM     15 CL   UNL     1      -3.842  -3.063  24.500  0.00  0.00    -0.082 Cl
ATOM     16  C   UNL     1      -3.124  -2.059  25.219  0.00  0.00    +0.013 A 
ATOM     17  C   UNL     1      -2.898  -1.272  25.313  0.00  0.00    +0.022 A 
ENDBRANCH   7   8
ENDBRANCH   6   7
TORSDOF 4
ENDMDL
MODEL 3
REMARK VINA RESULT:     -11.5      2.060      4.265
REMARK  Name = 
REMARK  4 active torsions:
REMARK  status: ('A' for Active; 'I' for Inactive)
REMARK    1  A    between atoms: C_2  and  C_4
REMARK    2  A    between atoms: C_6  and  C_7
REMARK    3  A    between atoms: C_7  and  C_8
REMARK    4  A    between atoms: C_21  and  C_22
REMARK                            x       y       z     vdW  Elec       q    Type
REMARK                         _______ _______ _______ _____ _____    ______ ____
ROOT
ATOM      4  C   UNL     1      -2.334  -0.915  25.128  0.00  0.00    +0.006 C 
ATOM      5  C   UNL     1      -3.026  -0.466  25.140  0.00  0.00    +0.005 C 
ATOM      6  C   UNL     1      -3.694  -0.728  24.732  0.00  0.00    +0.026 C 
ATOM     18  C   UNL     1      -3.670  -1.439  24.313  0.00  0.00    -0.048 C 
ATOM     19  C   UNL     1      -4.337  -1.701  23.906  0.00  0.00    +0.026 C 
ATOM     20  C   UNL     1      -2.977  -1.887  24.302  0.00  0.00    -0.033 C 
ATOM     21  C   UNL     1      -2.309  -1.625  24.710  0.00  0.00    +0.040 C 
ENDROOT
BRANCH   4   2
ATOM      1  C   UNL     1      -1.574  -0.831  26.336  0.00  0.00    +0.000 C 
ATOM      2  C   UNL     1      -1.666  -0.653  25.536  0.00  0.00    +0.000 C 
ATOM      3  C   UNL     1      -1.089  -0.212  25.143  0.00  0.00    +0.000 C 
ENDBRANCH   4   2
BRANCH  21  22
ATOM     22  C   UNL     1      -1.617  -2.074  24.698  0.00  0.00    +0.114 C 
ATOM     23  N   UNL     1      -1.583  -2.769  24.256  0.00  0.00    -0.131 NA
ENDBRANCH  21  22
BRANCH   6   7
ATOM      7  C   UNL     1      -4.387  -0.280  24.743  0.00  0.00    +0.070 C 
BRANCH   7   8
ATOM      8  C   UNL     1      -4.348   0.543  24.696  0.00  0.00    +0.139 A 
ATOM      9  N   UNL     1      -4.092   0.979  24.045  0.00  0.00    -0.229 NA
ATOM     10  C   UNL     1      -4.144   1.779  24.238  0.00  0.00    +0.100 A 
ATOM     11  C   UNL     1      -4.431   1.837  25.009  0.00  0.00    +0.101 A 
ATOM     12  N   UNL     1      -4.557   1.073  25.293  0.00  0.00    -0.229 NA
ATOM     13  C   UNL     1      -4.540   2.579  25.354  0.00  0.00    +0.032 A 
ATOM     14  C   UNL     1      -4.363   3.262  24.928  0.00  0.00    +0.059 A 
ATOM     15 CL   UNL     1      -4.472   4.003  25.272  0.00  0.00    -0.082 Cl
ATOM     16  C   UNL     1      -4.076   3.204  24.156  0.00  0.00    +0.013 A 
ATOM     17  C   UNL     1      -3.966   2.463  23.811  0.00  0.00    +0.022 A 
ENDBRANCH   7   8
ENDBRANCH   6   7
TORSDOF 4
ENDMDL
MODEL 4
REMARK VINA RESULT:     -11.3      2.268      4.419
REMARK  Name = 
REMARK  4 active torsions:
REMARK  status: ('A' for Active; 'I' for Inactive)
REMARK    1  A    between atoms: C_2  and  C_4
REMARK    2  A    between atoms: C_6  and  C_7
REMARK    3  A    between atoms: C_7  and  C_8
REMARK    4  A    between atoms: C_21  and  C_22
REMARK                            x       y       z     vdW  Elec       q    Type
REMARK                         _______ _______ _______ _____ _____    ______ ____
ROOT
ATOM      4  C   UNL     1      -2.506  -0.166  24.986  0.00  0.00    +0.006 C 
ATOM      5  C   UNL     1      -2.652   0.575  24.655  0.00  0.00    +0.005 C 
ATOM      6  C   UNL     1      -3.429   0.828  24.539  0.00  0.00    +0.026 C 
ATOM     18  C   UNL     1      -4.059   0.339  24.754  0.00  0.00    -0.048 C 
ATOM     19  C   UNL     1      -4.836   0.592  24.638  0.00  0.00    +0.026 C 
ATOM     20  C   UNL     1      -3.911  -0.401  25.086  0.00  0.00    -0.033 C 
ATOM     21  C   UNL     1      -3.134  -0.654  25.202  0.00  0.00    +0.040 C 
ENDROOT
BRANCH   4   2
ATOM      1  C   UNL     1      -1.359  -0.297  25.829  0.00  0.00    +0.000 C 
ATOM      2  C   UNL     1      -1.729  -0.419  25.102  0.00  0.00    +0.000 C 
ATOM      3  C   UNL     1      -1.321  -0.794  24.490  0.00  0.00    +0.000 C 
ENDBRANCH   4   2
BRANCH  21  22
ATOM     22  C   UNL     1      -2.987  -1.395  25.533  0.00  0.00    +0.114 C 
ATOM     23  N   UNL     1      -3.606  -1.930  25.640  0.00  0.00    -0.131 NA
ENDBRANCH  21  22
BRANCH   6   7
ATOM      7  C   UNL     1      -3.577   1.569  24.207  0.00  0.00    +0.070 C 
BRANCH   7   8
ATOM      8  C   UNL     1      -3.200   2.238  24.507  0.00  0.00    +0.139 A 
ATOM      9  N   UNL     1      -3.423   2.660  25.180  0.00  0.00    -0.229 NA
ATOM     10  C   UNL     1      -2.895   3.285  25.275  0.00  0.00    +0.100 A 
ATOM     11  C   UNL     1      -2.345   3.251  24.661  0.00  0.00    +0.101 A 
ATOM     12  N   UNL     1      -2.533   2.604  24.186  0.00  0.00    -0.229 NA
ATOM     13  C   UNL     1      -1.744   3.814  24.614  0.00  0.00    +0.032 A 
ATOM     14  C   UNL     1      -1.692   4.411  25.181  0.00  0.00    +0.059 A 
ATOM     15 CL   UNL     1      -1.091   4.973  25.133  0.00  0.00    -0.082 Cl
ATOM     16  C   UNL     1      -2.241   4.445  25.795  0.00  0.00    +0.013 A 
ATOM     17  C   UNL     1      -2.843   3.883  25.843  0.00  0.00    +0.022 A 
ENDBRANCH   7   8
ENDBRANCH   6   7
TORSDOF 4
ENDMDL
MODEL 5
REMARK VINA RESULT:     -11.1      1.316      2.060
REMARK  Name = 
REMARK  4 active torsions:
REMARK  status: ('A' for Active; 'I' for Inactive)
REMARK    1  A    between atoms: C_2  and  C_4
REMARK    2  A    between atoms: C_6  and  C_7
REMARK    3  A    between atoms: C_7  and  C_8
REMARK    4  A    between atoms: C_21  and  C_22
REMARK                            x       y       z     vdW  Elec       q    Type
REMARK                         _______ _______ _______ _____ _____    ______ ____
ROOT
ATOM      4  C   UNL     1      -2.963   2.633  24.803  0.00  0.00    +0.006 C 
ATOM      5  C   UNL     1      -2.636   1.891  24.651  0.00  0.00    +0.005 C 
ATOM      6  C   UNL     1      -1.889   1.702  24.946  0.00  0.00    +0.026 C 
ATOM     18  C   UNL     1      -1.470   2.255  25.393  0.00  0.00    -0.048 C 
ATOM     19  C   UNL     1      -0.723   2.065  25.688  0.00  0.00    +0.026 C 
ATOM     20  C   UNL     1      -1.798   2.996  25.544  0.00  0.00    -0.033 C 
ATOM     21  C   UNL     1      -2.544   3.186  25.249  0.00  0.00    +0.040 C 
ENDROOT
BRANCH   4   2
ATOM      1  C   UNL     1      -3.790   3.106  23.737  0.00  0.00    +0.000 C 
ATOM      2  C   UNL     1      -3.710   2.823  24.507  0.00  0.00    +0.000 C 
ATOM      3  C   UNL     1      -4.378   2.729  24.983  0.00  0.00    +0.000 C 
ENDBRANCH   4   2
BRANCH  21  22
ATOM     22  C   UNL     1      -2.871   3.928  25.401  0.00  0.00    +0.114 C 
ATOM     23  N   UNL     1      -2.444   4.487  25.830  0.00  0.00    -0.131 NA
ENDBRANCH  21  22
BRANCH   6   7
ATOM      7  C   UNL     1      -1.562   0.960  24.795  0.00  0.00    +0.070 C 
BRANCH   7   8
ATOM      8  C   UNL     1      -2.030   0.283  24.848  0.00  0.00    +0.139 A 
ATOM      9  N   UNL     1      -2.267  -0.089  25.545  0.00  0.00    -0.229 NA
ATOM     10  C   UNL     1      -2.726  -0.743  25.341  0.00  0.00    +0.100 A 
ATOM     11  C   UNL     1      -2.773  -0.775  24.518  0.00  0.00    +0.101 A 
ATOM     12  N   UNL     1      -2.343  -0.141  24.213  0.00  0.00    -0.229 NA
ATOM     13  C   UNL     1      -3.202  -1.378  24.153  0.00  0.00    +0.032 A 
ATOM     14  C   UNL     1      -3.584  -1.948  24.610  0.00  0.00    +0.059 A 
ATOM     15 CL   UNL     1      -4.013  -2.550  24.245  0.00  0.00    -0.082 Cl
ATOM     16  C   UNL     1      -3.537  -1.916  25.433  0.00  0.00    +0.013 A 
ATOM     17  C   UNL     1      -3.109  -1.314  25.799  0.00  0.00    +0.022 A 
ENDBRANCH   7   8
ENDBRANCH   6   7
TORSDOF 4
ENDMDL
