MODEL 1
REMARK VINA RESULT:      -8.3      0.000      0.000
REMARK  Name = 
REMARK  6 active torsions:
REMARK  status: ('A' for Active; 'I' for Inactive)
REMARK    1  A    between atoms: N_2  and  C_4
REMARK    2  A    between atoms: C_7  and  C_8
REMARK    3  A    between atoms: C_8  and  N_9
REMARK    4  A    between atoms: C_18  and  C_19
REMARK    5  A    between atoms: C_19  and  C_20
REMARK    6  A    between atoms: C_20  and  C_21
REMARK                            x       y       z     vdW  Elec       q    Type
REMARK                         _______ _______ _______ _____ _____    ______ ____
ROOT
ATOM      9  N   UNL     1      -1.756   1.747  24.197  0.00  0.00    -0.262 NA
ATOM     10  C   UNL     1      -2.162   1.033  24.127  0.00  0.00    +0.074 C 
ATOM     11  C   UNL     1      -1.618   0.451  23.913  0.00  0.00    +0.035 C 
ATOM     12  C   UNL     1      -0.876   0.807  23.851  0.00  0.00    +0.083 C 
ATOM     13  C   UNL     1      -0.961   1.607  24.027  0.00  0.00    +0.151 C 
ATOM     14  C   UNL     1      -0.383   2.196  24.041  0.00  0.00    +0.257 C 
ATOM     15  O   UNL     1      -0.645   2.952  24.239  0.00  0.00    -0.272 OA
ATOM     16  N   UNL     1       0.424   2.128  23.882  0.00  0.00    -0.203 NA
ATOM     17  C   UNL     1       0.852   1.455  23.671  0.00  0.00    +0.131 C 
ATOM     18  C   UNL     1       0.578   0.684  23.566  0.00  0.00    +0.080 C 
ATOM     32  N   UNL     1      -0.190   0.395  23.645  0.00  0.00    -0.271 NA
ATOM     33  C   UNL     1      -0.287  -0.411  23.501  0.00  0.00    +0.090 C 
ENDROOT
BRANCH   9   8
ATOM      8  C   UNL     1      -2.087   2.475  24.403  0.00  0.00    +0.100 C 
BRANCH   8   7
ATOM      4  C   UNL     1      -4.490   2.626  24.975  0.00  0.00    +0.048 A 
ATOM      5  C   UNL     1      -4.248   2.701  24.190  0.00  0.00    +0.014 A 
ATOM      6  C   UNL     1      -3.447   2.650  23.999  0.00  0.00    -0.002 A 
ATOM      7  C   UNL     1      -2.888   2.525  24.592  0.00  0.00    -0.006 A 
ATOM     34  C   UNL     1      -3.131   2.451  25.379  0.00  0.00    -0.002 A 
ATOM     35  C   UNL     1      -3.932   2.502  25.569  0.00  0.00    +0.014 A 
BRANCH   4   2
ATOM      1  C   UNL     1      -5.778   2.016  25.079  0.00  0.00    +0.112 C 
ATOM      2  N   UNL     1      -5.292   2.677  25.166  0.00  0.00    -0.304 N 
ATOM      3  C   UNL     1      -5.606   3.388  25.443  0.00  0.00    +0.112 C 
ENDBRANCH   4   2
ENDBRANCH   8   7
ENDBRANCH   9   8
BRANCH  18  19
ATOM     19  C   UNL     1       1.149   0.128  23.352  0.00  0.00    +0.027 C 
BRANCH  19  20
ATOM     20  C   UNL     1       1.882   0.378  23.066  0.00  0.00    +0.087 C 
BRANCH  20  21
ATOM     21  C   UNL     1       2.565  -0.042  23.261  0.00  0.00    +0.229 C 
ATOM     22  O   UNL     1       2.506  -0.793  23.597  0.00  0.00    -0.275 OA
ATOM     23  N   UNL     1       3.307   0.289  23.119  0.00  0.00    -0.259 N 
ATOM     24  C   UNL     1       3.452   1.031  22.788  0.00  0.00    +0.103 C 
ATOM     25  C   UNL     1       4.269   1.137  22.748  0.00  0.00    +0.049 C 
ATOM     26  C   UNL     1       4.630   0.461  23.054  0.00  0.00    -0.007 A 
ATOM     27  C   UNL     1       5.422   0.254  23.153  0.00  0.00    -0.003 A 
ATOM     28  C   UNL     1       5.620  -0.476  23.482  0.00  0.00    -0.000 A 
ATOM     29  C   UNL     1       5.026  -1.000  23.712  0.00  0.00    +0.001 A 
ATOM     30  C   UNL     1       4.233  -0.793  23.612  0.00  0.00    +0.015 A 
ATOM     31  C   UNL     1       4.035  -0.063  23.283  0.00  0.00    +0.050 A 
ENDBRANCH  20  21
ENDBRANCH  19  20
ENDBRANCH  18  19
TORSDOF 6
ENDMDL
MODEL 2
REMARK VINA RESULT:      -8.3      1.048      7.312
REMARK  Name = 
REMARK  6 active torsions:
REMARK  status: ('A' for Active; 'I' for Inactive)
REMARK    1  A    between atoms: N_2  and  C_4
REMARK    2  A    between atoms: C_7  and  C_8
REMARK    3  A    between atoms: C_8  and  N_9
REMARK    4  A    between atoms: C_18  and  C_19
REMARK    5  A    between atoms: C_19  and  C_20
REMARK    6  A    between atoms: C_20  and  C_21
REMARK                            x       y       z     vdW  Elec       q    Type
REMARK                         _______ _______ _______ _____ _____    ______ ____
ROOT
ATOM      9  N   UNL     1       1.421   0.770  23.349  0.00  0.00    -0.262 NA
ATOM     10  C   UNL     1       1.698   1.512  23.578  0.00  0.00    +0.074 C 
ATOM     11  C   UNL     1       1.084   1.903  23.966  0.00  0.00    +0.035 C 
ATOM     12  C   UNL     1       0.428   1.403  23.976  0.00  0.00    +0.083 C 
ATOM     13  C   UNL     1       0.636   0.702  23.595  0.00  0.00    +0.151 C 
ATOM     14  C   UNL     1       0.174   0.032  23.462  0.00  0.00    +0.257 C 
ATOM     15  O   UNL     1       0.545  -0.585  23.060  0.00  0.00    -0.272 OA
ATOM     16  N   UNL     1      -0.610  -0.103  23.678  0.00  0.00    -0.203 NA
ATOM     17  C   UNL     1      -1.127   0.398  24.081  0.00  0.00    +0.131 C 
ATOM     18  C   UNL     1      -0.985   1.159  24.366  0.00  0.00    +0.080 C 
ATOM     32  N   UNL     1      -0.294   1.606  24.320  0.00  0.00    -0.271 NA
ATOM     33  C   UNL     1      -0.329   2.356  24.662  0.00  0.00    +0.090 C 
ENDROOT
BRANCH   9   8
ATOM      8  C   UNL     1       1.853   0.195  22.943  0.00  0.00    +0.100 C 
BRANCH   8   7
ATOM      4  C   UNL     1       4.321   0.145  23.120  0.00  0.00    +0.048 A 
ATOM      5  C   UNL     1       3.948   0.769  22.728  0.00  0.00    +0.014 A 
ATOM      6  C   UNL     1       3.126   0.786  22.670  0.00  0.00    -0.002 A 
ATOM      7  C   UNL     1       2.675   0.180  23.002  0.00  0.00    -0.006 A 
ATOM     34  C   UNL     1       3.049  -0.445  23.393  0.00  0.00    -0.002 A 
ATOM     35  C   UNL     1       3.872  -0.461  23.451  0.00  0.00    +0.014 A 
BRANCH   4   2
ATOM      1  C   UNL     1       5.518   0.479  23.825  0.00  0.00    +0.112 C 
ATOM      2  N   UNL     1       5.144   0.129  23.178  0.00  0.00    -0.304 N 
ATOM      3  C   UNL     1       5.593  -0.237  22.590  0.00  0.00    +0.112 C 
ENDBRANCH   4   2
ENDBRANCH   8   7
ENDBRANCH   9   8
BRANCH  18  19
ATOM     19  C   UNL     1      -1.621   1.521  24.749  0.00  0.00    +0.027 C 
BRANCH  19  20
ATOM     20  C   UNL     1      -2.392   1.271  24.595  0.00  0.00    +0.087 C 
BRANCH  20  21
ATOM     21  C   UNL     1      -3.031   1.734  24.836  0.00  0.00    +0.229 C 
ATOM     22  O   UNL     1      -2.907   2.507  25.096  0.00  0.00    -0.275 OA
ATOM     23  N   UNL     1      -3.795   1.422  24.819  0.00  0.00    -0.259 N 
ATOM     24  C   UNL     1      -4.004   0.663  24.574  0.00  0.00    +0.103 C 
ATOM     25  C   UNL     1      -4.822   0.587  24.647  0.00  0.00    +0.049 C 
ATOM     26  C   UNL     1      -5.120   1.300  24.936  0.00  0.00    -0.007 A 
ATOM     27  C   UNL     1      -5.885   1.546  25.117  0.00  0.00    -0.003 A 
ATOM     28  C   UNL     1      -6.018   2.309  25.404  0.00  0.00    -0.000 A 
ATOM     29  C   UNL     1      -5.383   2.825  25.510  0.00  0.00    +0.001 A 
ATOM     30  C   UNL     1      -4.616   2.579  25.329  0.00  0.00    +0.015 A 
ATOM     31  C   UNL     1      -4.485   1.817  25.043  0.00  0.00    +0.050 A 
ENDBRANCH  20  21
ENDBRANCH  19  20
ENDBRANCH  18  19
TORSDOF 6
ENDMDL
MODEL 3
REMARK VINA RESULT:      -7.3     16.083     17.233
REMARK  Name = 
REMARK  6 active torsions:
REMARK  status: ('A' for Active; 'I' for Inactive)
REMARK    1  A    between atoms: N_2  and  C_4
REMARK    2  A    between atoms: C_7  and  C_8
REMARK    3  A    between atoms: C_8  and  N_9
REMARK    4  A    between atoms: C_18  and  C_19
REMARK    5  A    between atoms: C_19  and  C_20
REMARK    6  A    between atoms: C_20  and  C_21
REMARK                            x       y       z     vdW  Elec       q    Type
REMARK                         _______ _______ _______ _____ _____    ______ ____
ROOT
ATOM      9  N   UNL     1      -6.371  -8.816  10.472  0.00  0.00    -0.262 NA
ATOM     10  C   UNL     1      -6.920  -8.556  11.030  0.00  0.00    +0.074 C 
ATOM     11  C   UNL     1      -6.694  -8.853  11.766  0.00  0.00    +0.035 C 
ATOM     12  C   UNL     1      -6.005  -9.296  11.662  0.00  0.00    +0.083 C 
ATOM     13  C   UNL     1      -5.806  -9.274  10.863  0.00  0.00    +0.151 C 
ATOM     14  C   UNL     1      -5.167  -9.630  10.481  0.00  0.00    +0.257 C 
ATOM     15  O   UNL     1      -5.119  -9.503   9.668  0.00  0.00    -0.272 OA
ATOM     16  N   UNL     1      -4.569 -10.096  10.806  0.00  0.00    -0.203 NA
ATOM     17  C   UNL     1      -4.463 -10.322  11.593  0.00  0.00    +0.131 C 
ATOM     18  C   UNL     1      -4.928 -10.136  12.248  0.00  0.00    +0.080 C 
ATOM     32  N   UNL     1      -5.614  -9.680  12.280  0.00  0.00    -0.271 NA
ATOM     33  C   UNL     1      -5.955  -9.597  13.026  0.00  0.00    +0.090 C 
ENDROOT
BRANCH   9   8
ATOM      8  C   UNL     1      -6.385  -8.649   9.665  0.00  0.00    +0.100 C 
BRANCH   8   7
ATOM      4  C   UNL     1      -8.281  -7.390   8.691  0.00  0.00    +0.048 A 
ATOM      5  C   UNL     1      -8.396  -8.157   8.972  0.00  0.00    +0.014 A 
ATOM      6  C   UNL     1      -7.765  -8.577   9.296  0.00  0.00    -0.002 A 
ATOM      7  C   UNL     1      -7.018  -8.230   9.340  0.00  0.00    -0.006 A 
ATOM     34  C   UNL     1      -6.902  -7.462   9.059  0.00  0.00    -0.002 A 
ATOM     35  C   UNL     1      -7.534  -7.042   8.734  0.00  0.00    +0.014 A 
BRANCH   4   2
ATOM      1  C   UNL     1      -8.853  -6.154   8.257  0.00  0.00    +0.112 C 
ATOM      2  N   UNL     1      -8.913  -6.970   8.366  0.00  0.00    -0.304 N 
ATOM      3  C   UNL     1      -9.604  -7.366   8.152  0.00  0.00    +0.112 C 
ENDBRANCH   4   2
ENDBRANCH   8   7
ENDBRANCH   9   8
BRANCH  18  19
ATOM     19  C   UNL     1      -4.673 -10.449  12.967  0.00  0.00    +0.027 C 
BRANCH  19  20
ATOM     20  C   UNL     1      -3.867 -10.557  13.108  0.00  0.00    +0.087 C 
BRANCH  20  21
ATOM     21  C   UNL     1      -3.589 -10.627  13.881  0.00  0.00    +0.229 C 
ATOM     22  O   UNL     1      -4.119 -10.759  14.500  0.00  0.00    -0.275 OA
ATOM     23  N   UNL     1      -2.781 -10.565  14.036  0.00  0.00    -0.259 N 
ATOM     24  C   UNL     1      -2.189 -10.435  13.477  0.00  0.00    +0.103 C 
ATOM     25  C   UNL     1      -1.465 -10.412  13.873  0.00  0.00    +0.049 C 
ATOM     26  C   UNL     1      -1.610 -10.528  14.677  0.00  0.00    -0.007 A 
ATOM     27  C   UNL     1      -1.107 -10.560  15.330  0.00  0.00    -0.003 A 
ATOM     28  C   UNL     1      -1.417 -10.686  16.084  0.00  0.00    -0.000 A 
ATOM     29  C   UNL     1      -2.230 -10.781  16.185  0.00  0.00    +0.001 A 
ATOM     30  C   UNL     1      -2.734 -10.750  15.532  0.00  0.00    +0.015 A 
ATOM     31  C   UNL     1      -2.423 -10.623  14.778  0.00  0.00    +0.050 A 
ENDBRANCH  20  21
ENDBRANCH  19  20
ENDBRANCH  18  19
TORSDOF 6
ENDMDL
MODEL 4
REMARK VINA RESULT:      -7.0     15.441     17.427
REMARK  Name = 
REMARK  6 active torsions:
REMARK  status: ('A' for Active; 'I' for Inactive)
REMARK    1  A    between atoms: N_2  and  C_4
REMARK    2  A    between atoms: C_7  and  C_8
REMARK    3  A    between atoms: C_8  and  N_9
REMARK    4  A    between atoms: C_18  and  C_19
REMARK    5  A    between atoms: C_19  and  C_20
REMARK    6  A    between atoms: C_20  and  C_21
REMARK                            x       y       z     vdW  Elec       q    Type
REMARK                         _______ _______ _______ _____ _____    ______ ____
ROOT
ATOM      9  N   UNL     1      -5.939 -10.210  13.362  0.00  0.00    -0.262 NA
ATOM     10  C   UNL     1      -5.219 -10.072  13.738  0.00  0.00    +0.074 C 
ATOM     11  C   UNL     1      -5.356 -10.050  14.551  0.00  0.00    +0.035 C 
ATOM     12  C   UNL     1      -6.162 -10.174  14.676  0.00  0.00    +0.083 C 
ATOM     13  C   UNL     1      -6.523 -10.273  13.942  0.00  0.00    +0.151 C 
ATOM     14  C   UNL     1      -7.318 -10.411  13.773  0.00  0.00    +0.257 C 
ATOM     15  O   UNL     1      -7.508 -10.485  12.974  0.00  0.00    -0.272 OA
ATOM     16  N   UNL     1      -7.950 -10.485  14.298  0.00  0.00    -0.203 NA
ATOM     17  C   UNL     1      -7.942 -10.439  15.122  0.00  0.00    +0.131 C 
ATOM     18  C   UNL     1      -7.300 -10.307  15.623  0.00  0.00    +0.080 C 
ATOM     32  N   UNL     1      -6.509 -10.190  15.426  0.00  0.00    -0.271 NA
ATOM     33  C   UNL     1      -5.995 -10.072  16.060  0.00  0.00    +0.090 C 
ENDROOT
BRANCH   9   8
ATOM      8  C   UNL     1      -6.056 -10.273  12.547  0.00  0.00    +0.100 C 
BRANCH   8   7
ATOM      4  C   UNL     1      -4.176  -9.870  10.989  0.00  0.00    +0.048 A 
ATOM      5  C   UNL     1      -4.698  -9.257  11.173  0.00  0.00    +0.014 A 
ATOM      6  C   UNL     1      -5.325  -9.391  11.692  0.00  0.00    -0.002 A 
ATOM      7  C   UNL     1      -5.430 -10.137  12.028  0.00  0.00    -0.006 A 
ATOM     34  C   UNL     1      -4.908 -10.750  11.844  0.00  0.00    -0.002 A 
ATOM     35  C   UNL     1      -4.281 -10.615  11.324  0.00  0.00    +0.014 A 
BRANCH   4   2
ATOM      1  C   UNL     1      -3.669  -9.795   9.655  0.00  0.00    +0.112 C 
ATOM      2  N   UNL     1      -3.549  -9.735  10.469  0.00  0.00    -0.304 N 
ATOM      3  C   UNL     1      -2.804  -9.540  10.763  0.00  0.00    +0.112 C 
ENDBRANCH   4   2
ENDBRANCH   8   7
ENDBRANCH   9   8
BRANCH  18  19
ATOM     19  C   UNL     1      -7.474 -10.292  16.429  0.00  0.00    +0.027 C 
BRANCH  19  20
ATOM     20  C   UNL     1      -8.232 -10.086  16.684  0.00  0.00    +0.087 C 
BRANCH  20  21
ATOM     21  C   UNL     1      -8.484 -10.298  17.441  0.00  0.00    +0.229 C 
ATOM     22  O   UNL     1      -8.010 -10.779  17.914  0.00  0.00    -0.275 OA
ATOM     23  N   UNL     1      -9.210 -10.027  17.725  0.00  0.00    -0.259 N 
ATOM     24  C   UNL     1      -9.740  -9.544  17.317  0.00  0.00    +0.103 C 
ATOM     25  C   UNL     1     -10.391  -9.411  17.806  0.00  0.00    +0.049 C 
ATOM     26  C   UNL     1     -10.263  -9.811  18.516  0.00  0.00    -0.007 A 
ATOM     27  C   UNL     1     -10.717  -9.878  19.201  0.00  0.00    -0.003 A 
ATOM     28  C   UNL     1     -10.441 -10.326  19.837  0.00  0.00    -0.000 A 
ATOM     29  C   UNL     1      -9.711 -10.707  19.787  0.00  0.00    +0.001 A 
ATOM     30  C   UNL     1      -9.256 -10.640  19.101  0.00  0.00    +0.015 A 
ATOM     31  C   UNL     1      -9.533 -10.192  18.466  0.00  0.00    +0.050 A 
ENDBRANCH  20  21
ENDBRANCH  19  20
ENDBRANCH  18  19
TORSDOF 6
ENDMDL
MODEL 5
REMARK VINA RESULT:      -6.5     14.712     17.296
REMARK  Name = 
REMARK  6 active torsions:
REMARK  status: ('A' for Active; 'I' for Inactive)
REMARK    1  A    between atoms: N_2  and  C_4
REMARK    2  A    between atoms: C_7  and  C_8
REMARK    3  A    between atoms: C_8  and  N_9
REMARK    4  A    between atoms: C_18  and  C_19
REMARK    5  A    between atoms: C_19  and  C_20
REMARK    6  A    between atoms: C_20  and  C_21
REMARK                            x       y       z     vdW  Elec       q    Type
REMARK                         _______ _______ _______ _____ _____    ______ ____
ROOT
ATOM      9  N   UNL     1      12.782  -5.798  32.052  0.00  0.00    -0.262 NA
ATOM     10  C   UNL     1      13.275  -6.310  31.635  0.00  0.00    +0.074 C 
ATOM     11  C   UNL     1      12.874  -7.024  31.534  0.00  0.00    +0.035 C 
ATOM     12  C   UNL     1      12.133  -6.952  31.889  0.00  0.00    +0.083 C 
ATOM     13  C   UNL     1      12.076  -6.195  32.210  0.00  0.00    +0.151 C 
ATOM     14  C   UNL     1      11.446  -5.855  32.620  0.00  0.00    +0.257 C 
ATOM     15  O   UNL     1      11.560  -5.079  32.873  0.00  0.00    -0.272 OA
ATOM     16  N   UNL     1      10.717  -6.191  32.812  0.00  0.00    -0.203 NA
ATOM     17  C   UNL     1      10.437  -6.948  32.640  0.00  0.00    +0.131 C 
ATOM     18  C   UNL     1      10.819  -7.556  32.233  0.00  0.00    +0.080 C 
ATOM     32  N   UNL     1      11.573  -7.558  31.900  0.00  0.00    -0.271 NA
ATOM     33  C   UNL     1      11.797  -8.259  31.527  0.00  0.00    +0.090 C 
ENDROOT
BRANCH   9   8
ATOM      8  C   UNL     1      12.964  -5.024  32.274  0.00  0.00    +0.100 C 
BRANCH   8   7
ATOM      4  C   UNL     1      15.293  -4.203  32.117  0.00  0.00    +0.048 A 
ATOM      5  C   UNL     1      15.025  -4.550  32.816  0.00  0.00    +0.014 A 
ATOM      6  C   UNL     1      14.249  -4.824  32.869  0.00  0.00    -0.002 A 
ATOM      7  C   UNL     1      13.740  -4.751  32.223  0.00  0.00    -0.006 A 
ATOM     34  C   UNL     1      14.009  -4.403  31.524  0.00  0.00    -0.002 A 
ATOM     35  C   UNL     1      14.786  -4.129  31.472  0.00  0.00    +0.014 A 
BRANCH   4   2
ATOM      1  C   UNL     1      16.230  -3.124  32.157  0.00  0.00    +0.112 C 
ATOM      2  N   UNL     1      16.070  -3.929  32.065  0.00  0.00    -0.304 N 
ATOM      3  C   UNL     1      16.686  -4.459  31.922  0.00  0.00    +0.112 C 
ENDBRANCH   4   2
ENDBRANCH   8   7
ENDBRANCH   9   8
BRANCH  18  19
ATOM     19  C   UNL     1      10.388  -8.255  32.151  0.00  0.00    +0.027 C 
BRANCH  19  20
ATOM     20  C   UNL     1       9.565  -8.230  32.106  0.00  0.00    +0.087 C 
BRANCH  20  21
ATOM     21  C   UNL     1       9.142  -8.907  31.899  0.00  0.00    +0.229 C 
ATOM     22  O   UNL     1       9.486  -9.652  31.988  0.00  0.00    -0.275 OA
ATOM     23  N   UNL     1       8.375  -8.840  31.601  0.00  0.00    -0.259 N 
ATOM     24  C   UNL     1       7.962  -8.136  31.482  0.00  0.00    +0.103 C 
ATOM     25  C   UNL     1       7.218  -8.326  31.178  0.00  0.00    +0.049 C 
ATOM     26  C   UNL     1       7.173  -9.147  31.110  0.00  0.00    -0.007 A 
ATOM     27  C   UNL     1       6.573  -9.646  30.843  0.00  0.00    -0.003 A 
ATOM     28  C   UNL     1       6.687 -10.464  30.838  0.00  0.00    -0.000 A 
ATOM     29  C   UNL     1       7.403 -10.781  31.099  0.00  0.00    +0.001 A 
ATOM     30  C   UNL     1       8.003 -10.282  31.366  0.00  0.00    +0.015 A 
ATOM     31  C   UNL     1       7.888  -9.465  31.371  0.00  0.00    +0.050 A 
ENDBRANCH  20  21
ENDBRANCH  19  20
ENDBRANCH  18  19
TORSDOF 6
ENDMDL
MODEL 6
REMARK VINA RESULT:      -6.3     17.842     18.823
REMARK  Name = 
REMARK  6 active torsions:
REMARK  status: ('A' for Active; 'I' for Inactive)
REMARK    1  A    between atoms: N_2  and  C_4
REMARK    2  A    between atoms: C_7  and  C_8
REMARK    3  A    between atoms: C_8  and  N_9
REMARK    4  A    between atoms: C_18  and  C_19
REMARK    5  A    between atoms: C_19  and  C_20
REMARK    6  A    between atoms: C_20  and  C_21
REMARK                            x       y       z     vdW  Elec       q    Type
REMARK                         _______ _______ _______ _____ _____    ______ ____
ROOT
ATOM      9  N   UNL     1      16.052  -4.494  30.685  0.00  0.00    -0.262 NA
ATOM     10  C   UNL     1      16.876  -4.493  30.652  0.00  0.00    +0.074 C 
ATOM     11  C   UNL     1      17.115  -5.171  30.247  0.00  0.00    +0.035 C 
ATOM     12  C   UNL     1      16.438  -5.590  30.030  0.00  0.00    +0.083 C 
ATOM     13  C   UNL     1      15.781  -5.172  30.300  0.00  0.00    +0.151 C 
ATOM     14  C   UNL     1      14.982  -5.361  30.221  0.00  0.00    +0.257 C 
ATOM     15  O   UNL     1      14.452  -4.825  30.556  0.00  0.00    -0.272 OA
ATOM     16  N   UNL     1      14.643  -6.016  29.853  0.00  0.00    -0.203 NA
ATOM     17  C   UNL     1      15.019  -6.644  29.471  0.00  0.00    +0.131 C 
ATOM     18  C   UNL     1      15.827  -6.771  29.365  0.00  0.00    +0.080 C 
ATOM     32  N   UNL     1      16.459  -6.302  29.613  0.00  0.00    -0.271 NA
ATOM     33  C   UNL     1      17.210  -6.582  29.419  0.00  0.00    +0.090 C 
ENDROOT
BRANCH   9   8
ATOM      8  C   UNL     1      15.581  -3.917  31.040  0.00  0.00    +0.100 C 
BRANCH   8   7
ATOM      4  C   UNL     1      16.575  -1.762  31.740  0.00  0.00    +0.048 A 
ATOM      5  C   UNL     1      16.448  -2.357  32.297  0.00  0.00    +0.014 A 
ATOM      6  C   UNL     1      16.117  -3.076  32.064  0.00  0.00    -0.002 A 
ATOM      7  C   UNL     1      15.912  -3.199  31.275  0.00  0.00    -0.006 A 
ATOM     34  C   UNL     1      16.039  -2.603  30.717  0.00  0.00    -0.002 A 
ATOM     35  C   UNL     1      16.371  -1.884  30.951  0.00  0.00    +0.014 A 
BRANCH   4   2
ATOM      1  C   UNL     1      16.740  -0.736  32.722  0.00  0.00    +0.112 C 
ATOM      2  N   UNL     1      16.907  -1.043  31.974  0.00  0.00    -0.304 N 
ATOM      3  C   UNL     1      17.404  -0.631  31.460  0.00  0.00    +0.112 C 
ENDBRANCH   4   2
ENDBRANCH   8   7
ENDBRANCH   9   8
BRANCH  18  19
ATOM     19  C   UNL     1      16.030  -7.458  28.956  0.00  0.00    +0.027 C 
BRANCH  19  20
ATOM     20  C   UNL     1      15.655  -7.640  28.243  0.00  0.00    +0.087 C 
BRANCH  20  21
ATOM     21  C   UNL     1      15.744  -8.390  27.911  0.00  0.00    +0.229 C 
ATOM     22  O   UNL     1      15.913  -9.038  28.394  0.00  0.00    -0.275 OA
ATOM     23  N   UNL     1      15.663  -8.493  27.096  0.00  0.00    -0.259 N 
ATOM     24  C   UNL     1      15.495  -7.900  26.548  0.00  0.00    +0.103 C 
ATOM     25  C   UNL     1      15.463  -8.247  25.800  0.00  0.00    +0.049 C 
ATOM     26  C   UNL     1      15.612  -9.054  25.886  0.00  0.00    -0.007 A 
ATOM     27  C   UNL     1      15.652  -9.670  25.339  0.00  0.00    -0.003 A 
ATOM     28  C   UNL     1      15.814 -10.438  25.593  0.00  0.00    -0.000 A 
ATOM     29  C   UNL     1      15.937 -10.590  26.394  0.00  0.00    +0.001 A 
ATOM     30  C   UNL     1      15.898  -9.973  26.942  0.00  0.00    +0.015 A 
ATOM     31  C   UNL     1      15.736  -9.206  26.688  0.00  0.00    +0.050 A 
ENDBRANCH  20  21
ENDBRANCH  19  20
ENDBRANCH  18  19
TORSDOF 6
ENDMDL
MODEL 7
REMARK VINA RESULT:      -6.2     16.775     18.156
REMARK  Name = 
REMARK  6 active torsions:
REMARK  status: ('A' for Active; 'I' for Inactive)
REMARK    1  A    between atoms: N_2  and  C_4
REMARK    2  A    between atoms: C_7  and  C_8
REMARK    3  A    between atoms: C_8  and  N_9
REMARK    4  A    between atoms: C_18  and  C_19
REMARK    5  A    between atoms: C_19  and  C_20
REMARK    6  A    between atoms: C_20  and  C_21
REMARK                            x       y       z     vdW  Elec       q    Type
REMARK                         _______ _______ _______ _____ _____    ______ ____
ROOT
ATOM      9  N   UNL     1      14.797  -4.418  31.437  0.00  0.00    -0.262 NA
ATOM     10  C   UNL     1      14.462  -4.034  32.085  0.00  0.00    +0.074 C 
ATOM     11  C   UNL     1      13.771  -4.435  32.289  0.00  0.00    +0.035 C 
ATOM     12  C   UNL     1      13.680  -5.068  31.767  0.00  0.00    +0.083 C 
ATOM     13  C   UNL     1      14.314  -5.057  31.241  0.00  0.00    +0.151 C 
ATOM     14  C   UNL     1      14.474  -5.573  30.617  0.00  0.00    +0.257 C 
ATOM     15  O   UNL     1      15.160  -5.414  30.187  0.00  0.00    -0.272 OA
ATOM     16  N   UNL     1      14.038  -6.227  30.366  0.00  0.00    -0.203 NA
ATOM     17  C   UNL     1      13.335  -6.527  30.677  0.00  0.00    +0.131 C 
ATOM     18  C   UNL     1      12.895  -6.246  31.315  0.00  0.00    +0.080 C 
ATOM     32  N   UNL     1      13.048  -5.598  31.801  0.00  0.00    -0.271 NA
ATOM     33  C   UNL     1      12.496  -5.459  32.398  0.00  0.00    +0.090 C 
ENDROOT
BRANCH   9   8
ATOM      8  C   UNL     1      15.495  -4.201  31.053  0.00  0.00    +0.100 C 
BRANCH   8   7
ATOM      4  C   UNL     1      16.658  -2.108  31.680  0.00  0.00    +0.048 A 
ATOM      5  C   UNL     1      16.753  -2.787  32.140  0.00  0.00    +0.014 A 
ATOM      6  C   UNL     1      16.365  -3.484  31.932  0.00  0.00    -0.002 A 
ATOM      7  C   UNL     1      15.883  -3.504  31.263  0.00  0.00    -0.006 A 
ATOM     34  C   UNL     1      15.788  -2.825  30.802  0.00  0.00    -0.002 A 
ATOM     35  C   UNL     1      16.176  -2.127  31.011  0.00  0.00    +0.014 A 
BRANCH   4   2
ATOM      1  C   UNL     1      17.348  -0.916  31.303  0.00  0.00    +0.112 C 
ATOM      2  N   UNL     1      17.046  -1.411  31.889  0.00  0.00    -0.304 N 
ATOM      3  C   UNL     1      17.131  -1.208  32.685  0.00  0.00    +0.112 C 
ENDBRANCH   4   2
ENDBRANCH   8   7
ENDBRANCH   9   8
BRANCH  18  19
ATOM     19  C   UNL     1      12.210  -6.672  31.492  0.00  0.00    +0.027 C 
BRANCH  19  20
ATOM     20  C   UNL     1      12.181  -7.484  31.349  0.00  0.00    +0.087 C 
BRANCH  20  21
ATOM     21  C   UNL     1      11.526  -7.922  31.593  0.00  0.00    +0.229 C 
ATOM     22  O   UNL     1      10.833  -7.536  31.820  0.00  0.00    -0.275 OA
ATOM     23  N   UNL     1      11.564  -8.746  31.611  0.00  0.00    -0.259 N 
ATOM     24  C   UNL     1      12.216  -9.206  31.401  0.00  0.00    +0.103 C 
ATOM     25  C   UNL     1      12.011  -9.999  31.501  0.00  0.00    +0.049 C 
ATOM     26  C   UNL     1      11.233 -10.029  31.773  0.00  0.00    -0.007 A 
ATOM     27  C   UNL     1      10.740 -10.661  31.968  0.00  0.00    -0.003 A 
ATOM     28  C   UNL     1       9.971 -10.520  32.230  0.00  0.00    -0.000 A 
ATOM     29  C   UNL     1       9.694  -9.746  32.297  0.00  0.00    +0.001 A 
ATOM     30  C   UNL     1      10.187  -9.113  32.103  0.00  0.00    +0.015 A 
ATOM     31  C   UNL     1      10.956  -9.255  31.841  0.00  0.00    +0.050 A 
ENDBRANCH  20  21
ENDBRANCH  19  20
ENDBRANCH  18  19
TORSDOF 6
ENDMDL
MODEL 8
REMARK VINA RESULT:      -6.2     14.586     17.573
REMARK  Name = 
REMARK  6 active torsions:
REMARK  status: ('A' for Active; 'I' for Inactive)
REMARK    1  A    between atoms: N_2  and  C_4
REMARK    2  A    between atoms: C_7  and  C_8
REMARK    3  A    between atoms: C_8  and  N_9
REMARK    4  A    between atoms: C_18  and  C_19
REMARK    5  A    between atoms: C_19  and  C_20
REMARK    6  A    between atoms: C_20  and  C_21
REMARK                            x       y       z     vdW  Elec       q    Type
REMARK                         _______ _______ _______ _____ _____    ______ ____
ROOT
ATOM      9  N   UNL     1      13.321  -7.159  30.844  0.00  0.00    -0.262 NA
ATOM     10  C   UNL     1      13.253  -6.355  31.014  0.00  0.00    +0.074 C 
ATOM     11  C   UNL     1      12.537  -6.238  31.407  0.00  0.00    +0.035 C 
ATOM     12  C   UNL     1      12.164  -6.971  31.480  0.00  0.00    +0.083 C 
ATOM     13  C   UNL     1      12.648  -7.540  31.132  0.00  0.00    +0.151 C 
ATOM     14  C   UNL     1      12.521  -8.352  31.062  0.00  0.00    +0.257 C 
ATOM     15  O   UNL     1      13.115  -8.777  30.681  0.00  0.00    -0.272 OA
ATOM     16  N   UNL     1      11.876  -8.795  31.324  0.00  0.00    -0.203 NA
ATOM     17  C   UNL     1      11.200  -8.536  31.721  0.00  0.00    +0.131 C 
ATOM     18  C   UNL     1      11.003  -7.770  31.952  0.00  0.00    +0.080 C 
ATOM     32  N   UNL     1      11.431  -7.073  31.845  0.00  0.00    -0.271 NA
ATOM     33  C   UNL     1      11.081  -6.388  32.143  0.00  0.00    +0.090 C 
ENDROOT
BRANCH   9   8
ATOM      8  C   UNL     1      13.953  -7.520  30.454  0.00  0.00    +0.100 C 
BRANCH   8   7
ATOM      4  C   UNL     1      15.805  -6.145  29.556  0.00  0.00    +0.048 A 
ATOM      5  C   UNL     1      15.828  -6.408  30.338  0.00  0.00    +0.014 A 
ATOM      6  C   UNL     1      15.211  -6.866  30.638  0.00  0.00    -0.002 A 
ATOM      7  C   UNL     1      14.570  -7.062  30.156  0.00  0.00    -0.006 A 
ATOM     34  C   UNL     1      14.548  -6.799  29.373  0.00  0.00    -0.002 A 
ATOM     35  C   UNL     1      15.165  -6.340  29.074  0.00  0.00    +0.014 A 
BRANCH   4   2
ATOM      1  C   UNL     1      16.913  -5.991  28.668  0.00  0.00    +0.112 C 
ATOM      2  N   UNL     1      16.423  -5.687  29.258  0.00  0.00    -0.304 N 
ATOM      3  C   UNL     1      16.550  -4.925  29.548  0.00  0.00    +0.112 C 
ENDBRANCH   4   2
ENDBRANCH   8   7
ENDBRANCH   9   8
BRANCH  18  19
ATOM     19  C   UNL     1      10.281  -7.690  32.343  0.00  0.00    +0.027 C 
BRANCH  19  20
ATOM     20  C   UNL     1       9.641  -8.165  32.129  0.00  0.00    +0.087 C 
BRANCH  20  21
ATOM     21  C   UNL     1       8.876  -7.952  32.353  0.00  0.00    +0.229 C 
ATOM     22  O   UNL     1       8.758  -7.323  32.873  0.00  0.00    -0.275 OA
ATOM     23  N   UNL     1       8.228  -8.369  32.057  0.00  0.00    -0.259 N 
ATOM     24  C   UNL     1       8.260  -9.007  31.535  0.00  0.00    +0.103 C 
ATOM     25  C   UNL     1       7.486  -9.253  31.386  0.00  0.00    +0.049 C 
ATOM     26  C   UNL     1       6.977  -8.766  31.815  0.00  0.00    -0.007 A 
ATOM     27  C   UNL     1       6.155  -8.750  31.883  0.00  0.00    -0.003 A 
ATOM     28  C   UNL     1       5.791  -8.188  32.364  0.00  0.00    -0.000 A 
ATOM     29  C   UNL     1       6.249  -7.642  32.779  0.00  0.00    +0.001 A 
ATOM     30  C   UNL     1       7.072  -7.658  32.712  0.00  0.00    +0.015 A 
ATOM     31  C   UNL     1       7.435  -8.220  32.230  0.00  0.00    +0.050 A 
ENDBRANCH  20  21
ENDBRANCH  19  20
ENDBRANCH  18  19
TORSDOF 6
ENDMDL
MODEL 9
REMARK VINA RESULT:      -5.8     15.218     17.240
REMARK  Name = 
REMARK  6 active torsions:
REMARK  status: ('A' for Active; 'I' for Inactive)
REMARK    1  A    between atoms: N_2  and  C_4
REMARK    2  A    between atoms: C_7  and  C_8
REMARK    3  A    between atoms: C_8  and  N_9
REMARK    4  A    between atoms: C_18  and  C_19
REMARK    5  A    between atoms: C_19  and  C_20
REMARK    6  A    between atoms: C_20  and  C_21
REMARK                            x       y       z     vdW  Elec       q    Type
REMARK                         _______ _______ _______ _____ _____    ______ ____
ROOT
ATOM      9  N   UNL     1      -4.035 -10.656  13.240  0.00  0.00    -0.262 NA
ATOM     10  C   UNL     1      -3.483 -10.582  13.847  0.00  0.00    +0.074 C 
ATOM     11  C   UNL     1      -3.895 -10.524  14.560  0.00  0.00    +0.035 C 
ATOM     12  C   UNL     1      -4.702 -10.562  14.392  0.00  0.00    +0.083 C 
ATOM     13  C   UNL     1      -4.789 -10.643  13.576  0.00  0.00    +0.151 C 
ATOM     14  C   UNL     1      -5.484 -10.705  13.136  0.00  0.00    +0.257 C 
ATOM     15  O   UNL     1      -5.387 -10.781  12.321  0.00  0.00    -0.272 OA
ATOM     16  N   UNL     1      -6.264 -10.700  13.404  0.00  0.00    -0.203 NA
ATOM     17  C   UNL     1      -6.542 -10.632  14.178  0.00  0.00    +0.131 C 
ATOM     18  C   UNL     1      -6.108 -10.553  14.874  0.00  0.00    +0.080 C 
ATOM     32  N   UNL     1      -5.289 -10.522  14.970  0.00  0.00    -0.271 NA
ATOM     33  C   UNL     1      -5.022 -10.439  15.746  0.00  0.00    +0.090 C 
ENDROOT
BRANCH   9   8
ATOM      8  C   UNL     1      -3.865 -10.729  12.436  0.00  0.00    +0.100 C 
BRANCH   8   7
ATOM      4  C   UNL     1      -1.851  -9.644  11.491  0.00  0.00    +0.048 A 
ATOM      5  C   UNL     1      -1.777 -10.339  11.930  0.00  0.00    +0.014 A 
ATOM      6  C   UNL     1      -2.448 -10.701  12.245  0.00  0.00    -0.002 A 
ATOM      7  C   UNL     1      -3.193 -10.369  12.121  0.00  0.00    -0.006 A 
ATOM     34  C   UNL     1      -3.266  -9.673  11.682  0.00  0.00    -0.002 A 
ATOM     35  C   UNL     1      -2.594  -9.312  11.367  0.00  0.00    +0.014 A 
BRANCH   4   2
ATOM      1  C   UNL     1      -0.512  -9.171  11.649  0.00  0.00    +0.112 C 
ATOM      2  N   UNL     1      -1.179  -9.283  11.176  0.00  0.00    -0.304 N 
ATOM      3  C   UNL     1      -1.174  -9.034  10.389  0.00  0.00    +0.112 C 
ENDBRANCH   4   2
ENDBRANCH   8   7
ENDBRANCH   9   8
BRANCH  18  19
ATOM     19  C   UNL     1      -6.551 -10.497  15.568  0.00  0.00    +0.027 C 
BRANCH  19  20
ATOM     20  C   UNL     1      -7.304 -10.158  15.550  0.00  0.00    +0.087 C 
BRANCH  20  21
ATOM     21  C   UNL     1      -7.751 -10.113  16.242  0.00  0.00    +0.229 C 
ATOM     22  O   UNL     1      -7.529 -10.548  16.907  0.00  0.00    -0.275 OA
ATOM     23  N   UNL     1      -8.422  -9.632  16.269  0.00  0.00    -0.259 N 
ATOM     24  C   UNL     1      -8.710  -9.168  15.651  0.00  0.00    +0.103 C 
ATOM     25  C   UNL     1      -9.388  -8.780  15.918  0.00  0.00    +0.049 C 
ATOM     26  C   UNL     1      -9.518  -9.005  16.701  0.00  0.00    -0.007 A 
ATOM     27  C   UNL     1     -10.103  -8.799  17.245  0.00  0.00    -0.003 A 
ATOM     28  C   UNL     1     -10.091  -9.119  18.005  0.00  0.00    -0.000 A 
ATOM     29  C   UNL     1      -9.494  -9.645  18.222  0.00  0.00    +0.001 A 
ATOM     30  C   UNL     1      -8.909  -9.852  17.678  0.00  0.00    +0.015 A 
ATOM     31  C   UNL     1      -8.921  -9.532  16.918  0.00  0.00    +0.050 A 
ENDBRANCH  20  21
ENDBRANCH  19  20
ENDBRANCH  18  19
TORSDOF 6
ENDMDL
