MODEL 1
REMARK VINA RESULT:     -12.8      0.000      0.000
REMARK  Name = 
REMARK  8 active torsions:
REMARK  status: ('A' for Active; 'I' for Inactive)
REMARK    1  A    between atoms: C_5  and  C_6
REMARK    2  A    between atoms: C_6  and  N_7
REMARK    3  A    between atoms: N_7  and  C_8
REMARK    4  A    between atoms: C_13  and  C_14
REMARK    5  A    between atoms: C_14  and  C_15
REMARK    6  A    between atoms: C_15  and  C_16
REMARK    7  A    between atoms: N_18  and  C_19
REMARK    8  A    between atoms: C_19  and  C_20
REMARK                            x       y       z     vdW  Elec       q    Type
REMARK                         _______ _______ _______ _____ _____    ______ ____
ROOT
ATOM      8  C   UNL     1      -1.351   0.259  24.726  0.00  0.00    +0.091 C 
ATOM      9  C   UNL     1      -0.610   0.384  24.384  0.00  0.00    +0.044 C 
ATOM     10  C   UNL     1      -0.390   1.165  24.530  0.00  0.00    +0.138 C 
ATOM     11  N   UNL     1      -0.995   1.524  24.962  0.00  0.00    -0.265 NA
ATOM     12  C   UNL     1      -1.589   0.964  25.083  0.00  0.00    +0.090 C 
ATOM     13  C   UNL     1      -0.926   2.314  25.189  0.00  0.00    +0.080 C 
ATOM     27  C   UNL     1      -0.254   2.745  24.985  0.00  0.00    +0.131 C 
ATOM     28  N   UNL     1       0.350   2.387  24.553  0.00  0.00    -0.203 NA
ATOM     29  C   UNL     1       0.283   1.597  24.326  0.00  0.00    +0.256 C 
ATOM     30  O   UNL     1       0.887   1.238  23.894  0.00  0.00    -0.272 OA
ENDROOT
BRANCH   8   7
ATOM      7  N   UNL     1      -1.778  -0.446  24.712  0.00  0.00    -0.213 NA
BRANCH   7   6
ATOM      6  C   UNL     1      -2.589  -0.441  24.866  0.00  0.00    +0.115 C 
BRANCH   6   5
ATOM      1  F   UNL     1      -4.456  -3.003  23.950  0.00  0.00    -0.204 F 
ATOM      2  C   UNL     1      -3.989  -2.363  24.180  0.00  0.00    +0.140 A 
ATOM      3  C   UNL     1      -3.322  -2.486  24.649  0.00  0.00    +0.029 A 
ATOM      4  C   UNL     1      -2.855  -1.845  24.878  0.00  0.00    -0.001 A 
ATOM      5  C   UNL     1      -3.055  -1.082  24.637  0.00  0.00    -0.005 A 
ATOM     31  C   UNL     1      -3.722  -0.960  24.168  0.00  0.00    -0.001 A 
ATOM     32  C   UNL     1      -4.189  -1.600  23.938  0.00  0.00    +0.029 A 
ENDBRANCH   6   5
ENDBRANCH   7   6
ENDBRANCH   8   7
BRANCH  13  14
ATOM     14  C   UNL     1      -1.531   2.672  25.621  0.00  0.00    +0.027 C 
BRANCH  14  15
ATOM     15  C   UNL     1      -1.846   3.392  25.369  0.00  0.00    +0.088 C 
BRANCH  15  16
ATOM     16  C   UNL     1      -2.596   3.626  25.625  0.00  0.00    +0.242 C 
ATOM     17  O   UNL     1      -2.671   4.198  26.214  0.00  0.00    -0.273 OA
ATOM     18  N   UNL     1      -3.269   3.287  25.290  0.00  0.00    -0.201 NA
BRANCH  18  19
ATOM     19  C   UNL     1      -4.018   3.521  25.545  0.00  0.00    +0.141 C 
BRANCH  19  20
ATOM     20  C   UNL     1      -4.674   3.044  25.391  0.00  0.00    -0.000 A 
ATOM     21  C   UNL     1      -4.755   2.681  24.655  0.00  0.00    -0.000 A 
ATOM     22  C   UNL     1      -5.411   2.204  24.501  0.00  0.00    +0.029 A 
ATOM     23  C   UNL     1      -5.984   2.090  25.083  0.00  0.00    +0.140 A 
ATOM     24  F   UNL     1      -6.639   1.613  24.929  0.00  0.00    -0.204 F 
ATOM     25  C   UNL     1      -5.902   2.453  25.819  0.00  0.00    +0.029 A 
ATOM     26  C   UNL     1      -5.247   2.930  25.973  0.00  0.00    -0.000 A 
ENDBRANCH  19  20
ENDBRANCH  18  19
ENDBRANCH  15  16
ENDBRANCH  14  15
ENDBRANCH  13  14
TORSDOF 8
ENDMDL
MODEL 2
REMARK VINA RESULT:     -12.4      2.499      5.886
REMARK  Name = 
REMARK  8 active torsions:
REMARK  status: ('A' for Active; 'I' for Inactive)
REMARK    1  A    between atoms: C_5  and  C_6
REMARK    2  A    between atoms: C_6  and  N_7
REMARK    3  A    between atoms: N_7  and  C_8
REMARK    4  A    between atoms: C_13  and  C_14
REMARK    5  A    between atoms: C_14  and  C_15
REMARK    6  A    between atoms: C_15  and  C_16
REMARK    7  A    between atoms: N_18  and  C_19
REMARK    8  A    between atoms: C_19  and  C_20
REMARK                            x       y       z     vdW  Elec       q    Type
REMARK                         _______ _______ _______ _____ _____    ______ ____
ROOT
ATOM      8  C   UNL     1      -3.931   3.249  25.046  0.00  0.00    +0.091 C 
ATOM      9  C   UNL     1      -4.635   3.433  25.435  0.00  0.00    +0.044 C 
ATOM     10  C   UNL     1      -5.103   2.754  25.449  0.00  0.00    +0.138 C 
ATOM     11  N   UNL     1      -4.688   2.151  25.068  0.00  0.00    -0.265 NA
ATOM     12  C   UNL     1      -3.964   2.457  24.819  0.00  0.00    +0.090 C 
ATOM     13  C   UNL     1      -5.025   1.401  24.998  0.00  0.00    +0.080 C 
ATOM     27  C   UNL     1      -5.775   1.254  25.308  0.00  0.00    +0.131 C 
ATOM     28  N   UNL     1      -6.189   1.857  25.688  0.00  0.00    -0.203 NA
ATOM     29  C   UNL     1      -5.854   2.607  25.759  0.00  0.00    +0.256 C 
ATOM     30  O   UNL     1      -6.268   3.210  26.140  0.00  0.00    -0.272 OA
ENDROOT
BRANCH   8   7
ATOM      7  N   UNL     1      -3.304   3.767  24.908  0.00  0.00    -0.213 NA
BRANCH   7   6
ATOM      6  C   UNL     1      -2.673   3.803  25.438  0.00  0.00    +0.115 C 
BRANCH   6   5
ATOM      1  F   UNL     1       0.042   5.508  24.658  0.00  0.00    -0.204 F 
ATOM      2  C   UNL     1      -0.637   5.082  24.853  0.00  0.00    +0.140 A 
ATOM      3  C   UNL     1      -1.334   5.481  25.040  0.00  0.00    +0.029 A 
ATOM      4  C   UNL     1      -2.013   5.054  25.235  0.00  0.00    -0.001 A 
ATOM      5  C   UNL     1      -1.994   4.230  25.243  0.00  0.00    -0.005 A 
ATOM     31  C   UNL     1      -1.297   3.831  25.056  0.00  0.00    -0.001 A 
ATOM     32  C   UNL     1      -0.618   4.257  24.861  0.00  0.00    +0.029 A 
ENDBRANCH   6   5
ENDBRANCH   7   6
ENDBRANCH   8   7
BRANCH  13  14
ATOM     14  C   UNL     1      -4.610   0.798  24.617  0.00  0.00    +0.027 C 
BRANCH  14  15
ATOM     15  C   UNL     1      -4.590   0.041  24.945  0.00  0.00    +0.088 C 
BRANCH  15  16
ATOM     16  C   UNL     1      -4.142  -0.553  24.586  0.00  0.00    +0.242 C 
ATOM     17  O   UNL     1      -4.431  -0.941  23.919  0.00  0.00    -0.273 OA
ATOM     18  N   UNL     1      -3.405  -0.757  24.895  0.00  0.00    -0.201 NA
BRANCH  18  19
ATOM     19  C   UNL     1      -2.958  -1.350  24.536  0.00  0.00    +0.141 C 
BRANCH  19  20
ATOM     20  C   UNL     1      -2.185  -1.492  24.788  0.00  0.00    -0.000 A 
ATOM     21  C   UNL     1      -1.775  -0.913  25.209  0.00  0.00    -0.000 A 
ATOM     22  C   UNL     1      -1.002  -1.055  25.460  0.00  0.00    +0.029 A 
ATOM     23  C   UNL     1      -0.639  -1.776  25.290  0.00  0.00    +0.140 A 
ATOM     24  F   UNL     1       0.134  -1.918  25.541  0.00  0.00    -0.204 F 
ATOM     25  C   UNL     1      -1.049  -2.355  24.869  0.00  0.00    +0.029 A 
ATOM     26  C   UNL     1      -1.821  -2.213  24.617  0.00  0.00    -0.000 A 
ENDBRANCH  19  20
ENDBRANCH  18  19
ENDBRANCH  15  16
ENDBRANCH  14  15
ENDBRANCH  13  14
TORSDOF 8
ENDMDL
MODEL 3
REMARK VINA RESULT:     -12.3      0.975      4.088
REMARK  Name = 
REMARK  8 active torsions:
REMARK  status: ('A' for Active; 'I' for Inactive)
REMARK    1  A    between atoms: C_5  and  C_6
REMARK    2  A    between atoms: C_6  and  N_7
REMARK    3  A    between atoms: N_7  and  C_8
REMARK    4  A    between atoms: C_13  and  C_14
REMARK    5  A    between atoms: C_14  and  C_15
REMARK    6  A    between atoms: C_15  and  C_16
REMARK    7  A    between atoms: N_18  and  C_19
REMARK    8  A    between atoms: C_19  and  C_20
REMARK                            x       y       z     vdW  Elec       q    Type
REMARK                         _______ _______ _______ _____ _____    ______ ____
ROOT
ATOM      8  C   UNL     1      -2.357   2.753  25.060  0.00  0.00    +0.091 C 
ATOM      9  C   UNL     1      -1.773   3.226  24.720  0.00  0.00    +0.044 C 
ATOM     10  C   UNL     1      -1.083   2.777  24.663  0.00  0.00    +0.138 C 
ATOM     11  N   UNL     1      -1.241   2.026  24.968  0.00  0.00    -0.265 NA
ATOM     12  C   UNL     1      -2.029   2.012  25.213  0.00  0.00    +0.090 C 
ATOM     13  C   UNL     1      -0.647   1.454  24.982  0.00  0.00    +0.080 C 
ATOM     27  C   UNL     1       0.104   1.631  24.692  0.00  0.00    +0.131 C 
ATOM     28  N   UNL     1       0.262   2.381  24.387  0.00  0.00    -0.203 NA
ATOM     29  C   UNL     1      -0.331   2.954  24.372  0.00  0.00    +0.256 C 
ATOM     30  O   UNL     1      -0.174   3.704  24.068  0.00  0.00    -0.272 OA
ENDROOT
BRANCH   8   7
ATOM      7  N   UNL     1      -3.133   2.982  25.219  0.00  0.00    -0.213 NA
BRANCH   7   6
ATOM      6  C   UNL     1      -3.727   2.845  24.663  0.00  0.00    +0.115 C 
BRANCH   6   5
ATOM      1  F   UNL     1      -6.774   2.063  25.658  0.00  0.00    -0.204 F 
ATOM      2  C   UNL     1      -6.013   2.259  25.409  0.00  0.00    +0.140 A 
ATOM      3  C   UNL     1      -5.653   2.949  25.684  0.00  0.00    +0.029 A 
ATOM      4  C   UNL     1      -4.891   3.144  25.435  0.00  0.00    -0.001 A 
ATOM      5  C   UNL     1      -4.489   2.650  24.912  0.00  0.00    -0.005 A 
ATOM     31  C   UNL     1      -4.848   1.960  24.636  0.00  0.00    -0.001 A 
ATOM     32  C   UNL     1      -5.610   1.764  24.885  0.00  0.00    +0.029 A 
ENDBRANCH   6   5
ENDBRANCH   7   6
ENDBRANCH   8   7
BRANCH  13  14
ATOM     14  C   UNL     1      -0.806   0.704  25.287  0.00  0.00    +0.027 C 
BRANCH  14  15
ATOM     15  C   UNL     1      -0.659   0.033  24.829  0.00  0.00    +0.088 C 
BRANCH  15  16
ATOM     16  C   UNL     1      -0.988  -0.693  25.043  0.00  0.00    +0.242 C 
ATOM     17  O   UNL     1      -0.607  -1.171  25.595  0.00  0.00    -0.273 OA
ATOM     18  N   UNL     1      -1.699  -0.939  24.704  0.00  0.00    -0.201 NA
BRANCH  18  19
ATOM     19  C   UNL     1      -2.027  -1.664  24.919  0.00  0.00    +0.141 C 
BRANCH  19  20
ATOM     20  C   UNL     1      -2.753  -1.898  24.601  0.00  0.00    -0.000 A 
ATOM     21  C   UNL     1      -2.906  -2.698  24.469  0.00  0.00    -0.000 A 
ATOM     22  C   UNL     1      -3.631  -2.932  24.151  0.00  0.00    +0.029 A 
ATOM     23  C   UNL     1      -4.203  -2.366  23.967  0.00  0.00    +0.140 A 
ATOM     24  F   UNL     1      -4.927  -2.600  23.650  0.00  0.00    -0.204 F 
ATOM     25  C   UNL     1      -4.048  -1.566  24.100  0.00  0.00    +0.029 A 
ATOM     26  C   UNL     1      -3.324  -1.333  24.417  0.00  0.00    -0.000 A 
ENDBRANCH  19  20
ENDBRANCH  18  19
ENDBRANCH  15  16
ENDBRANCH  14  15
ENDBRANCH  13  14
TORSDOF 8
ENDMDL
MODEL 4
REMARK VINA RESULT:     -12.3      1.578      4.012
REMARK  Name = 
REMARK  8 active torsions:
REMARK  status: ('A' for Active; 'I' for Inactive)
REMARK    1  A    between atoms: C_5  and  C_6
REMARK    2  A    between atoms: C_6  and  N_7
REMARK    3  A    between atoms: N_7  and  C_8
REMARK    4  A    between atoms: C_13  and  C_14
REMARK    5  A    between atoms: C_14  and  C_15
REMARK    6  A    between atoms: C_15  and  C_16
REMARK    7  A    between atoms: N_18  and  C_19
REMARK    8  A    between atoms: C_19  and  C_20
REMARK                            x       y       z     vdW  Elec       q    Type
REMARK                         _______ _______ _______ _____ _____    ______ ____
ROOT
ATOM      8  C   UNL     1      -4.676   1.088  24.957  0.00  0.00    +0.091 C 
ATOM      9  C   UNL     1      -5.289   1.486  25.342  0.00  0.00    +0.044 C 
ATOM     10  C   UNL     1      -5.072   2.278  25.414  0.00  0.00    +0.138 C 
ATOM     11  N   UNL     1      -4.326   2.371  25.073  0.00  0.00    -0.265 NA
ATOM     12  C   UNL     1      -4.082   1.635  24.790  0.00  0.00    +0.090 C 
ATOM     13  C   UNL     1      -3.967   3.113  25.063  0.00  0.00    +0.080 C 
ATOM     27  C   UNL     1      -4.352   3.763  25.395  0.00  0.00    +0.131 C 
ATOM     28  N   UNL     1      -5.097   3.670  25.736  0.00  0.00    -0.203 NA
ATOM     29  C   UNL     1      -5.458   2.928  25.745  0.00  0.00    +0.256 C 
ATOM     30  O   UNL     1      -6.203   2.835  26.086  0.00  0.00    -0.272 OA
ENDROOT
BRANCH   8   7
ATOM      7  N   UNL     1      -4.662   0.285  24.771  0.00  0.00    -0.213 NA
BRANCH   7   6
ATOM      6  C   UNL     1      -3.945  -0.089  24.606  0.00  0.00    +0.115 C 
BRANCH   6   5
ATOM      1  F   UNL     1      -3.826  -3.374  24.318  0.00  0.00    -0.204 F 
ATOM      2  C   UNL     1      -3.856  -2.553  24.390  0.00  0.00    +0.140 A 
ATOM      3  C   UNL     1      -4.230  -2.101  23.809  0.00  0.00    +0.029 A 
ATOM      4  C   UNL     1      -4.259  -1.280  23.882  0.00  0.00    -0.001 A 
ATOM      5  C   UNL     1      -3.916  -0.910  24.533  0.00  0.00    -0.005 A 
ATOM     31  C   UNL     1      -3.542  -1.362  25.114  0.00  0.00    -0.001 A 
ATOM     32  C   UNL     1      -3.512  -2.183  25.043  0.00  0.00    +0.029 A 
ENDBRANCH   6   5
ENDBRANCH   7   6
ENDBRANCH   8   7
BRANCH  13  14
ATOM     14  C   UNL     1      -3.221   3.205  24.722  0.00  0.00    +0.027 C 
BRANCH  14  15
ATOM     15  C   UNL     1      -2.585   3.458  25.184  0.00  0.00    +0.088 C 
BRANCH  15  16
ATOM     16  C   UNL     1      -1.812   3.285  24.952  0.00  0.00    +0.242 C 
ATOM     17  O   UNL     1      -1.309   3.891  24.708  0.00  0.00    -0.273 OA
ATOM     18  N   UNL     1      -1.543   2.506  24.964  0.00  0.00    -0.201 NA
BRANCH  18  19
ATOM     19  C   UNL     1      -0.771   2.333  24.732  0.00  0.00    +0.141 C 
BRANCH  19  20
ATOM     20  C   UNL     1      -0.554   1.554  24.567  0.00  0.00    -0.000 A 
ATOM     21  C   UNL     1      -0.547   0.992  25.170  0.00  0.00    -0.000 A 
ATOM     22  C   UNL     1      -0.330   0.212  25.005  0.00  0.00    +0.029 A 
ATOM     23  C   UNL     1      -0.122  -0.004  24.237  0.00  0.00    +0.140 A 
ATOM     24  F   UNL     1       0.094  -0.783  24.072  0.00  0.00    -0.204 F 
ATOM     25  C   UNL     1      -0.130   0.559  23.634  0.00  0.00    +0.029 A 
ATOM     26  C   UNL     1      -0.346   1.337  23.798  0.00  0.00    -0.000 A 
ENDBRANCH  19  20
ENDBRANCH  18  19
ENDBRANCH  15  16
ENDBRANCH  14  15
ENDBRANCH  13  14
TORSDOF 8
ENDMDL
MODEL 5
REMARK VINA RESULT:     -12.2      1.917      4.123
REMARK  Name = 
REMARK  8 active torsions:
REMARK  status: ('A' for Active; 'I' for Inactive)
REMARK    1  A    between atoms: C_5  and  C_6
REMARK    2  A    between atoms: C_6  and  N_7
REMARK    3  A    between atoms: N_7  and  C_8
REMARK    4  A    between atoms: C_13  and  C_14
REMARK    5  A    between atoms: C_14  and  C_15
REMARK    6  A    between atoms: C_15  and  C_16
REMARK    7  A    between atoms: N_18  and  C_19
REMARK    8  A    between atoms: C_19  and  C_20
REMARK                            x       y       z     vdW  Elec       q    Type
REMARK                         _______ _______ _______ _____ _____    ______ ____
ROOT
ATOM      8  C   UNL     1      -0.600   1.540  24.575  0.00  0.00    +0.091 C 
ATOM      9  C   UNL     1      -0.057   1.048  24.194  0.00  0.00    +0.044 C 
ATOM     10  C   UNL     1      -0.340   0.275  24.237  0.00  0.00    +0.138 C 
ATOM     11  N   UNL     1      -1.059   0.288  24.644  0.00  0.00    -0.265 NA
ATOM     12  C   UNL     1      -1.218   1.070  24.852  0.00  0.00    +0.090 C 
ATOM     13  C   UNL     1      -1.473  -0.414  24.771  0.00  0.00    +0.080 C 
ATOM     27  C   UNL     1      -1.170  -1.129  24.491  0.00  0.00    +0.131 C 
ATOM     28  N   UNL     1      -0.453  -1.142  24.085  0.00  0.00    -0.203 NA
ATOM     29  C   UNL     1      -0.037  -0.440  23.957  0.00  0.00    +0.256 C 
ATOM     30  O   UNL     1       0.680  -0.453  23.551  0.00  0.00    -0.272 OA
ENDROOT
BRANCH   8   7
ATOM      7  N   UNL     1      -0.535   2.357  24.662  0.00  0.00    -0.213 NA
BRANCH   7   6
ATOM      6  C   UNL     1      -0.916   2.738  25.287  0.00  0.00    +0.115 C 
BRANCH   6   5
ATOM      1  F   UNL     1      -1.574   5.966  25.097  0.00  0.00    -0.204 F 
ATOM      2  C   UNL     1      -1.409   5.159  25.145  0.00  0.00    +0.140 A 
ATOM      3  C   UNL     1      -0.696   4.865  24.850  0.00  0.00    +0.029 A 
ATOM      4  C   UNL     1      -0.532   4.058  24.898  0.00  0.00    -0.001 A 
ATOM      5  C   UNL     1      -1.080   3.545  25.239  0.00  0.00    -0.005 A 
ATOM     31  C   UNL     1      -1.792   3.839  25.534  0.00  0.00    -0.001 A 
ATOM     32  C   UNL     1      -1.957   4.646  25.487  0.00  0.00    +0.029 A 
ENDBRANCH   6   5
ENDBRANCH   7   6
ENDBRANCH   8   7
BRANCH  13  14
ATOM     14  C   UNL     1      -2.191  -0.400  25.177  0.00  0.00    +0.027 C 
BRANCH  14  15
ATOM     15  C   UNL     1      -2.878  -0.669  24.808  0.00  0.00    +0.088 C 
BRANCH  15  16
ATOM     16  C   UNL     1      -3.618  -0.465  25.114  0.00  0.00    +0.242 C 
ATOM     17  O   UNL     1      -4.003  -0.973  25.636  0.00  0.00    -0.273 OA
ATOM     18  N   UNL     1      -3.970   0.248  24.896  0.00  0.00    -0.201 NA
BRANCH  18  19
ATOM     19  C   UNL     1      -4.709   0.452  25.202  0.00  0.00    +0.141 C 
BRANCH  19  20
ATOM     20  C   UNL     1      -4.953   1.241  25.197  0.00  0.00    -0.000 A 
ATOM     21  C   UNL     1      -5.437   1.525  25.801  0.00  0.00    -0.000 A 
ATOM     22  C   UNL     1      -5.682   2.314  25.796  0.00  0.00    +0.029 A 
ATOM     23  C   UNL     1      -5.443   2.816  25.188  0.00  0.00    +0.140 A 
ATOM     24  F   UNL     1      -5.687   3.604  25.183  0.00  0.00    -0.204 F 
ATOM     25  C   UNL     1      -4.958   2.530  24.584  0.00  0.00    +0.029 A 
ATOM     26  C   UNL     1      -4.714   1.743  24.588  0.00  0.00    -0.000 A 
ENDBRANCH  19  20
ENDBRANCH  18  19
ENDBRANCH  15  16
ENDBRANCH  14  15
ENDBRANCH  13  14
TORSDOF 8
ENDMDL
MODEL 6
REMARK VINA RESULT:     -12.1      1.948      4.599
REMARK  Name = 
REMARK  8 active torsions:
REMARK  status: ('A' for Active; 'I' for Inactive)
REMARK    1  A    between atoms: C_5  and  C_6
REMARK    2  A    between atoms: C_6  and  N_7
REMARK    3  A    between atoms: N_7  and  C_8
REMARK    4  A    between atoms: C_13  and  C_14
REMARK    5  A    between atoms: C_14  and  C_15
REMARK    6  A    between atoms: C_15  and  C_16
REMARK    7  A    between atoms: N_18  and  C_19
REMARK    8  A    between atoms: C_19  and  C_20
REMARK                            x       y       z     vdW  Elec       q    Type
REMARK                         _______ _______ _______ _____ _____    ______ ____
ROOT
ATOM      8  C   UNL     1      -3.836  -0.267  24.918  0.00  0.00    +0.091 C 
ATOM      9  C   UNL     1      -3.937  -1.066  25.101  0.00  0.00    +0.044 C 
ATOM     10  C   UNL     1      -3.232  -1.457  24.927  0.00  0.00    +0.138 C 
ATOM     11  N   UNL     1      -2.695  -0.900  24.637  0.00  0.00    -0.265 NA
ATOM     12  C   UNL     1      -3.070  -0.165  24.632  0.00  0.00    +0.090 C 
ATOM     13  C   UNL     1      -1.936  -1.135  24.416  0.00  0.00    +0.080 C 
ATOM     27  C   UNL     1      -1.713  -1.926  24.484  0.00  0.00    +0.131 C 
ATOM     28  N   UNL     1      -2.248  -2.482  24.773  0.00  0.00    -0.203 NA
ATOM     29  C   UNL     1      -3.008  -2.248  24.995  0.00  0.00    +0.256 C 
ATOM     30  O   UNL     1      -3.544  -2.804  25.284  0.00  0.00    -0.272 OA
ENDROOT
BRANCH   8   7
ATOM      7  N   UNL     1      -4.404   0.325  25.007  0.00  0.00    -0.213 NA
BRANCH   7   6
ATOM      6  C   UNL     1      -4.310   1.048  24.622  0.00  0.00    +0.115 C 
BRANCH   6   5
ATOM      1  F   UNL     1      -5.864   3.732  25.751  0.00  0.00    -0.204 F 
ATOM      2  C   UNL     1      -5.476   3.061  25.469  0.00  0.00    +0.140 A 
ATOM      3  C   UNL     1      -5.892   2.356  25.366  0.00  0.00    +0.029 A 
ATOM      4  C   UNL     1      -5.503   1.685  25.084  0.00  0.00    -0.001 A 
ATOM      5  C   UNL     1      -4.700   1.719  24.904  0.00  0.00    -0.005 A 
ATOM     31  C   UNL     1      -4.283   2.424  25.007  0.00  0.00    -0.001 A 
ATOM     32  C   UNL     1      -4.671   3.095  25.289  0.00  0.00    +0.029 A 
ENDBRANCH   6   5
ENDBRANCH   7   6
ENDBRANCH   8   7
BRANCH  13  14
ATOM     14  C   UNL     1      -1.401  -0.578  24.127  0.00  0.00    +0.027 C 
BRANCH  14  15
ATOM     15  C   UNL     1      -0.699  -0.430  24.536  0.00  0.00    +0.088 C 
BRANCH  15  16
ATOM     16  C   UNL     1      -0.261   0.250  24.370  0.00  0.00    +0.242 C 
ATOM     17  O   UNL     1       0.350   0.223  23.819  0.00  0.00    -0.273 OA
ATOM     18  N   UNL     1      -0.437   0.957  24.758  0.00  0.00    -0.201 NA
BRANCH  18  19
ATOM     19  C   UNL     1       0.001   1.636  24.592  0.00  0.00    +0.141 C 
BRANCH  19  20
ATOM     20  C   UNL     1      -0.285   2.377  24.820  0.00  0.00    -0.000 A 
ATOM     21  C   UNL     1      -0.381   2.553  25.620  0.00  0.00    -0.000 A 
ATOM     22  C   UNL     1      -0.667   3.293  25.848  0.00  0.00    +0.029 A 
ATOM     23  C   UNL     1      -0.857   3.856  25.275  0.00  0.00    +0.140 A 
ATOM     24  F   UNL     1      -1.143   4.595  25.503  0.00  0.00    -0.204 F 
ATOM     25  C   UNL     1      -0.761   3.678  24.475  0.00  0.00    +0.029 A 
ATOM     26  C   UNL     1      -0.475   2.939  24.247  0.00  0.00    -0.000 A 
ENDBRANCH  19  20
ENDBRANCH  18  19
ENDBRANCH  15  16
ENDBRANCH  14  15
ENDBRANCH  13  14
TORSDOF 8
ENDMDL
