MODEL 1
REMARK VINA RESULT:      -7.9      0.000      0.000
REMARK  Name = 
REMARK  6 active torsions:
REMARK  status: ('A' for Active; 'I' for Inactive)
REMARK    1  A    between atoms: O_2  and  C_3
REMARK    2  A    between atoms: C_10  and  C_12
REMARK    3  A    between atoms: C_17  and  C_19
REMARK    4  A    between atoms: C_19  and  O_20
REMARK    5  A    between atoms: O_20  and  C_21
REMARK    6  A    between atoms: C_21  and  C_22
REMARK                            x       y       z     vdW  Elec       q    Type
REMARK                         _______ _______ _______ _____ _____    ______ ____
ROOT
ATOM     12  C   UNL     1      -2.544   0.950  24.488  0.00  0.00    +0.080 C 
ATOM     13  C   UNL     1      -2.400   0.140  24.424  0.00  0.00    +0.031 C 
ATOM     14  C   UNL     1      -1.614   0.040  24.193  0.00  0.00    +0.094 C 
ATOM     15  N   UNL     1      -1.274   0.787  24.115  0.00  0.00    -0.277 N 
ATOM     16  C   UNL     1      -1.848   1.350  24.297  0.00  0.00    +0.101 C 
ATOM     17  C   UNL     1      -0.494   0.944  23.893  0.00  0.00    +0.256 C 
ATOM     18  O   UNL     1      -0.230   1.724  23.838  0.00  0.00    -0.272 OA
ENDROOT
BRANCH  12  10
ATOM      3  C   UNL     1      -5.398   2.774  25.544  0.00  0.00    +0.140 A 
ATOM      4  C   UNL     1      -4.576   2.809  25.483  0.00  0.00    +0.058 A 
ATOM      5  C   UNL     1      -4.159   2.171  25.168  0.00  0.00    +0.103 A 
ATOM      6  C   UNL     1      -4.563   1.498  24.914  0.00  0.00    +0.100 A 
ATOM      7  C   UNL     1      -5.385   1.463  24.976  0.00  0.00    +0.024 A 
ATOM      8  C   UNL     1      -5.803   2.102  25.291  0.00  0.00    +0.039 A 
ATOM      9  N   UNL     1      -4.008   0.960  24.629  0.00  0.00    -0.229 NA
ATOM     10  C   UNL     1      -3.260   1.299  24.706  0.00  0.00    +0.140 A 
ATOM     11  N   UNL     1      -3.353   2.048  25.039  0.00  0.00    -0.229 NA
BRANCH   3   2
ATOM      1  C   UNL     1      -5.736   4.162  25.524  0.00  0.00    +0.252 C 
ATOM      2  O   UNL     1      -5.815   3.412  25.859  0.00  0.00    -0.471 OA
ENDBRANCH   3   2
ENDBRANCH  12  10
BRANCH  17  19
ATOM     19  C   UNL     1       0.020   0.321  23.726  0.00  0.00    +0.228 C 
BRANCH  19  20
ATOM     20  O   UNL     1       0.692   0.454  23.264  0.00  0.00    -0.333 OA
BRANCH  20  21
ATOM     21  C   UNL     1       1.177  -0.179  23.053  0.00  0.00    +0.257 C 
BRANCH  21  22
ATOM     22  C   UNL     1       1.765  -0.074  22.483  0.00  0.00    +0.394 C 
ATOM     23  O   UNL     1       2.494   0.248  22.698  0.00  0.00    -0.243 OA
ATOM     24  O   UNL     1       1.623  -0.290  21.700  0.00  0.00    -0.243 OA
ENDBRANCH  21  22
ENDBRANCH  20  21
ENDBRANCH  19  20
ENDBRANCH  17  19
TORSDOF 6
ENDMDL
MODEL 2
REMARK VINA RESULT:      -7.6      2.801      4.517
REMARK  Name = 
REMARK  6 active torsions:
REMARK  status: ('A' for Active; 'I' for Inactive)
REMARK    1  A    between atoms: O_2  and  C_3
REMARK    2  A    between atoms: C_10  and  C_12
REMARK    3  A    between atoms: C_17  and  C_19
REMARK    4  A    between atoms: C_19  and  O_20
REMARK    5  A    between atoms: O_20  and  C_21
REMARK    6  A    between atoms: C_21  and  C_22
REMARK                            x       y       z     vdW  Elec       q    Type
REMARK                         _______ _______ _______ _____ _____    ______ ____
ROOT
ATOM     12  C   UNL     1      -3.271   1.083  24.757  0.00  0.00    +0.080 C 
ATOM     13  C   UNL     1      -3.803   1.711  24.695  0.00  0.00    +0.031 C 
ATOM     14  C   UNL     1      -3.394   2.407  24.866  0.00  0.00    +0.094 C 
ATOM     15  N   UNL     1      -2.612   2.209  25.034  0.00  0.00    -0.277 N 
ATOM     16  C   UNL     1      -2.535   1.390  24.967  0.00  0.00    +0.101 C 
ATOM     17  C   UNL     1      -2.010   2.737  25.235  0.00  0.00    +0.256 C 
ATOM     18  O   UNL     1      -1.249   2.457  25.389  0.00  0.00    -0.272 OA
ENDROOT
BRANCH  12  10
ATOM      3  C   UNL     1      -3.771  -2.423  24.534  0.00  0.00    +0.140 A 
ATOM      4  C   UNL     1      -3.373  -1.837  24.956  0.00  0.00    +0.058 A 
ATOM      5  C   UNL     1      -3.468  -1.044  24.752  0.00  0.00    +0.103 A 
ATOM      6  C   UNL     1      -3.962  -0.836  24.125  0.00  0.00    +0.100 A 
ATOM      7  C   UNL     1      -4.361  -1.422  23.702  0.00  0.00    +0.024 A 
ATOM      8  C   UNL     1      -4.265  -2.216  23.907  0.00  0.00    +0.039 A 
ATOM      9  N   UNL     1      -3.948  -0.015  24.051  0.00  0.00    -0.229 NA
ATOM     10  C   UNL     1      -3.446   0.286  24.632  0.00  0.00    +0.140 A 
ATOM     11  N   UNL     1      -3.149  -0.350  25.065  0.00  0.00    -0.229 NA
BRANCH   3   2
ATOM      1  C   UNL     1      -3.006  -3.629  24.488  0.00  0.00    +0.252 C 
ATOM      2  O   UNL     1      -3.675  -3.216  24.739  0.00  0.00    -0.471 OA
ENDBRANCH   3   2
ENDBRANCH  12  10
BRANCH  17  19
ATOM     19  C   UNL     1      -2.169   3.545  25.281  0.00  0.00    +0.228 C 
BRANCH  19  20
ATOM     20  O   UNL     1      -1.566   4.093  25.144  0.00  0.00    -0.333 OA
BRANCH  20  21
ATOM     21  C   UNL     1      -1.664   4.878  25.375  0.00  0.00    +0.257 C 
BRANCH  21  22
ATOM     22  C   UNL     1      -1.235   5.474  24.999  0.00  0.00    +0.394 C 
ATOM     23  O   UNL     1      -0.458   5.331  24.756  0.00  0.00    -0.243 OA
ATOM     24  O   UNL     1      -1.580   6.211  24.866  0.00  0.00    -0.243 OA
ENDBRANCH  21  22
ENDBRANCH  20  21
ENDBRANCH  19  20
ENDBRANCH  17  19
TORSDOF 6
ENDMDL
MODEL 3
REMARK VINA RESULT:      -7.5      1.193      1.822
REMARK  Name = 
REMARK  6 active torsions:
REMARK  status: ('A' for Active; 'I' for Inactive)
REMARK    1  A    between atoms: O_2  and  C_3
REMARK    2  A    between atoms: C_10  and  C_12
REMARK    3  A    between atoms: C_17  and  C_19
REMARK    4  A    between atoms: C_19  and  O_20
REMARK    5  A    between atoms: O_20  and  C_21
REMARK    6  A    between atoms: C_21  and  C_22
REMARK                            x       y       z     vdW  Elec       q    Type
REMARK                         _______ _______ _______ _____ _____    ______ ____
ROOT
ATOM     12  C   UNL     1      -1.098   1.141  24.202  0.00  0.00    +0.080 C 
ATOM     13  C   UNL     1      -0.588   1.730  24.475  0.00  0.00    +0.031 C 
ATOM     14  C   UNL     1       0.171   1.555  24.203  0.00  0.00    +0.094 C 
ATOM     15  N   UNL     1       0.130   0.858  23.764  0.00  0.00    -0.277 N 
ATOM     16  C   UNL     1      -0.654   0.602  23.763  0.00  0.00    +0.101 C 
ATOM     17  C   UNL     1       0.763   0.482  23.390  0.00  0.00    +0.256 C 
ATOM     18  O   UNL     1       0.638  -0.215  22.967  0.00  0.00    -0.272 OA
ENDROOT
BRANCH  12  10
ATOM      3  C   UNL     1      -4.608   1.348  24.677  0.00  0.00    +0.140 A 
ATOM      4  C   UNL     1      -3.949   1.773  24.420  0.00  0.00    +0.058 A 
ATOM      5  C   UNL     1      -3.203   1.422  24.430  0.00  0.00    +0.103 A 
ATOM      6  C   UNL     1      -3.115   0.646  24.698  0.00  0.00    +0.100 A 
ATOM      7  C   UNL     1      -3.774   0.222  24.955  0.00  0.00    +0.024 A 
ATOM      8  C   UNL     1      -4.521   0.573  24.944  0.00  0.00    +0.039 A 
ATOM      9  N   UNL     1      -2.317   0.447  24.645  0.00  0.00    -0.229 NA
ATOM     10  C   UNL     1      -1.910   1.099  24.345  0.00  0.00    +0.140 A 
ATOM     11  N   UNL     1      -2.458   1.701  24.212  0.00  0.00    -0.229 NA
BRANCH   3   2
ATOM      1  C   UNL     1      -5.693   1.968  25.369  0.00  0.00    +0.252 C 
ATOM      2  O   UNL     1      -5.354   1.700  24.666  0.00  0.00    -0.471 OA
ENDBRANCH   3   2
ENDBRANCH  12  10
BRANCH  17  19
ATOM     19  C   UNL     1       1.521   0.805  23.439  0.00  0.00    +0.228 C 
BRANCH  19  20
ATOM     20  O   UNL     1       2.133   0.489  22.985  0.00  0.00    -0.333 OA
BRANCH  20  21
ATOM     21  C   UNL     1       2.885   0.828  23.014  0.00  0.00    +0.257 C 
BRANCH  21  22
ATOM     22  C   UNL     1       3.510   0.479  22.605  0.00  0.00    +0.394 C 
ATOM     23  O   UNL     1       4.068   0.028  23.013  0.00  0.00    -0.243 OA
ATOM     24  O   UNL     1       3.578   0.579  21.789  0.00  0.00    -0.243 OA
ENDBRANCH  21  22
ENDBRANCH  20  21
ENDBRANCH  19  20
ENDBRANCH  17  19
TORSDOF 6
ENDMDL
MODEL 4
REMARK VINA RESULT:      -7.5      0.883      1.392
REMARK  Name = 
REMARK  6 active torsions:
REMARK  status: ('A' for Active; 'I' for Inactive)
REMARK    1  A    between atoms: O_2  and  C_3
REMARK    2  A    between atoms: C_10  and  C_12
REMARK    3  A    between atoms: C_17  and  C_19
REMARK    4  A    between atoms: C_19  and  O_20
REMARK    5  A    between atoms: O_20  and  C_21
REMARK    6  A    between atoms: C_21  and  C_22
REMARK                            x       y       z     vdW  Elec       q    Type
REMARK                         _______ _______ _______ _____ _____    ______ ____
ROOT
ATOM     12  C   UNL     1      -1.709   1.899  24.449  0.00  0.00    +0.080 C 
ATOM     13  C   UNL     1      -1.024   2.359  24.482  0.00  0.00    +0.031 C 
ATOM     14  C   UNL     1      -0.390   1.887  24.243  0.00  0.00    +0.094 C 
ATOM     15  N   UNL     1      -0.684   1.138  24.063  0.00  0.00    -0.277 N 
ATOM     16  C   UNL     1      -1.498   1.145  24.190  0.00  0.00    +0.101 C 
ATOM     17  C   UNL     1      -0.239   0.493  23.802  0.00  0.00    +0.256 C 
ATOM     18  O   UNL     1      -0.611  -0.227  23.643  0.00  0.00    -0.272 OA
ENDROOT
BRANCH  12  10
ATOM      3  C   UNL     1      -5.110   2.605  25.172  0.00  0.00    +0.140 A 
ATOM      4  C   UNL     1      -4.598   2.015  24.905  0.00  0.00    +0.058 A 
ATOM      5  C   UNL     1      -3.791   2.168  24.838  0.00  0.00    +0.103 A 
ATOM      6  C   UNL     1      -3.494   2.912  25.037  0.00  0.00    +0.100 A 
ATOM      7  C   UNL     1      -4.005   3.502  25.303  0.00  0.00    +0.024 A 
ATOM      8  C   UNL     1      -4.814   3.349  25.370  0.00  0.00    +0.039 A 
ATOM      9  N   UNL     1      -2.679   2.901  24.915  0.00  0.00    -0.229 NA
ATOM     10  C   UNL     1      -2.471   2.152  24.641  0.00  0.00    +0.140 A 
ATOM     11  N   UNL     1      -3.158   1.698  24.594  0.00  0.00    -0.229 NA
BRANCH   3   2
ATOM      1  C   UNL     1      -6.212   2.085  25.917  0.00  0.00    +0.252 C 
ATOM      2  O   UNL     1      -5.917   2.452  25.239  0.00  0.00    -0.471 OA
ENDBRANCH   3   2
ENDBRANCH  12  10
BRANCH  17  19
ATOM     19  C   UNL     1       0.576   0.568  23.699  0.00  0.00    +0.228 C 
BRANCH  19  20
ATOM     20  O   UNL     1       0.953   0.165  23.086  0.00  0.00    -0.333 OA
BRANCH  20  21
ATOM     21  C   UNL     1       1.768   0.044  23.113  0.00  0.00    +0.257 C 
BRANCH  21  22
ATOM     22  C   UNL     1       2.211   0.068  22.417  0.00  0.00    +0.394 C 
ATOM     23  O   UNL     1       2.967   0.402  22.421  0.00  0.00    -0.243 OA
ATOM     24  O   UNL     1       1.900  -0.240  21.718  0.00  0.00    -0.243 OA
ENDBRANCH  21  22
ENDBRANCH  20  21
ENDBRANCH  19  20
ENDBRANCH  17  19
TORSDOF 6
ENDMDL
MODEL 5
REMARK VINA RESULT:      -7.3      3.181      4.087
REMARK  Name = 
REMARK  6 active torsions:
REMARK  status: ('A' for Active; 'I' for Inactive)
REMARK    1  A    between atoms: O_2  and  C_3
REMARK    2  A    between atoms: C_10  and  C_12
REMARK    3  A    between atoms: C_17  and  C_19
REMARK    4  A    between atoms: C_19  and  O_20
REMARK    5  A    between atoms: O_20  and  C_21
REMARK    6  A    between atoms: C_21  and  C_22
REMARK                            x       y       z     vdW  Elec       q    Type
REMARK                         _______ _______ _______ _____ _____    ______ ____
ROOT
ATOM     12  C   UNL     1      -3.194   1.634  24.507  0.00  0.00    +0.080 C 
ATOM     13  C   UNL     1      -3.210   1.324  23.742  0.00  0.00    +0.031 C 
ATOM     14  C   UNL     1      -3.513   0.557  23.786  0.00  0.00    +0.094 C 
ATOM     15  N   UNL     1      -3.683   0.395  24.577  0.00  0.00    -0.277 N 
ATOM     16  C   UNL     1      -3.486   1.060  25.022  0.00  0.00    +0.101 C 
ATOM     17  C   UNL     1      -3.995  -0.311  24.871  0.00  0.00    +0.256 C 
ATOM     18  O   UNL     1      -4.137  -0.394  25.679  0.00  0.00    -0.272 OA
ENDROOT
BRANCH  12  10
ATOM      3  C   UNL     1      -1.704   4.768  25.247  0.00  0.00    +0.140 A 
ATOM      4  C   UNL     1      -1.561   4.032  24.902  0.00  0.00    +0.058 A 
ATOM      5  C   UNL     1      -2.157   3.463  24.881  0.00  0.00    +0.103 A 
ATOM      6  C   UNL     1      -2.898   3.630  25.205  0.00  0.00    +0.100 A 
ATOM      7  C   UNL     1      -3.041   4.366  25.550  0.00  0.00    +0.024 A 
ATOM      8  C   UNL     1      -2.443   4.935  25.571  0.00  0.00    +0.039 A 
ATOM      9  N   UNL     1      -3.375   2.966  25.104  0.00  0.00    -0.229 NA
ATOM     10  C   UNL     1      -2.931   2.388  24.718  0.00  0.00    +0.140 A 
ATOM     11  N   UNL     1      -2.179   2.695  24.580  0.00  0.00    -0.229 NA
BRANCH   3   2
ATOM      1  C   UNL     1      -0.609   5.435  24.616  0.00  0.00    +0.252 C 
ATOM      2  O   UNL     1      -1.107   5.336  25.267  0.00  0.00    -0.471 OA
ENDBRANCH   3   2
ENDBRANCH  12  10
BRANCH  17  19
ATOM     19  C   UNL     1      -4.165  -0.932  24.356  0.00  0.00    +0.228 C 
BRANCH  19  20
ATOM     20  O   UNL     1      -4.033  -1.712  24.592  0.00  0.00    -0.333 OA
BRANCH  20  21
ATOM     21  C   UNL     1      -3.943  -2.305  24.026  0.00  0.00    +0.257 C 
BRANCH  21  22
ATOM     22  C   UNL     1      -3.499  -2.977  24.201  0.00  0.00    +0.394 C 
ATOM     23  O   UNL     1      -2.701  -3.010  23.991  0.00  0.00    -0.243 OA
ATOM     24  O   UNL     1      -3.852  -3.617  24.585  0.00  0.00    -0.243 OA
ENDBRANCH  21  22
ENDBRANCH  20  21
ENDBRANCH  19  20
ENDBRANCH  17  19
TORSDOF 6
ENDMDL
MODEL 6
REMARK VINA RESULT:      -6.8      1.307      6.088
REMARK  Name = 
REMARK  6 active torsions:
REMARK  status: ('A' for Active; 'I' for Inactive)
REMARK    1  A    between atoms: O_2  and  C_3
REMARK    2  A    between atoms: C_10  and  C_12
REMARK    3  A    between atoms: C_17  and  C_19
REMARK    4  A    between atoms: C_19  and  O_20
REMARK    5  A    between atoms: O_20  and  C_21
REMARK    6  A    between atoms: C_21  and  C_22
REMARK                            x       y       z     vdW  Elec       q    Type
REMARK                         _______ _______ _______ _____ _____    ______ ____
ROOT
ATOM     12  C   UNL     1      -1.103   0.676  24.176  0.00  0.00    +0.080 C 
ATOM     13  C   UNL     1      -1.373   0.338  24.879  0.00  0.00    +0.031 C 
ATOM     14  C   UNL     1      -2.167   0.542  24.970  0.00  0.00    +0.094 C 
ATOM     15  N   UNL     1      -2.387   1.005  24.325  0.00  0.00    -0.277 N 
ATOM     16  C   UNL     1      -1.730   1.088  23.833  0.00  0.00    +0.101 C 
ATOM     17  C   UNL     1      -3.135   1.329  24.193  0.00  0.00    +0.256 C 
ATOM     18  O   UNL     1      -3.275   1.783  23.518  0.00  0.00    -0.272 OA
ENDROOT
BRANCH  12  10
ATOM      3  C   UNL     1       2.264   0.750  23.061  0.00  0.00    +0.140 A 
ATOM      4  C   UNL     1       1.710   1.154  23.520  0.00  0.00    +0.058 A 
ATOM      5  C   UNL     1       0.942   0.861  23.592  0.00  0.00    +0.103 A 
ATOM      6  C   UNL     1       0.728   0.165  23.205  0.00  0.00    +0.100 A 
ATOM      7  C   UNL     1       1.282  -0.239  22.746  0.00  0.00    +0.024 A 
ATOM      8  C   UNL     1       2.051   0.054  22.674  0.00  0.00    +0.039 A 
ATOM      9  N   UNL     1      -0.063   0.011  23.376  0.00  0.00    -0.229 NA
ATOM     10  C   UNL     1      -0.339   0.612  23.869  0.00  0.00    +0.140 A 
ATOM     11  N   UNL     1       0.282   1.137  24.002  0.00  0.00    -0.229 NA
BRANCH   3   2
ATOM      1  C   UNL     1       3.637   0.552  22.715  0.00  0.00    +0.252 C 
ATOM      2  O   UNL     1       3.032   1.043  22.989  0.00  0.00    -0.471 OA
ENDBRANCH   3   2
ENDBRANCH  12  10
BRANCH  17  19
ATOM     19  C   UNL     1      -3.742   1.199  24.736  0.00  0.00    +0.228 C 
BRANCH  19  20
ATOM     20  O   UNL     1      -4.425   1.663  24.711  0.00  0.00    -0.333 OA
BRANCH  20  21
ATOM     21  C   UNL     1      -5.064   1.482  25.199  0.00  0.00    +0.257 C 
BRANCH  21  22
ATOM     22  C   UNL     1      -5.703   2.001  25.250  0.00  0.00    +0.394 C 
ATOM     23  O   UNL     1      -5.652   2.673  25.728  0.00  0.00    -0.243 OA
ATOM     24  O   UNL     1      -6.393   1.850  24.823  0.00  0.00    -0.243 OA
ENDBRANCH  21  22
ENDBRANCH  20  21
ENDBRANCH  19  20
ENDBRANCH  17  19
TORSDOF 6
ENDMDL
MODEL 7
REMARK VINA RESULT:      -6.2     13.638     14.085
REMARK  Name = 
REMARK  6 active torsions:
REMARK  status: ('A' for Active; 'I' for Inactive)
REMARK    1  A    between atoms: O_2  and  C_3
REMARK    2  A    between atoms: C_10  and  C_12
REMARK    3  A    between atoms: C_17  and  C_19
REMARK    4  A    between atoms: C_19  and  O_20
REMARK    5  A    between atoms: O_20  and  C_21
REMARK    6  A    between atoms: C_21  and  C_22
REMARK                            x       y       z     vdW  Elec       q    Type
REMARK                         _______ _______ _______ _____ _____    ______ ____
ROOT
ATOM     12  C   UNL     1      -5.992 -10.194  17.168  0.00  0.00    +0.080 C 
ATOM     13  C   UNL     1      -5.450 -10.340  17.773  0.00  0.00    +0.031 C 
ATOM     14  C   UNL     1      -4.714 -10.478  17.426  0.00  0.00    +0.094 C 
ATOM     15  N   UNL     1      -4.801 -10.417  16.609  0.00  0.00    -0.277 N 
ATOM     16  C   UNL     1      -5.591 -10.242  16.449  0.00  0.00    +0.101 C 
ATOM     17  C   UNL     1      -4.203 -10.515  16.048  0.00  0.00    +0.256 C 
ATOM     18  O   UNL     1      -4.374 -10.437  15.245  0.00  0.00    -0.272 OA
ENDROOT
BRANCH  12  10
ATOM      3  C   UNL     1      -9.366  -9.124  17.410  0.00  0.00    +0.140 A 
ATOM      4  C   UNL     1      -8.617  -8.898  17.147  0.00  0.00    +0.058 A 
ATOM      5  C   UNL     1      -7.976  -9.408  17.239  0.00  0.00    +0.103 A 
ATOM      6  C   UNL     1      -8.083 -10.145  17.595  0.00  0.00    +0.100 A 
ATOM      7  C   UNL     1      -8.832 -10.371  17.858  0.00  0.00    +0.024 A 
ATOM      8  C   UNL     1      -9.474  -9.860  17.766  0.00  0.00    +0.039 A 
ATOM      9  N   UNL     1      -7.354 -10.528  17.611  0.00  0.00    -0.229 NA
ATOM     10  C   UNL     1      -6.795 -10.030  17.266  0.00  0.00    +0.140 A 
ATOM     11  N   UNL     1      -7.180  -9.337  17.036  0.00  0.00    -0.229 NA
BRANCH   3   2
ATOM      1  C   UNL     1      -9.897  -7.874  16.966  0.00  0.00    +0.252 C 
ATOM      2  O   UNL     1     -10.007  -8.613  17.317  0.00  0.00    -0.471 OA
ENDBRANCH   3   2
ENDBRANCH  12  10
BRANCH  17  19
ATOM     19  C   UNL     1      -3.435 -10.690  16.292  0.00  0.00    +0.228 C 
BRANCH  19  20
ATOM     20  O   UNL     1      -2.804 -10.590  15.769  0.00  0.00    -0.333 OA
BRANCH  20  21
ATOM     21  C   UNL     1      -2.038 -10.781  16.007  0.00  0.00    +0.257 C 
BRANCH  21  22
ATOM     22  C   UNL     1      -1.393 -10.544  15.550  0.00  0.00    +0.394 C 
ATOM     23  O   UNL     1      -0.804 -10.071  15.883  0.00  0.00    -0.243 OA
ATOM     24  O   UNL     1      -1.338 -10.778  14.761  0.00  0.00    -0.243 OA
ENDBRANCH  21  22
ENDBRANCH  20  21
ENDBRANCH  19  20
ENDBRANCH  17  19
TORSDOF 6
ENDMDL
MODEL 8
REMARK VINA RESULT:      -6.1     14.164     15.998
REMARK  Name = 
REMARK  6 active torsions:
REMARK  status: ('A' for Active; 'I' for Inactive)
REMARK    1  A    between atoms: O_2  and  C_3
REMARK    2  A    between atoms: C_10  and  C_12
REMARK    3  A    between atoms: C_17  and  C_19
REMARK    4  A    between atoms: C_19  and  O_20
REMARK    5  A    between atoms: O_20  and  C_21
REMARK    6  A    between atoms: C_21  and  C_22
REMARK                            x       y       z     vdW  Elec       q    Type
REMARK                         _______ _______ _______ _____ _____    ______ ____
ROOT
ATOM     12  C   UNL     1      -3.391 -10.537  15.084  0.00  0.00    +0.080 C 
ATOM     13  C   UNL     1      -2.943 -10.781  15.733  0.00  0.00    +0.031 C 
ATOM     14  C   UNL     1      -3.417 -10.723  16.406  0.00  0.00    +0.094 C 
ATOM     15  N   UNL     1      -4.157 -10.443  16.173  0.00  0.00    -0.277 N 
ATOM     16  C   UNL     1      -4.141 -10.328  15.356  0.00  0.00    +0.101 C 
ATOM     17  C   UNL     1      -4.801 -10.302  16.670  0.00  0.00    +0.256 C 
ATOM     18  O   UNL     1      -5.510 -10.021  16.357  0.00  0.00    -0.272 OA
ENDROOT
BRANCH  12  10
ATOM      3  C   UNL     1      -2.681 -10.428  11.610  0.00  0.00    +0.140 A 
ATOM      4  C   UNL     1      -3.296 -10.471  12.159  0.00  0.00    +0.058 A 
ATOM      5  C   UNL     1      -3.128 -10.479  12.966  0.00  0.00    +0.103 A 
ATOM      6  C   UNL     1      -2.345 -10.446  13.226  0.00  0.00    +0.100 A 
ATOM      7  C   UNL     1      -1.731 -10.404  12.676  0.00  0.00    +0.024 A 
ATOM      8  C   UNL     1      -1.899 -10.395  11.868  0.00  0.00    +0.039 A 
ATOM      9  N   UNL     1      -2.349 -10.463  14.049  0.00  0.00    -0.229 NA
ATOM     10  C   UNL     1      -3.133 -10.508  14.301  0.00  0.00    +0.140 A 
ATOM     11  N   UNL     1      -3.615 -10.518  13.631  0.00  0.00    -0.229 NA
BRANCH   3   2
ATOM      1  C   UNL     1      -2.878  -9.702  10.395  0.00  0.00    +0.252 C 
ATOM      2  O   UNL     1      -2.850 -10.420  10.803  0.00  0.00    -0.471 OA
ENDBRANCH   3   2
ENDBRANCH  12  10
BRANCH  17  19
ATOM     19  C   UNL     1      -4.734 -10.443  17.480  0.00  0.00    +0.228 C 
BRANCH  19  20
ATOM     20  O   UNL     1      -5.405 -10.412  17.960  0.00  0.00    -0.333 OA
BRANCH  20  21
ATOM     21  C   UNL     1      -5.393 -10.762  18.707  0.00  0.00    +0.257 C 
BRANCH  21  22
ATOM     22  C   UNL     1      -5.985 -10.583  19.254  0.00  0.00    +0.394 C 
ATOM     23  O   UNL     1      -5.807 -10.563  20.060  0.00  0.00    -0.243 OA
ATOM     24  O   UNL     1      -6.752 -10.426  18.996  0.00  0.00    -0.243 OA
ENDBRANCH  21  22
ENDBRANCH  20  21
ENDBRANCH  19  20
ENDBRANCH  17  19
TORSDOF 6
ENDMDL
