MODEL 1
REMARK VINA RESULT:     -11.0      0.000      0.000
REMARK  Name = 
REMARK  8 active torsions:
REMARK  status: ('A' for Active; 'I' for Inactive)
REMARK    1  A    between atoms: C_2  and  N_3
REMARK    2  A    between atoms: N_3  and  C_4
REMARK    3  A    between atoms: N_3  and  C_6
REMARK    4  A    between atoms: C_6  and  C_7
REMARK    5  A    between atoms: C_14  and  C_15
REMARK    6  A    between atoms: C_15  and  N_16
REMARK    7  A    between atoms: C_17  and  C_19
REMARK    8  A    between atoms: C_22  and  C_25
REMARK                            x       y       z     vdW  Elec       q    Type
REMARK                         _______ _______ _______ _____ _____    ______ ____
ROOT
ATOM      7  C   UNL     1      -3.084   3.264  24.591  0.00  0.00    +0.032 C 
ATOM      8  C   UNL     1      -2.845   2.789  25.160  0.00  0.00    +0.073 C 
ATOM      9  N   UNL     1      -3.529   2.701  24.707  0.00  0.00    -0.272 NA
ATOM     10  C   UNL     1      -3.560   3.503  24.032  0.00  0.00    +0.072 C 
ATOM     11  C   UNL     1      -3.854   3.825  23.546  0.00  0.00    +0.017 C 
ATOM     12  C   UNL     1      -3.757   3.170  24.151  0.00  0.00    +0.005 C 
ATOM     13  C   UNL     1      -4.388   2.560  24.163  0.00  0.00    +0.018 C 
ATOM     14  C   UNL     1      -4.188   2.070  24.714  0.00  0.00    +0.079 C 
ENDROOT
BRANCH   7   6
ATOM      6  C   UNL     1      -2.610   3.919  24.422  0.00  0.00    +0.073 C 
BRANCH   6   3
ATOM      3  N   UNL     1      -1.900   4.030  24.826  0.00  0.00    -0.273 NA
BRANCH   3   2
ATOM      1  C   UNL     1      -0.485   3.838  24.782  0.00  0.00    +0.019 C 
ATOM      2  C   UNL     1      -1.249   3.555  24.652  0.00  0.00    +0.072 C 
ENDBRANCH   3   2
BRANCH   3   4
ATOM      4  C   UNL     1      -1.841   4.616  25.404  0.00  0.00    +0.072 C 
ATOM      5  C   UNL     1      -1.485   5.338  25.223  0.00  0.00    +0.019 C 
ENDBRANCH   3   4
ENDBRANCH   6   3
ENDBRANCH   7   6
BRANCH  14  15
ATOM     15  C   UNL     1      -4.428   1.378  25.092  0.00  0.00    +0.131 C 
BRANCH  15  16
ATOM     16  N   UNL     1      -4.144   0.647  24.835  0.00  0.00    -0.200 NA
ATOM     17  C   UNL     1      -4.358  -0.041  25.236  0.00  0.00    +0.265 C 
ATOM     18  O   UNL     1      -4.855  -0.000  25.892  0.00  0.00    -0.268 OA
BRANCH  17  19
ATOM     19  C   UNL     1      -4.074  -0.772  24.979  0.00  0.00    +0.055 A 
ATOM     20  C   UNL     1      -4.320  -1.079  24.254  0.00  0.00    +0.005 A 
ATOM     21  C   UNL     1      -4.036  -1.810  23.997  0.00  0.00    +0.004 A 
ATOM     22  C   UNL     1      -3.505  -2.234  24.466  0.00  0.00    +0.071 A 
ATOM     23  C   UNL     1      -3.259  -1.927  25.191  0.00  0.00    +0.004 A 
ATOM     24  C   UNL     1      -3.543  -1.197  25.447  0.00  0.00    +0.005 A 
BRANCH  22  25
ATOM     25  C   UNL     1      -3.221  -2.965  24.210  0.00  0.00    +0.419 C 
ATOM     26  F   UNL     1      -2.937  -3.696  23.954  0.00  0.00    -0.166 F 
ATOM     27  F   UNL     1      -2.465  -2.645  24.133  0.00  0.00    -0.166 F 
ATOM     28  F   UNL     1      -3.977  -3.285  24.287  0.00  0.00    -0.166 F 
ENDBRANCH  22  25
ENDBRANCH  17  19
ENDBRANCH  15  16
ENDBRANCH  14  15
TORSDOF 8
ENDMDL
MODEL 2
REMARK VINA RESULT:     -10.6      3.437      6.114
REMARK  Name = 
REMARK  8 active torsions:
REMARK  status: ('A' for Active; 'I' for Inactive)
REMARK    1  A    between atoms: C_2  and  N_3
REMARK    2  A    between atoms: N_3  and  C_4
REMARK    3  A    between atoms: N_3  and  C_6
REMARK    4  A    between atoms: C_6  and  C_7
REMARK    5  A    between atoms: C_14  and  C_15
REMARK    6  A    between atoms: C_15  and  N_16
REMARK    7  A    between atoms: C_17  and  C_19
REMARK    8  A    between atoms: C_22  and  C_25
REMARK                            x       y       z     vdW  Elec       q    Type
REMARK                         _______ _______ _______ _____ _____    ______ ____
ROOT
ATOM      7  C   UNL     1      -1.867  -0.948  24.799  0.00  0.00    +0.032 C 
ATOM      8  C   UNL     1      -2.263  -0.527  25.321  0.00  0.00    +0.073 C 
ATOM      9  N   UNL     1      -1.481  -0.403  25.087  0.00  0.00    -0.272 NA
ATOM     10  C   UNL     1      -1.250  -1.138  24.375  0.00  0.00    +0.072 C 
ATOM     11  C   UNL     1      -0.827  -1.416  23.962  0.00  0.00    +0.017 C 
ATOM     12  C   UNL     1      -1.100  -0.820  24.575  0.00  0.00    +0.005 C 
ATOM     13  C   UNL     1      -0.507  -0.220  24.819  0.00  0.00    +0.018 C 
ATOM     14  C   UNL     1      -0.860   0.217  25.336  0.00  0.00    +0.079 C 
ENDROOT
BRANCH   7   6
ATOM      6  C   UNL     1      -2.263  -1.580  24.444  0.00  0.00    +0.073 C 
BRANCH   6   3
ATOM      3  N   UNL     1      -3.055  -1.723  24.624  0.00  0.00    -0.273 NA
BRANCH   3   2
ATOM      1  C   UNL     1      -4.289  -1.727  23.903  0.00  0.00    +0.019 C 
ATOM      2  C   UNL     1      -3.649  -1.315  24.223  0.00  0.00    +0.072 C 
ENDBRANCH   3   2
BRANCH   3   4
ATOM      4  C   UNL     1      -3.253  -2.274  25.206  0.00  0.00    +0.072 C 
ATOM      5  C   UNL     1      -3.576  -3.002  24.991  0.00  0.00    +0.019 C 
ENDBRANCH   3   4
ENDBRANCH   6   3
ENDBRANCH   7   6
BRANCH  14  15
ATOM     15  C   UNL     1      -0.746   0.868  25.829  0.00  0.00    +0.131 C 
BRANCH  15  16
ATOM     16  N   UNL     1      -0.946   1.625  25.567  0.00  0.00    -0.200 NA
ATOM     17  C   UNL     1      -0.699   2.286  25.993  0.00  0.00    +0.265 C 
ATOM     18  O   UNL     1      -0.254   2.192  26.681  0.00  0.00    -0.268 OA
BRANCH  17  19
ATOM     19  C   UNL     1      -0.899   3.043  25.732  0.00  0.00    +0.055 A 
ATOM     20  C   UNL     1      -0.381   3.461  25.245  0.00  0.00    +0.005 A 
ATOM     21  C   UNL     1      -0.580   4.218  24.983  0.00  0.00    +0.004 A 
ATOM     22  C   UNL     1      -1.298   4.556  25.208  0.00  0.00    +0.071 A 
ATOM     23  C   UNL     1      -1.816   4.138  25.695  0.00  0.00    +0.004 A 
ATOM     24  C   UNL     1      -1.617   3.382  25.957  0.00  0.00    +0.005 A 
BRANCH  22  25
ATOM     25  C   UNL     1      -1.499   5.312  24.947  0.00  0.00    +0.419 C 
ATOM     26  F   UNL     1      -1.700   6.069  24.685  0.00  0.00    -0.166 F 
ATOM     27  F   UNL     1      -0.708   5.540  24.997  0.00  0.00    -0.166 F 
ATOM     28  F   UNL     1      -2.290   5.084  24.897  0.00  0.00    -0.166 F 
ENDBRANCH  22  25
ENDBRANCH  17  19
ENDBRANCH  15  16
ENDBRANCH  14  15
TORSDOF 8
ENDMDL
MODEL 3
REMARK VINA RESULT:     -10.5      1.510      2.338
REMARK  Name = 
REMARK  8 active torsions:
REMARK  status: ('A' for Active; 'I' for Inactive)
REMARK    1  A    between atoms: C_2  and  N_3
REMARK    2  A    between atoms: N_3  and  C_4
REMARK    3  A    between atoms: N_3  and  C_6
REMARK    4  A    between atoms: C_6  and  C_7
REMARK    5  A    between atoms: C_14  and  C_15
REMARK    6  A    between atoms: C_15  and  N_16
REMARK    7  A    between atoms: C_17  and  C_19
REMARK    8  A    between atoms: C_22  and  C_25
REMARK                            x       y       z     vdW  Elec       q    Type
REMARK                         _______ _______ _______ _____ _____    ______ ____
ROOT
ATOM      7  C   UNL     1      -1.222   2.727  24.976  0.00  0.00    +0.032 C 
ATOM      8  C   UNL     1      -1.802   2.413  25.389  0.00  0.00    +0.073 C 
ATOM      9  N   UNL     1      -1.110   2.030  25.150  0.00  0.00    -0.272 NA
ATOM     10  C   UNL     1      -0.540   2.727  24.614  0.00  0.00    +0.072 C 
ATOM     11  C   UNL     1      -0.002   2.882  24.277  0.00  0.00    +0.017 C 
ATOM     12  C   UNL     1      -0.546   2.345  24.745  0.00  0.00    +0.005 C 
ATOM     13  C   UNL     1      -0.264   1.523  24.870  0.00  0.00    +0.018 C 
ATOM     14  C   UNL     1      -0.810   1.178  25.276  0.00  0.00    +0.079 C 
ENDROOT
BRANCH   7   6
ATOM      6  C   UNL     1      -1.302   3.519  24.754  0.00  0.00    +0.073 C 
BRANCH   6   3
ATOM      3  N   UNL     1      -1.983   3.936  24.955  0.00  0.00    -0.273 NA
BRANCH   3   2
ATOM      1  C   UNL     1      -3.317   4.309  24.601  0.00  0.00    +0.019 C 
ATOM      2  C   UNL     1      -2.697   3.765  24.579  0.00  0.00    +0.072 C 
ENDBRANCH   3   2
BRANCH   3   4
ATOM      4  C   UNL     1      -1.952   4.525  25.531  0.00  0.00    +0.072 C 
ATOM      5  C   UNL     1      -1.842   5.313  25.311  0.00  0.00    +0.019 C 
ENDBRANCH   3   4
ENDBRANCH   6   3
ENDBRANCH   7   6
BRANCH  14  15
ATOM     15  C   UNL     1      -1.011   0.457  25.623  0.00  0.00    +0.131 C 
BRANCH  15  16
ATOM     16  N   UNL     1      -1.564  -0.036  25.261  0.00  0.00    -0.200 NA
ATOM     17  C   UNL     1      -1.760  -0.759  25.607  0.00  0.00    +0.265 C 
ATOM     18  O   UNL     1      -1.403  -0.988  26.315  0.00  0.00    -0.268 OA
BRANCH  17  19
ATOM     19  C   UNL     1      -2.313  -1.252  25.245  0.00  0.00    +0.055 A 
ATOM     20  C   UNL     1      -2.060  -1.878  24.771  0.00  0.00    +0.005 A 
ATOM     21  C   UNL     1      -2.614  -2.371  24.409  0.00  0.00    +0.004 A 
ATOM     22  C   UNL     1      -3.420  -2.239  24.522  0.00  0.00    +0.071 A 
ATOM     23  C   UNL     1      -3.673  -1.613  24.997  0.00  0.00    +0.004 A 
ATOM     24  C   UNL     1      -3.120  -1.120  25.358  0.00  0.00    +0.005 A 
BRANCH  22  25
ATOM     25  C   UNL     1      -3.974  -2.732  24.160  0.00  0.00    +0.419 C 
ATOM     26  F   UNL     1      -4.528  -3.225  23.800  0.00  0.00    -0.166 F 
ATOM     27  F   UNL     1      -4.131  -2.147  23.601  0.00  0.00    -0.166 F 
ATOM     28  F   UNL     1      -3.817  -3.317  24.720  0.00  0.00    -0.166 F 
ENDBRANCH  22  25
ENDBRANCH  17  19
ENDBRANCH  15  16
ENDBRANCH  14  15
TORSDOF 8
ENDMDL
MODEL 4
REMARK VINA RESULT:     -10.3      2.937      5.643
REMARK  Name = 
REMARK  8 active torsions:
REMARK  status: ('A' for Active; 'I' for Inactive)
REMARK    1  A    between atoms: C_2  and  N_3
REMARK    2  A    between atoms: N_3  and  C_4
REMARK    3  A    between atoms: N_3  and  C_6
REMARK    4  A    between atoms: C_6  and  C_7
REMARK    5  A    between atoms: C_14  and  C_15
REMARK    6  A    between atoms: C_15  and  N_16
REMARK    7  A    between atoms: C_17  and  C_19
REMARK    8  A    between atoms: C_22  and  C_25
REMARK                            x       y       z     vdW  Elec       q    Type
REMARK                         _______ _______ _______ _____ _____    ______ ____
ROOT
ATOM      7  C   UNL     1      -3.554  -0.532  24.635  0.00  0.00    +0.032 C 
ATOM      8  C   UNL     1      -3.210  -0.266  25.281  0.00  0.00    +0.073 C 
ATOM      9  N   UNL     1      -3.713   0.161  24.786  0.00  0.00    -0.272 NA
ATOM     10  C   UNL     1      -4.004  -0.481  24.010  0.00  0.00    +0.072 C 
ATOM     11  C   UNL     1      -4.340  -0.593  23.461  0.00  0.00    +0.017 C 
ATOM     12  C   UNL     1      -4.047  -0.106  24.154  0.00  0.00    +0.005 C 
ATOM     13  C   UNL     1      -4.335   0.723  24.193  0.00  0.00    +0.018 C 
ATOM     14  C   UNL     1      -4.016   1.021  24.819  0.00  0.00    +0.079 C 
ENDROOT
BRANCH   7   6
ATOM      6  C   UNL     1      -3.404  -1.316  24.422  0.00  0.00    +0.073 C 
BRANCH   6   3
ATOM      3  N   UNL     1      -2.901  -1.779  24.882  0.00  0.00    -0.273 NA
BRANCH   3   2
ATOM      1  C   UNL     1      -1.644  -2.414  24.638  0.00  0.00    +0.019 C 
ATOM      2  C   UNL     1      -2.084  -1.730  24.776  0.00  0.00    +0.072 C 
ENDBRANCH   3   2
BRANCH   3   4
ATOM      4  C   UNL     1      -3.213  -2.291  25.449  0.00  0.00    +0.072 C 
ATOM      5  C   UNL     1      -3.226  -3.103  25.307  0.00  0.00    +0.019 C 
ENDBRANCH   3   4
ENDBRANCH   6   3
ENDBRANCH   7   6
BRANCH  14  15
ATOM     15  C   UNL     1      -3.972   1.714  25.264  0.00  0.00    +0.131 C 
BRANCH  15  16
ATOM     16  N   UNL     1      -3.358   2.249  25.135  0.00  0.00    -0.200 NA
ATOM     17  C   UNL     1      -3.376   2.992  25.495  0.00  0.00    +0.265 C 
ATOM     18  O   UNL     1      -4.008   3.199  25.982  0.00  0.00    -0.268 OA
BRANCH  17  19
ATOM     19  C   UNL     1      -2.761   3.527  25.366  0.00  0.00    +0.055 A 
ATOM     20  C   UNL     1      -2.001   3.355  25.638  0.00  0.00    +0.005 A 
ATOM     21  C   UNL     1      -1.386   3.890  25.509  0.00  0.00    +0.004 A 
ATOM     22  C   UNL     1      -1.532   4.597  25.110  0.00  0.00    +0.071 A 
ATOM     23  C   UNL     1      -2.292   4.769  24.838  0.00  0.00    +0.004 A 
ATOM     24  C   UNL     1      -2.906   4.234  24.967  0.00  0.00    +0.005 A 
BRANCH  22  25
ATOM     25  C   UNL     1      -0.918   5.133  24.981  0.00  0.00    +0.419 C 
ATOM     26  F   UNL     1      -0.303   5.668  24.852  0.00  0.00    -0.166 F 
ATOM     27  F   UNL     1      -1.358   5.726  25.345  0.00  0.00    -0.166 F 
ATOM     28  F   UNL     1      -0.477   4.538  24.616  0.00  0.00    -0.166 F 
ENDBRANCH  22  25
ENDBRANCH  17  19
ENDBRANCH  15  16
ENDBRANCH  14  15
TORSDOF 8
ENDMDL
