MODEL 1
REMARK VINA RESULT:      -8.7      0.000      0.000
REMARK  Name = 
REMARK  6 active torsions:
REMARK  status: ('A' for Active; 'I' for Inactive)
REMARK    1  A    between atoms: O_2  and  C_3
REMARK    2  A    between atoms: C_6  and  C_9
REMARK    3  A    between atoms: N_11  and  C_12
REMARK    4  A    between atoms: C_16  and  O_20
REMARK    5  A    between atoms: O_20  and  C_21
REMARK    6  A    between atoms: C_21  and  C_22
REMARK                            x       y       z     vdW  Elec       q    Type
REMARK                         _______ _______ _______ _____ _____    ______ ____
ROOT
ATOM     12  C   UNL     1      -0.952   0.906  23.946  0.00  0.00    +0.155 C 
ATOM     13  C   UNL     1      -1.188   0.427  24.574  0.00  0.00    +0.166 C 
ATOM     14  O   UNL     1      -1.980   0.590  24.734  0.00  0.00    -0.349 OA
ATOM     15  C   UNL     1      -2.234   1.169  24.206  0.00  0.00    +0.173 C 
ATOM     16  C   UNL     1      -2.880   1.629  23.977  0.00  0.00    +0.175 C 
ATOM     17  C   UNL     1      -2.644   2.108  23.349  0.00  0.00    +0.174 C 
ATOM     18  O   UNL     1      -1.851   1.945  23.189  0.00  0.00    -0.349 OA
ATOM     19  C   UNL     1      -1.598   1.365  23.718  0.00  0.00    +0.167 C 
ENDROOT
BRANCH  12  11
ATOM      9  C   UNL     1       0.257   0.237  23.578  0.00  0.00    +0.265 C 
ATOM     10  O   UNL     1      -0.038  -0.467  23.893  0.00  0.00    -0.268 OA
ATOM     11  N   UNL     1      -0.200   0.924  23.605  0.00  0.00    -0.198 NA
BRANCH   9   6
ATOM      3  C   UNL     1       2.510   0.289  22.557  0.00  0.00    +0.139 A 
ATOM      4  C   UNL     1       1.927  -0.204  22.244  0.00  0.00    +0.037 A 
ATOM      5  C   UNL     1       1.176  -0.221  22.585  0.00  0.00    +0.008 A 
ATOM      6  C   UNL     1       1.008   0.255  23.238  0.00  0.00    +0.055 A 
ATOM      7  C   UNL     1       1.591   0.747  23.551  0.00  0.00    +0.008 A 
ATOM      8  C   UNL     1       2.343   0.764  23.210  0.00  0.00    +0.037 A 
BRANCH   3   2
ATOM      1  C   UNL     1       3.874   0.716  22.588  0.00  0.00    +0.252 C 
ATOM      2  O   UNL     1       3.262   0.306  22.217  0.00  0.00    -0.471 OA
ENDBRANCH   3   2
ENDBRANCH   9   6
ENDBRANCH  12  11
BRANCH  16  20
ATOM     20  O   UNL     1      -3.632   1.611  24.318  0.00  0.00    -0.346 OA
BRANCH  20  21
ATOM     21  C   UNL     1      -4.121   2.273  24.271  0.00  0.00    +0.169 C 
BRANCH  21  22
ATOM     22  C   UNL     1      -4.775   2.339  24.770  0.00  0.00    +0.007 A 
ATOM     23  C   UNL     1      -5.370   1.768  24.748  0.00  0.00    -0.002 A 
ATOM     24  C   UNL     1      -6.024   1.833  25.246  0.00  0.00    -0.000 A 
ATOM     25  C   UNL     1      -6.083   2.472  25.767  0.00  0.00    -0.000 A 
ATOM     26  C   UNL     1      -5.488   3.042  25.788  0.00  0.00    -0.000 A 
ATOM     27  C   UNL     1      -4.834   2.977  25.290  0.00  0.00    -0.002 A 
ENDBRANCH  21  22
ENDBRANCH  20  21
ENDBRANCH  16  20
TORSDOF 6
ENDMDL
MODEL 2
REMARK VINA RESULT:      -8.2      1.126      6.547
REMARK  Name = 
REMARK  6 active torsions:
REMARK  status: ('A' for Active; 'I' for Inactive)
REMARK    1  A    between atoms: O_2  and  C_3
REMARK    2  A    between atoms: C_6  and  C_9
REMARK    3  A    between atoms: N_11  and  C_12
REMARK    4  A    between atoms: C_16  and  O_20
REMARK    5  A    between atoms: O_20  and  C_21
REMARK    6  A    between atoms: C_21  and  C_22
REMARK                            x       y       z     vdW  Elec       q    Type
REMARK                         _______ _______ _______ _____ _____    ______ ____
ROOT
ATOM     12  C   UNL     1      -0.836   1.393  24.070  0.00  0.00    +0.155 C 
ATOM     13  C   UNL     1      -0.397   1.997  24.419  0.00  0.00    +0.166 C 
ATOM     14  O   UNL     1       0.401   1.848  24.273  0.00  0.00    -0.349 OA
ATOM     15  C   UNL     1       0.455   1.153  23.834  0.00  0.00    +0.173 C 
ATOM     16  C   UNL     1       0.980   0.630  23.471  0.00  0.00    +0.175 C 
ATOM     17  C   UNL     1       0.541   0.026  23.122  0.00  0.00    +0.174 C 
ATOM     18  O   UNL     1      -0.257   0.175  23.268  0.00  0.00    -0.349 OA
ATOM     19  C   UNL     1      -0.310   0.871  23.708  0.00  0.00    +0.167 C 
ENDROOT
BRANCH  12  11
ATOM      9  C   UNL     1      -2.106   1.793  24.591  0.00  0.00    +0.265 C 
ATOM     10  O   UNL     1      -1.730   2.332  25.090  0.00  0.00    -0.268 OA
ATOM     11  N   UNL     1      -1.659   1.323  24.081  0.00  0.00    -0.198 NA
BRANCH   9   6
ATOM      3  C   UNL     1      -4.571   1.584  24.624  0.00  0.00    +0.139 A 
ATOM      4  C   UNL     1      -4.101   0.961  24.890  0.00  0.00    +0.037 A 
ATOM      5  C   UNL     1      -3.280   1.030  24.879  0.00  0.00    +0.008 A 
ATOM      6  C   UNL     1      -2.928   1.723  24.602  0.00  0.00    +0.055 A 
ATOM      7  C   UNL     1      -3.398   2.347  24.336  0.00  0.00    +0.008 A 
ATOM      8  C   UNL     1      -4.220   2.277  24.347  0.00  0.00    +0.037 A 
BRANCH   3   2
ATOM      1  C   UNL     1      -5.836   1.938  25.188  0.00  0.00    +0.252 C 
ATOM      2  O   UNL     1      -5.394   1.515  24.635  0.00  0.00    -0.471 OA
ENDBRANCH   3   2
ENDBRANCH   9   6
ENDBRANCH  12  11
BRANCH  16  20
ATOM     20  O   UNL     1       1.803   0.700  23.460  0.00  0.00    -0.346 OA
BRANCH  20  21
ATOM     21  C   UNL     1       2.246   0.264  22.918  0.00  0.00    +0.169 C 
BRANCH  21  22
ATOM     22  C   UNL     1       3.071   0.306  22.931  0.00  0.00    +0.007 A 
ATOM     23  C   UNL     1       3.454   0.979  22.646  0.00  0.00    -0.002 A 
ATOM     24  C   UNL     1       4.278   1.021  22.659  0.00  0.00    -0.000 A 
ATOM     25  C   UNL     1       4.718   0.389  22.957  0.00  0.00    -0.000 A 
ATOM     26  C   UNL     1       4.334  -0.282  23.241  0.00  0.00    -0.000 A 
ATOM     27  C   UNL     1       3.510  -0.325  23.228  0.00  0.00    -0.002 A 
ENDBRANCH  21  22
ENDBRANCH  20  21
ENDBRANCH  16  20
TORSDOF 6
ENDMDL
MODEL 3
REMARK VINA RESULT:      -8.1      3.123      4.924
REMARK  Name = 
REMARK  6 active torsions:
REMARK  status: ('A' for Active; 'I' for Inactive)
REMARK    1  A    between atoms: O_2  and  C_3
REMARK    2  A    between atoms: C_6  and  C_9
REMARK    3  A    between atoms: N_11  and  C_12
REMARK    4  A    between atoms: C_16  and  O_20
REMARK    5  A    between atoms: O_20  and  C_21
REMARK    6  A    between atoms: C_21  and  C_22
REMARK                            x       y       z     vdW  Elec       q    Type
REMARK                         _______ _______ _______ _____ _____    ______ ____
ROOT
ATOM     12  C   UNL     1      -3.174   0.795  24.540  0.00  0.00    +0.155 C 
ATOM     13  C   UNL     1      -3.803   1.323  24.474  0.00  0.00    +0.166 C 
ATOM     14  O   UNL     1      -3.527   2.074  24.672  0.00  0.00    -0.349 OA
ATOM     15  C   UNL     1      -2.727   2.011  24.860  0.00  0.00    +0.173 C 
ATOM     16  C   UNL     1      -2.061   2.435  25.099  0.00  0.00    +0.175 C 
ATOM     17  C   UNL     1      -1.431   1.906  25.165  0.00  0.00    +0.174 C 
ATOM     18  O   UNL     1      -1.707   1.155  24.967  0.00  0.00    -0.349 OA
ATOM     19  C   UNL     1      -2.508   1.219  24.778  0.00  0.00    +0.167 C 
ENDROOT
BRANCH  12  11
ATOM      9  C   UNL     1      -3.793  -0.478  24.740  0.00  0.00    +0.265 C 
ATOM     10  O   UNL     1      -4.352  -0.126  25.236  0.00  0.00    -0.268 OA
ATOM     11  N   UNL     1      -3.204  -0.017  24.392  0.00  0.00    -0.198 NA
BRANCH   9   6
ATOM      3  C   UNL     1      -3.885  -2.911  24.300  0.00  0.00    +0.139 A 
ATOM      4  C   UNL     1      -4.266  -2.385  23.791  0.00  0.00    +0.037 A 
ATOM      5  C   UNL     1      -4.236  -1.574  23.938  0.00  0.00    +0.008 A 
ATOM      6  C   UNL     1      -3.824  -1.288  24.594  0.00  0.00    +0.055 A 
ATOM      7  C   UNL     1      -3.443  -1.814  25.102  0.00  0.00    +0.008 A 
ATOM      8  C   UNL     1      -3.473  -2.626  24.955  0.00  0.00    +0.037 A 
BRANCH   3   2
ATOM      1  C   UNL     1      -3.375  -4.069  23.635  0.00  0.00    +0.252 C 
ATOM      2  O   UNL     1      -3.916  -3.722  24.153  0.00  0.00    -0.471 OA
ENDBRANCH   3   2
ENDBRANCH   9   6
ENDBRANCH  12  11
BRANCH  16  20
ATOM     20  O   UNL     1      -2.030   3.246  25.246  0.00  0.00    -0.346 OA
BRANCH  20  21
ATOM     21  C   UNL     1      -1.301   3.628  25.305  0.00  0.00    +0.169 C 
BRANCH  21  22
ATOM     22  C   UNL     1      -1.242   4.434  25.137  0.00  0.00    +0.007 A 
ATOM     23  C   UNL     1      -1.856   4.944  25.344  0.00  0.00    -0.002 A 
ATOM     24  C   UNL     1      -1.798   5.750  25.176  0.00  0.00    -0.000 A 
ATOM     25  C   UNL     1      -1.124   6.044  24.800  0.00  0.00    -0.000 A 
ATOM     26  C   UNL     1      -0.511   5.533  24.593  0.00  0.00    -0.000 A 
ATOM     27  C   UNL     1      -0.569   4.728  24.761  0.00  0.00    -0.002 A 
ENDBRANCH  21  22
ENDBRANCH  20  21
ENDBRANCH  16  20
TORSDOF 6
ENDMDL
MODEL 4
REMARK VINA RESULT:      -8.0      2.509      3.196
REMARK  Name = 
REMARK  6 active torsions:
REMARK  status: ('A' for Active; 'I' for Inactive)
REMARK    1  A    between atoms: O_2  and  C_3
REMARK    2  A    between atoms: C_6  and  C_9
REMARK    3  A    between atoms: N_11  and  C_12
REMARK    4  A    between atoms: C_16  and  O_20
REMARK    5  A    between atoms: O_20  and  C_21
REMARK    6  A    between atoms: C_21  and  C_22
REMARK                            x       y       z     vdW  Elec       q    Type
REMARK                         _______ _______ _______ _____ _____    ______ ____
ROOT
ATOM     12  C   UNL     1       0.663   0.091  23.553  0.00  0.00    +0.155 C 
ATOM     13  C   UNL     1       0.158   0.453  23.011  0.00  0.00    +0.166 C 
ATOM     14  O   UNL     1      -0.614   0.228  23.193  0.00  0.00    -0.349 OA
ATOM     15  C   UNL     1      -0.588  -0.272  23.847  0.00  0.00    +0.173 C 
ATOM     16  C   UNL     1      -1.047  -0.721  24.365  0.00  0.00    +0.175 C 
ATOM     17  C   UNL     1      -0.543  -1.083  24.907  0.00  0.00    +0.174 C 
ATOM     18  O   UNL     1       0.230  -0.858  24.725  0.00  0.00    -0.349 OA
ATOM     19  C   UNL     1       0.202  -0.357  24.070  0.00  0.00    +0.167 C 
ENDROOT
BRANCH  12  11
ATOM      9  C   UNL     1       1.923   0.102  22.878  0.00  0.00    +0.265 C 
ATOM     10  O   UNL     1       1.538  -0.032  22.160  0.00  0.00    -0.268 OA
ATOM     11  N   UNL     1       1.484   0.164  23.575  0.00  0.00    -0.198 NA
BRANCH   9   6
ATOM      3  C   UNL     1       4.386   0.321  22.942  0.00  0.00    +0.139 A 
ATOM      4  C   UNL     1       3.919   0.974  22.752  0.00  0.00    +0.037 A 
ATOM      5  C   UNL     1       3.098   0.901  22.731  0.00  0.00    +0.008 A 
ATOM      6  C   UNL     1       2.744   0.175  22.899  0.00  0.00    +0.055 A 
ATOM      7  C   UNL     1       3.211  -0.478  23.089  0.00  0.00    +0.008 A 
ATOM      8  C   UNL     1       4.033  -0.405  23.110  0.00  0.00    +0.037 A 
BRANCH   3   2
ATOM      1  C   UNL     1       5.636   0.058  23.583  0.00  0.00    +0.252 C 
ATOM      2  O   UNL     1       5.208   0.394  22.963  0.00  0.00    -0.471 OA
ENDBRANCH   3   2
ENDBRANCH   9   6
ENDBRANCH  12  11
BRANCH  16  20
ATOM     20  O   UNL     1      -1.869  -0.794  24.344  0.00  0.00    -0.346 OA
BRANCH  20  21
ATOM     21  C   UNL     1      -2.237  -1.430  24.718  0.00  0.00    +0.169 C 
BRANCH  21  22
ATOM     22  C   UNL     1      -2.990  -1.670  24.480  0.00  0.00    +0.007 A 
ATOM     23  C   UNL     1      -3.165  -2.474  24.414  0.00  0.00    -0.002 A 
ATOM     24  C   UNL     1      -3.918  -2.714  24.177  0.00  0.00    -0.000 A 
ATOM     25  C   UNL     1      -4.495  -2.149  24.005  0.00  0.00    -0.000 A 
ATOM     26  C   UNL     1      -4.319  -1.347  24.071  0.00  0.00    -0.000 A 
ATOM     27  C   UNL     1      -3.567  -1.106  24.309  0.00  0.00    -0.002 A 
ENDBRANCH  21  22
ENDBRANCH  20  21
ENDBRANCH  16  20
TORSDOF 6
ENDMDL
MODEL 5
REMARK VINA RESULT:      -6.9     15.185     16.164
REMARK  Name = 
REMARK  6 active torsions:
REMARK  status: ('A' for Active; 'I' for Inactive)
REMARK    1  A    between atoms: O_2  and  C_3
REMARK    2  A    between atoms: C_6  and  C_9
REMARK    3  A    between atoms: N_11  and  C_12
REMARK    4  A    between atoms: C_16  and  O_20
REMARK    5  A    between atoms: O_20  and  C_21
REMARK    6  A    between atoms: C_21  and  C_22
REMARK                            x       y       z     vdW  Elec       q    Type
REMARK                         _______ _______ _______ _____ _____    ______ ____
ROOT
ATOM     12  C   UNL     1      -4.470 -10.371  12.997  0.00  0.00    +0.155 C 
ATOM     13  C   UNL     1      -3.800 -10.714  13.334  0.00  0.00    +0.166 C 
ATOM     14  O   UNL     1      -3.928 -10.780  14.146  0.00  0.00    -0.349 OA
ATOM     15  C   UNL     1      -4.677 -10.479  14.311  0.00  0.00    +0.173 C 
ATOM     16  C   UNL     1      -5.220 -10.332  14.915  0.00  0.00    +0.175 C 
ATOM     17  C   UNL     1      -5.891  -9.989  14.578  0.00  0.00    +0.174 C 
ATOM     18  O   UNL     1      -5.762  -9.923  13.766  0.00  0.00    -0.349 OA
ATOM     19  C   UNL     1      -5.012 -10.225  13.601  0.00  0.00    +0.167 C 
ENDROOT
BRANCH  12  11
ATOM      9  C   UNL     1      -3.926 -10.060  11.713  0.00  0.00    +0.265 C 
ATOM     10  O   UNL     1      -3.164 -10.086  12.030  0.00  0.00    -0.268 OA
ATOM     11  N   UNL     1      -4.578 -10.203  12.197  0.00  0.00    -0.198 NA
BRANCH   9   6
ATOM      3  C   UNL     1      -4.250  -9.556   9.312  0.00  0.00    +0.139 A 
ATOM      4  C   UNL     1      -4.052 -10.321   9.550  0.00  0.00    +0.037 A 
ATOM      5  C   UNL     1      -3.944 -10.489  10.349  0.00  0.00    +0.008 A 
ATOM      6  C   UNL     1      -4.034  -9.893  10.913  0.00  0.00    +0.055 A 
ATOM      7  C   UNL     1      -4.232  -9.128  10.675  0.00  0.00    +0.008 A 
ATOM      8  C   UNL     1      -4.341  -8.960   9.874  0.00  0.00    +0.037 A 
BRANCH   3   2
ATOM      1  C   UNL     1      -5.043  -9.641   8.126  0.00  0.00    +0.252 C 
ATOM      2  O   UNL     1      -4.359  -9.388   8.511  0.00  0.00    -0.471 OA
ENDBRANCH   3   2
ENDBRANCH   9   6
ENDBRANCH  12  11
BRANCH  16  20
ATOM     20  O   UNL     1      -5.112 -10.500  15.716  0.00  0.00    -0.346 OA
BRANCH  20  21
ATOM     21  C   UNL     1      -5.589 -10.137  16.282  0.00  0.00    +0.169 C 
BRANCH  21  22
ATOM     22  C   UNL     1      -5.524 -10.351  17.076  0.00  0.00    +0.007 A 
ATOM     23  C   UNL     1      -6.198 -10.396  17.549  0.00  0.00    -0.002 A 
ATOM     24  C   UNL     1      -6.134 -10.610  18.343  0.00  0.00    -0.000 A 
ATOM     25  C   UNL     1      -5.392 -10.780  18.664  0.00  0.00    -0.000 A 
ATOM     26  C   UNL     1      -4.718 -10.736  18.191  0.00  0.00    -0.000 A 
ATOM     27  C   UNL     1      -4.783 -10.522  17.397  0.00  0.00    -0.002 A 
ENDBRANCH  21  22
ENDBRANCH  20  21
ENDBRANCH  16  20
TORSDOF 6
ENDMDL
MODEL 6
REMARK VINA RESULT:      -6.7     14.791     16.308
REMARK  Name = 
REMARK  6 active torsions:
REMARK  status: ('A' for Active; 'I' for Inactive)
REMARK    1  A    between atoms: O_2  and  C_3
REMARK    2  A    between atoms: C_6  and  C_9
REMARK    3  A    between atoms: N_11  and  C_12
REMARK    4  A    between atoms: C_16  and  O_20
REMARK    5  A    between atoms: O_20  and  C_21
REMARK    6  A    between atoms: C_21  and  C_22
REMARK                            x       y       z     vdW  Elec       q    Type
REMARK                         _______ _______ _______ _____ _____    ______ ____
ROOT
ATOM     12  C   UNL     1      -5.251 -10.436  14.693  0.00  0.00    +0.155 C 
ATOM     13  C   UNL     1      -5.945 -10.230  14.297  0.00  0.00    +0.166 C 
ATOM     14  O   UNL     1      -5.767 -10.154  13.496  0.00  0.00    -0.349 OA
ATOM     15  C   UNL     1      -4.965 -10.313  13.395  0.00  0.00    +0.173 C 
ATOM     16  C   UNL     1      -4.358 -10.365  12.839  0.00  0.00    +0.175 C 
ATOM     17  C   UNL     1      -3.664 -10.571  13.234  0.00  0.00    +0.174 C 
ATOM     18  O   UNL     1      -3.842 -10.647  14.036  0.00  0.00    -0.349 OA
ATOM     19  C   UNL     1      -4.646 -10.487  14.136  0.00  0.00    +0.167 C 
ENDROOT
BRANCH  12  11
ATOM      9  C   UNL     1      -5.728 -10.246  16.027  0.00  0.00    +0.265 C 
ATOM     10  O   UNL     1      -6.353  -9.792  15.738  0.00  0.00    -0.268 OA
ATOM     11  N   UNL     1      -5.177 -10.568  15.504  0.00  0.00    -0.198 NA
BRANCH   9   6
ATOM      3  C   UNL     1      -5.505 -10.640  18.460  0.00  0.00    +0.139 A 
ATOM      4  C   UNL     1      -4.865 -10.781  17.959  0.00  0.00    +0.037 A 
ATOM      5  C   UNL     1      -4.939 -10.650  17.149  0.00  0.00    +0.008 A 
ATOM      6  C   UNL     1      -5.653 -10.377  16.838  0.00  0.00    +0.055 A 
ATOM      7  C   UNL     1      -6.294 -10.236  17.339  0.00  0.00    +0.008 A 
ATOM      8  C   UNL     1      -6.220 -10.368  18.150  0.00  0.00    +0.037 A 
BRANCH   3   2
ATOM      1  C   UNL     1      -6.102 -10.780  19.751  0.00  0.00    +0.252 C 
ATOM      2  O   UNL     1      -5.431 -10.772  19.271  0.00  0.00    -0.471 OA
ENDBRANCH   3   2
ENDBRANCH   9   6
ENDBRANCH  12  11
BRANCH  16  20
ATOM     20  O   UNL     1      -4.432 -10.233  12.027  0.00  0.00    -0.346 OA
BRANCH  20  21
ATOM     21  C   UNL     1      -3.761 -10.095  11.569  0.00  0.00    +0.169 C 
BRANCH  21  22
ATOM     22  C   UNL     1      -3.839  -9.903  10.770  0.00  0.00    +0.007 A 
ATOM     23  C   UNL     1      -3.920 -10.501  10.208  0.00  0.00    -0.002 A 
ATOM     24  C   UNL     1      -3.999 -10.310   9.409  0.00  0.00    -0.000 A 
ATOM     25  C   UNL     1      -3.996  -9.519   9.173  0.00  0.00    -0.000 A 
ATOM     26  C   UNL     1      -3.916  -8.921   9.735  0.00  0.00    -0.000 A 
ATOM     27  C   UNL     1      -3.837  -9.112  10.534  0.00  0.00    -0.002 A 
ENDBRANCH  21  22
ENDBRANCH  20  21
ENDBRANCH  16  20
TORSDOF 6
ENDMDL
MODEL 7
REMARK VINA RESULT:      -6.4     14.860     16.415
REMARK  Name = 
REMARK  6 active torsions:
REMARK  status: ('A' for Active; 'I' for Inactive)
REMARK    1  A    between atoms: O_2  and  C_3
REMARK    2  A    between atoms: C_6  and  C_9
REMARK    3  A    between atoms: N_11  and  C_12
REMARK    4  A    between atoms: C_16  and  O_20
REMARK    5  A    between atoms: O_20  and  C_21
REMARK    6  A    between atoms: C_21  and  C_22
REMARK                            x       y       z     vdW  Elec       q    Type
REMARK                         _______ _______ _______ _____ _____    ______ ____
ROOT
ATOM     12  C   UNL     1      -6.002 -10.172  14.954  0.00  0.00    +0.155 C 
ATOM     13  C   UNL     1      -5.198 -10.215  15.133  0.00  0.00    +0.166 C 
ATOM     14  O   UNL     1      -4.777 -10.155  14.426  0.00  0.00    -0.349 OA
ATOM     15  C   UNL     1      -5.320 -10.075  13.811  0.00  0.00    +0.173 C 
ATOM     16  C   UNL     1      -5.396  -9.988  12.994  0.00  0.00    +0.175 C 
ATOM     17  C   UNL     1      -6.200  -9.945  12.816  0.00  0.00    +0.174 C 
ATOM     18  O   UNL     1      -6.621 -10.005  13.522  0.00  0.00    -0.349 OA
ATOM     19  C   UNL     1      -6.078 -10.085  14.138  0.00  0.00    +0.167 C 
ENDROOT
BRANCH  12  11
ATOM      9  C   UNL     1      -6.554  -9.833  16.228  0.00  0.00    +0.265 C 
ATOM     10  O   UNL     1      -5.865  -9.419  16.416  0.00  0.00    -0.268 OA
ATOM     11  N   UNL     1      -6.623 -10.210  15.497  0.00  0.00    -0.198 NA
BRANCH   9   6
ATOM      3  C   UNL     1      -8.413  -9.945  17.857  0.00  0.00    +0.139 A 
ATOM      4  C   UNL     1      -7.852 -10.548  17.831  0.00  0.00    +0.037 A 
ATOM      5  C   UNL     1      -7.232 -10.511  17.288  0.00  0.00    +0.008 A 
ATOM      6  C   UNL     1      -7.174  -9.870  16.771  0.00  0.00    +0.055 A 
ATOM      7  C   UNL     1      -7.735  -9.267  16.798  0.00  0.00    +0.008 A 
ATOM      8  C   UNL     1      -8.356  -9.304  17.341  0.00  0.00    +0.037 A 
BRANCH   3   2
ATOM      1  C   UNL     1      -9.544 -10.629  18.400  0.00  0.00    +0.252 C 
ATOM      2  O   UNL     1      -9.034  -9.981  18.401  0.00  0.00    -0.471 OA
ENDBRANCH   3   2
ENDBRANCH   9   6
ENDBRANCH  12  11
BRANCH  16  20
ATOM     20  O   UNL     1      -4.776  -9.950  12.451  0.00  0.00    -0.346 OA
BRANCH  20  21
ATOM     21  C   UNL     1      -4.936  -9.838  11.650  0.00  0.00    +0.169 C 
BRANCH  21  22
ATOM     22  C   UNL     1      -4.321  -9.667  11.126  0.00  0.00    +0.007 A 
ATOM     23  C   UNL     1      -4.401  -9.051  10.584  0.00  0.00    -0.002 A 
ATOM     24  C   UNL     1      -3.787  -8.879  10.060  0.00  0.00    -0.000 A 
ATOM     25  C   UNL     1      -3.092  -9.326  10.080  0.00  0.00    -0.000 A 
ATOM     26  C   UNL     1      -3.013  -9.941  10.623  0.00  0.00    -0.000 A 
ATOM     27  C   UNL     1      -3.627 -10.113  11.146  0.00  0.00    -0.002 A 
ENDBRANCH  21  22
ENDBRANCH  20  21
ENDBRANCH  16  20
TORSDOF 6
ENDMDL
MODEL 8
REMARK VINA RESULT:      -6.1     17.305     17.925
REMARK  Name = 
REMARK  6 active torsions:
REMARK  status: ('A' for Active; 'I' for Inactive)
REMARK    1  A    between atoms: O_2  and  C_3
REMARK    2  A    between atoms: C_6  and  C_9
REMARK    3  A    between atoms: N_11  and  C_12
REMARK    4  A    between atoms: C_16  and  O_20
REMARK    5  A    between atoms: O_20  and  C_21
REMARK    6  A    between atoms: C_21  and  C_22
REMARK                            x       y       z     vdW  Elec       q    Type
REMARK                         _______ _______ _______ _____ _____    ______ ____
ROOT
ATOM     12  C   UNL     1      -6.489  -8.964  10.080  0.00  0.00    +0.155 C 
ATOM     13  C   UNL     1      -7.111  -8.986  10.621  0.00  0.00    +0.166 C 
ATOM     14  O   UNL     1      -7.747  -8.576  10.293  0.00  0.00    -0.349 OA
ATOM     15  C   UNL     1      -7.518  -8.301   9.551  0.00  0.00    +0.173 C 
ATOM     16  C   UNL     1      -7.769  -7.878   8.888  0.00  0.00    +0.175 C 
ATOM     17  C   UNL     1      -7.147  -7.857   8.347  0.00  0.00    +0.174 C 
ATOM     18  O   UNL     1      -6.511  -8.266   8.675  0.00  0.00    -0.349 OA
ATOM     19  C   UNL     1      -6.740  -8.541   9.419  0.00  0.00    +0.167 C 
ENDROOT
BRANCH  12  11
ATOM      9  C   UNL     1      -5.336  -9.201  10.892  0.00  0.00    +0.265 C 
ATOM     10  O   UNL     1      -5.673  -8.754  11.499  0.00  0.00    -0.268 OA
ATOM     11  N   UNL     1      -5.744  -9.306  10.183  0.00  0.00    -0.198 NA
BRANCH   9   6
ATOM      3  C   UNL     1      -3.106 -10.226  11.202  0.00  0.00    +0.139 A 
ATOM      4  C   UNL     1      -3.754 -10.517  11.620  0.00  0.00    +0.037 A 
ATOM      5  C   UNL     1      -4.498 -10.175  11.517  0.00  0.00    +0.008 A 
ATOM      6  C   UNL     1      -4.593  -9.543  10.995  0.00  0.00    +0.055 A 
ATOM      7  C   UNL     1      -3.944  -9.253  10.577  0.00  0.00    +0.008 A 
ATOM      8  C   UNL     1      -3.200  -9.594  10.680  0.00  0.00    +0.037 A 
BRANCH   3   2
ATOM      1  C   UNL     1      -1.895 -10.355  11.951  0.00  0.00    +0.252 C 
ATOM      2  O   UNL     1      -2.361 -10.568  11.305  0.00  0.00    -0.471 OA
ENDBRANCH   3   2
ENDBRANCH   9   6
ENDBRANCH  12  11
BRANCH  16  20
ATOM     20  O   UNL     1      -8.513  -7.536   8.785  0.00  0.00    -0.346 OA
BRANCH  20  21
ATOM     21  C   UNL     1      -8.604  -6.888   8.282  0.00  0.00    +0.169 C 
BRANCH  21  22
ATOM     22  C   UNL     1      -9.299  -6.444   8.303  0.00  0.00    +0.007 A 
ATOM     23  C   UNL     1      -9.270  -5.643   8.498  0.00  0.00    -0.002 A 
ATOM     24  C   UNL     1      -9.965  -5.198   8.519  0.00  0.00    -0.000 A 
ATOM     25  C   UNL     1     -10.688  -5.555   8.344  0.00  0.00    -0.000 A 
ATOM     26  C   UNL     1     -10.716  -6.356   8.149  0.00  0.00    -0.000 A 
ATOM     27  C   UNL     1     -10.022  -6.801   8.128  0.00  0.00    -0.002 A 
ENDBRANCH  21  22
ENDBRANCH  20  21
ENDBRANCH  16  20
TORSDOF 6
ENDMDL
MODEL 9
REMARK VINA RESULT:      -6.1     14.485     15.088
REMARK  Name = 
REMARK  6 active torsions:
REMARK  status: ('A' for Active; 'I' for Inactive)
REMARK    1  A    between atoms: O_2  and  C_3
REMARK    2  A    between atoms: C_6  and  C_9
REMARK    3  A    between atoms: N_11  and  C_12
REMARK    4  A    between atoms: C_16  and  O_20
REMARK    5  A    between atoms: O_20  and  C_21
REMARK    6  A    between atoms: C_21  and  C_22
REMARK                            x       y       z     vdW  Elec       q    Type
REMARK                         _______ _______ _______ _____ _____    ______ ____
ROOT
ATOM     12  C   UNL     1      -5.690 -10.363  14.553  0.00  0.00    +0.155 C 
ATOM     13  C   UNL     1      -6.369 -10.673  14.202  0.00  0.00    +0.166 C 
ATOM     14  O   UNL     1      -7.007 -10.518  14.700  0.00  0.00    -0.349 OA
ATOM     15  C   UNL     1      -6.724 -10.113  15.360  0.00  0.00    +0.173 C 
ATOM     16  C   UNL     1      -6.942  -9.766  16.076  0.00  0.00    +0.175 C 
ATOM     17  C   UNL     1      -6.264  -9.456  16.427  0.00  0.00    +0.174 C 
ATOM     18  O   UNL     1      -5.625  -9.610  15.928  0.00  0.00    -0.349 OA
ATOM     19  C   UNL     1      -5.910 -10.016  15.269  0.00  0.00    +0.167 C 
ENDROOT
BRANCH  12  11
ATOM      9  C   UNL     1      -4.814 -10.466  13.429  0.00  0.00    +0.265 C 
ATOM     10  O   UNL     1      -5.466 -10.508  12.925  0.00  0.00    -0.268 OA
ATOM     11  N   UNL     1      -4.926 -10.393  14.243  0.00  0.00    -0.198 NA
BRANCH   9   6
ATOM      3  C   UNL     1      -2.523 -10.558  12.498  0.00  0.00    +0.139 A 
ATOM      4  C   UNL     1      -3.158 -10.360  12.011  0.00  0.00    +0.037 A 
ATOM      5  C   UNL     1      -3.922 -10.329  12.321  0.00  0.00    +0.008 A 
ATOM      6  C   UNL     1      -4.050 -10.496  13.118  0.00  0.00    +0.055 A 
ATOM      7  C   UNL     1      -3.415 -10.694  13.606  0.00  0.00    +0.008 A 
ATOM      8  C   UNL     1      -2.651 -10.724  13.296  0.00  0.00    +0.037 A 
BRANCH   3   2
ATOM      1  C   UNL     1      -1.478  -9.969  11.720  0.00  0.00    +0.252 C 
ATOM      2  O   UNL     1      -1.759 -10.588  12.188  0.00  0.00    -0.471 OA
ENDBRANCH   3   2
ENDBRANCH   9   6
ENDBRANCH  12  11
BRANCH  16  20
ATOM     20  O   UNL     1      -7.706  -9.735  16.386  0.00  0.00    -0.346 OA
BRANCH  20  21
ATOM     21  C   UNL     1      -7.866  -9.263  17.043  0.00  0.00    +0.169 C 
BRANCH  21  22
ATOM     22  C   UNL     1      -8.645  -9.153  17.293  0.00  0.00    +0.007 A 
ATOM     23  C   UNL     1      -9.029  -9.747  17.719  0.00  0.00    -0.002 A 
ATOM     24  C   UNL     1      -9.807  -9.638  17.970  0.00  0.00    -0.000 A 
ATOM     25  C   UNL     1     -10.202  -8.935  17.793  0.00  0.00    -0.000 A 
ATOM     26  C   UNL     1      -9.819  -8.343  17.367  0.00  0.00    -0.000 A 
ATOM     27  C   UNL     1      -9.040  -8.451  17.116  0.00  0.00    -0.002 A 
ENDBRANCH  21  22
ENDBRANCH  20  21
ENDBRANCH  16  20
TORSDOF 6
ENDMDL
MODEL 10
REMARK VINA RESULT:      -5.9     15.930     17.467
REMARK  Name = 
REMARK  6 active torsions:
REMARK  status: ('A' for Active; 'I' for Inactive)
REMARK    1  A    between atoms: O_2  and  C_3
REMARK    2  A    between atoms: C_6  and  C_9
REMARK    3  A    between atoms: N_11  and  C_12
REMARK    4  A    between atoms: C_16  and  O_20
REMARK    5  A    between atoms: O_20  and  C_21
REMARK    6  A    between atoms: C_21  and  C_22
REMARK                            x       y       z     vdW  Elec       q    Type
REMARK                         _______ _______ _______ _____ _____    ______ ____
ROOT
ATOM     12  C   UNL     1      -4.295 -10.164  11.237  0.00  0.00    +0.155 C 
ATOM     13  C   UNL     1      -3.498 -10.177  11.029  0.00  0.00    +0.166 C 
ATOM     14  O   UNL     1      -3.057 -10.286  11.717  0.00  0.00    -0.349 OA
ATOM     15  C   UNL     1      -3.581 -10.341  12.351  0.00  0.00    +0.173 C 
ATOM     16  C   UNL     1      -3.635 -10.441  13.168  0.00  0.00    +0.175 C 
ATOM     17  C   UNL     1      -4.432 -10.428  13.376  0.00  0.00    +0.174 C 
ATOM     18  O   UNL     1      -4.873 -10.319  12.687  0.00  0.00    -0.349 OA
ATOM     19  C   UNL     1      -4.347 -10.265  12.054  0.00  0.00    +0.167 C 
ENDROOT
BRANCH  12  11
ATOM      9  C   UNL     1      -4.944  -9.427  10.198  0.00  0.00    +0.265 C 
ATOM     10  O   UNL     1      -4.322  -8.884  10.196  0.00  0.00    -0.268 OA
ATOM     11  N   UNL     1      -4.930 -10.067  10.719  0.00  0.00    -0.198 NA
BRANCH   9   6
ATOM      3  C   UNL     1      -6.847  -9.136   8.644  0.00  0.00    +0.139 A 
ATOM      4  C   UNL     1      -6.585  -8.499   9.099  0.00  0.00    +0.037 A 
ATOM      5  C   UNL     1      -5.951  -8.597   9.616  0.00  0.00    +0.008 A 
ATOM      6  C   UNL     1      -5.578  -9.330   9.680  0.00  0.00    +0.055 A 
ATOM      7  C   UNL     1      -5.840  -9.966   9.225  0.00  0.00    +0.008 A 
ATOM      8  C   UNL     1      -6.475  -9.869   8.707  0.00  0.00    +0.037 A 
BRANCH   3   2
ATOM      1  C   UNL     1      -8.100  -9.584   8.124  0.00  0.00    +0.252 C 
ATOM      2  O   UNL     1      -7.482  -9.039   8.125  0.00  0.00    -0.471 OA
ENDBRANCH   3   2
ENDBRANCH   9   6
ENDBRANCH  12  11
BRANCH  16  20
ATOM     20  O   UNL     1      -3.000 -10.539  13.686  0.00  0.00    -0.346 OA
BRANCH  20  21
ATOM     21  C   UNL     1      -3.136 -10.611  14.496  0.00  0.00    +0.169 C 
BRANCH  21  22
ATOM     22  C   UNL     1      -2.501 -10.607  15.024  0.00  0.00    +0.007 A 
ATOM     23  C   UNL     1      -1.742 -10.429  14.754  0.00  0.00    -0.002 A 
ATOM     24  C   UNL     1      -1.107 -10.425  15.280  0.00  0.00    -0.000 A 
ATOM     25  C   UNL     1      -1.232 -10.599  16.078  0.00  0.00    -0.000 A 
ATOM     26  C   UNL     1      -1.991 -10.776  16.347  0.00  0.00    -0.000 A 
ATOM     27  C   UNL     1      -2.626 -10.780  15.820  0.00  0.00    -0.002 A 
ENDBRANCH  21  22
ENDBRANCH  20  21
ENDBRANCH  16  20
TORSDOF 6
ENDMDL
