MODEL 1
REMARK VINA RESULT:     -13.6      0.000      0.000
REMARK  Name = 
REMARK  5 active torsions:
REMARK  status: ('A' for Active; 'I' for Inactive)
REMARK    1  A    between atoms: N_4  and  C_21
REMARK    2  A    between atoms: C_7  and  C_8
REMARK    3  A    between atoms: C_10  and  N_11
REMARK    4  A    between atoms: C_12  and  C_14
REMARK    5  A    between atoms: C_24  and  C_27
REMARK                            x       y       z     vdW  Elec       q    Type
REMARK                         _______ _______ _______ _____ _____    ______ ____
ROOT
ATOM      1  C   UNL     1      -5.704   1.899  25.594  0.00  0.00    +0.054 C 
ATOM      2  C   UNL     1      -5.119   1.412  25.274  0.00  0.00    +0.077 A 
ATOM      3  N   UNL     1      -5.124   0.588  25.269  0.00  0.00    -0.170 NA
ATOM      4  N   UNL     1      -4.435   0.331  24.895  0.00  0.00    -0.234 N 
ATOM      5  C   UNL     1      -4.005   0.997  24.669  0.00  0.00    +0.058 A 
ATOM      6  C   UNL     1      -3.278   0.995  24.276  0.00  0.00    +0.052 C 
ATOM      7  C   UNL     1      -4.428   1.666  24.903  0.00  0.00    +0.010 A 
ENDROOT
BRANCH   4  21
ATOM     21  C   UNL     1      -4.215  -0.455  24.769  0.00  0.00    +0.082 A 
ATOM     22  C   UNL     1      -4.394  -0.822  24.053  0.00  0.00    +0.019 A 
ATOM     23  C   UNL     1      -4.174  -1.608  23.927  0.00  0.00    -0.003 A 
ATOM     24  C   UNL     1      -3.776  -2.024  24.517  0.00  0.00    -0.023 A 
ATOM     25  C   UNL     1      -3.598  -1.656  25.234  0.00  0.00    -0.003 A 
ATOM     26  C   UNL     1      -3.818  -0.871  25.360  0.00  0.00    +0.019 A 
BRANCH  24  27
ATOM     27  C   UNL     1      -3.556  -2.810  24.391  0.00  0.00    +0.019 C 
ATOM     28  C   UNL     1      -3.337  -3.595  24.265  0.00  0.00    +0.004 C 
ATOM     29  C   UNL     1      -2.888  -2.698  24.863  0.00  0.00    +0.004 C 
ATOM     30  C   UNL     1      -4.224  -2.921  23.920  0.00  0.00    +0.004 C 
ENDBRANCH  24  27
ENDBRANCH   4  21
BRANCH   7   8
ATOM      8  C   UNL     1      -4.198   2.450  24.786  0.00  0.00    +0.048 C 
ATOM      9  C   UNL     1      -3.424   2.723  24.715  0.00  0.00    +0.035 C 
ATOM     10  C   UNL     1      -3.450   3.540  24.605  0.00  0.00    +0.118 C 
ATOM     19  C   UNL     1      -4.242   3.771  24.607  0.00  0.00    -0.009 C 
ATOM     20  C   UNL     1      -4.704   3.098  24.719  0.00  0.00    -0.025 C 
BRANCH  10  11
ATOM     11  N   UNL     1      -2.800   4.039  24.508  0.00  0.00    -0.199 NA
ATOM     12  C   UNL     1      -2.329   4.234  25.157  0.00  0.00    +0.271 C 
ATOM     13  O   UNL     1      -2.508   3.930  25.903  0.00  0.00    -0.268 OA
BRANCH  12  14
ATOM     14  C   UNL     1      -1.679   4.733  25.060  0.00  0.00    +0.084 A 
ATOM     15  C   UNL     1      -1.693   5.558  25.087  0.00  0.00    +0.012 A 
ATOM     16  C   UNL     1      -0.924   5.829  24.962  0.00  0.00    +0.008 A 
ATOM     17  C   UNL     1      -0.435   5.173  24.859  0.00  0.00    +0.036 A 
ATOM     18  S   UNL     1      -0.902   4.495  24.919  0.00  0.00    -0.082 S 
ENDBRANCH  12  14
ENDBRANCH  10  11
ENDBRANCH   7   8
TORSDOF 5
ENDMDL
MODEL 2
REMARK VINA RESULT:     -11.7      1.839      5.833
REMARK  Name = 
REMARK  5 active torsions:
REMARK  status: ('A' for Active; 'I' for Inactive)
REMARK    1  A    between atoms: N_4  and  C_21
REMARK    2  A    between atoms: C_7  and  C_8
REMARK    3  A    between atoms: C_10  and  N_11
REMARK    4  A    between atoms: C_12  and  C_14
REMARK    5  A    between atoms: C_24  and  C_27
REMARK                            x       y       z     vdW  Elec       q    Type
REMARK                         _______ _______ _______ _____ _____    ______ ____
ROOT
ATOM      1  C   UNL     1      -5.560   2.422  25.747  0.00  0.00    +0.054 C 
ATOM      2  C   UNL     1      -4.785   2.535  25.486  0.00  0.00    +0.077 A 
ATOM      3  N   UNL     1      -4.353   3.235  25.536  0.00  0.00    -0.170 NA
ATOM      4  N   UNL     1      -3.607   3.099  25.210  0.00  0.00    -0.234 N 
ATOM      5  C   UNL     1      -3.579   2.314  24.958  0.00  0.00    +0.058 A 
ATOM      6  C   UNL     1      -2.935   1.943  24.599  0.00  0.00    +0.052 C 
ATOM      7  C   UNL     1      -4.307   1.965  25.128  0.00  0.00    +0.010 A 
ENDROOT
BRANCH   4  21
ATOM     21  C   UNL     1      -2.997   3.651  25.147  0.00  0.00    +0.082 A 
ATOM     22  C   UNL     1      -2.938   4.124  24.475  0.00  0.00    +0.019 A 
ATOM     23  C   UNL     1      -2.328   4.677  24.412  0.00  0.00    -0.003 A 
ATOM     24  C   UNL     1      -1.778   4.755  25.021  0.00  0.00    -0.023 A 
ATOM     25  C   UNL     1      -1.837   4.281  25.694  0.00  0.00    -0.003 A 
ATOM     26  C   UNL     1      -2.447   3.729  25.757  0.00  0.00    +0.019 A 
BRANCH  24  27
ATOM     27  C   UNL     1      -1.167   5.307  24.958  0.00  0.00    +0.019 C 
ATOM     28  C   UNL     1      -0.558   5.859  24.895  0.00  0.00    +0.004 C 
ATOM     29  C   UNL     1      -0.634   4.698  24.795  0.00  0.00    +0.004 C 
ATOM     30  C   UNL     1      -1.701   5.914  25.120  0.00  0.00    +0.004 C 
ENDBRANCH  24  27
ENDBRANCH   4  21
BRANCH   7   8
ATOM      8  C   UNL     1      -4.518   1.183  24.969  0.00  0.00    +0.048 C 
ATOM      9  C   UNL     1      -4.066   0.515  25.133  0.00  0.00    +0.035 C 
ATOM     10  C   UNL     1      -4.487  -0.147  24.882  0.00  0.00    +0.118 C 
ATOM     19  C   UNL     1      -5.202   0.112  24.562  0.00  0.00    -0.009 C 
ATOM     20  C   UNL     1      -5.222   0.934  24.616  0.00  0.00    -0.025 C 
BRANCH  10  11
ATOM     11  N   UNL     1      -4.240  -0.932  24.940  0.00  0.00    -0.199 NA
ATOM     12  C   UNL     1      -3.957  -1.327  24.274  0.00  0.00    +0.271 C 
ATOM     13  O   UNL     1      -3.921  -0.937  23.547  0.00  0.00    -0.268 OA
BRANCH  12  14
ATOM     14  C   UNL     1      -3.709  -2.112  24.333  0.00  0.00    +0.084 A 
ATOM     15  C   UNL     1      -4.102  -2.769  24.023  0.00  0.00    +0.012 A 
ATOM     16  C   UNL     1      -3.661  -3.441  24.211  0.00  0.00    +0.008 A 
ATOM     17  C   UNL     1      -2.996  -3.199  24.636  0.00  0.00    +0.036 A 
ATOM     18  S   UNL     1      -3.026  -2.378  24.711  0.00  0.00    -0.082 S 
ENDBRANCH  12  14
ENDBRANCH  10  11
ENDBRANCH   7   8
TORSDOF 5
ENDMDL
MODEL 3
REMARK VINA RESULT:     -10.8      3.101      4.841
REMARK  Name = 
REMARK  5 active torsions:
REMARK  status: ('A' for Active; 'I' for Inactive)
REMARK    1  A    between atoms: N_4  and  C_21
REMARK    2  A    between atoms: C_7  and  C_8
REMARK    3  A    between atoms: C_10  and  N_11
REMARK    4  A    between atoms: C_12  and  C_14
REMARK    5  A    between atoms: C_24  and  C_27
REMARK                            x       y       z     vdW  Elec       q    Type
REMARK                         _______ _______ _______ _____ _____    ______ ____
ROOT
ATOM      1  C   UNL     1      -2.816  -1.812  24.309  0.00  0.00    +0.054 C 
ATOM      2  C   UNL     1      -2.922  -1.014  24.491  0.00  0.00    +0.077 A 
ATOM      3  N   UNL     1      -3.646  -0.632  24.591  0.00  0.00    -0.170 NA
ATOM      4  N   UNL     1      -3.493   0.160  24.767  0.00  0.00    -0.234 N 
ATOM      5  C   UNL     1      -2.675   0.267  24.775  0.00  0.00    +0.058 A 
ATOM      6  C   UNL     1      -2.280   0.975  24.928  0.00  0.00    +0.052 C 
ATOM      7  C   UNL     1      -2.322  -0.459  24.605  0.00  0.00    +0.010 A 
ENDROOT
BRANCH   4  21
ATOM     21  C   UNL     1      -4.060   0.743  24.909  0.00  0.00    +0.082 A 
ATOM     22  C   UNL     1      -4.625   0.632  25.499  0.00  0.00    +0.019 A 
ATOM     23  C   UNL     1      -5.192   1.216  25.642  0.00  0.00    -0.003 A 
ATOM     24  C   UNL     1      -5.192   1.908  25.195  0.00  0.00    -0.023 A 
ATOM     25  C   UNL     1      -4.626   2.019  24.605  0.00  0.00    -0.003 A 
ATOM     26  C   UNL     1      -4.060   1.436  24.462  0.00  0.00    +0.019 A 
BRANCH  24  27
ATOM     27  C   UNL     1      -5.759   2.491  25.337  0.00  0.00    +0.019 C 
ATOM     28  C   UNL     1      -6.325   3.074  25.480  0.00  0.00    +0.004 C 
ATOM     29  C   UNL     1      -5.172   2.989  25.637  0.00  0.00    +0.004 C 
ATOM     30  C   UNL     1      -6.345   1.994  25.038  0.00  0.00    +0.004 C 
ENDBRANCH  24  27
ENDBRANCH   4  21
BRANCH   7   8
ATOM      8  C   UNL     1      -1.511  -0.604  24.557  0.00  0.00    +0.048 C 
ATOM      9  C   UNL     1      -1.044  -0.532  23.881  0.00  0.00    +0.035 C 
ATOM     10  C   UNL     1      -0.270  -0.729  24.083  0.00  0.00    +0.118 C 
ATOM     19  C   UNL     1      -0.258  -0.923  24.886  0.00  0.00    -0.009 C 
ATOM     20  C   UNL     1      -1.024  -0.845  25.178  0.00  0.00    -0.025 C 
BRANCH  10  11
ATOM     11  N   UNL     1       0.380  -0.733  23.575  0.00  0.00    -0.199 NA
ATOM     12  C   UNL     1       0.774  -0.029  23.404  0.00  0.00    +0.271 C 
ATOM     13  O   UNL     1       0.520   0.680  23.741  0.00  0.00    -0.268 OA
BRANCH  12  14
ATOM     14  C   UNL     1       1.424  -0.033  22.895  0.00  0.00    +0.084 A 
ATOM     15  C   UNL     1       1.427  -0.302  22.114  0.00  0.00    +0.012 A 
ATOM     16  C   UNL     1       2.189  -0.205  21.814  0.00  0.00    +0.008 A 
ATOM     17  C   UNL     1       2.657   0.125  22.409  0.00  0.00    +0.036 A 
ATOM     18  S   UNL     1       2.184   0.231  23.077  0.00  0.00    -0.082 S 
ENDBRANCH  12  14
ENDBRANCH  10  11
ENDBRANCH   7   8
TORSDOF 5
ENDMDL
MODEL 4
REMARK VINA RESULT:     -10.7      2.674      6.505
REMARK  Name = 
REMARK  5 active torsions:
REMARK  status: ('A' for Active; 'I' for Inactive)
REMARK    1  A    between atoms: N_4  and  C_21
REMARK    2  A    between atoms: C_7  and  C_8
REMARK    3  A    between atoms: C_10  and  N_11
REMARK    4  A    between atoms: C_12  and  C_14
REMARK    5  A    between atoms: C_24  and  C_27
REMARK                            x       y       z     vdW  Elec       q    Type
REMARK                         _______ _______ _______ _____ _____    ______ ____
ROOT
ATOM      1  C   UNL     1       0.594   0.328  23.856  0.00  0.00    +0.054 C 
ATOM      2  C   UNL     1       0.039   0.845  24.183  0.00  0.00    +0.077 A 
ATOM      3  N   UNL     1       0.080   1.668  24.175  0.00  0.00    -0.170 NA
ATOM      4  N   UNL     1      -0.587   1.960  24.562  0.00  0.00    -0.234 N 
ATOM      5  C   UNL     1      -1.040   1.317  24.810  0.00  0.00    +0.058 A 
ATOM      6  C   UNL     1      -1.755   1.356  25.221  0.00  0.00    +0.052 C 
ATOM      7  C   UNL     1      -0.653   0.627  24.576  0.00  0.00    +0.010 A 
ENDROOT
BRANCH   4  21
ATOM     21  C   UNL     1      -0.770   2.756  24.681  0.00  0.00    +0.082 A 
ATOM     22  C   UNL     1      -0.466   3.155  25.336  0.00  0.00    +0.019 A 
ATOM     23  C   UNL     1      -0.648   3.951  25.455  0.00  0.00    -0.003 A 
ATOM     24  C   UNL     1      -1.134   4.347  24.920  0.00  0.00    -0.023 A 
ATOM     25  C   UNL     1      -1.439   3.948  24.265  0.00  0.00    -0.003 A 
ATOM     26  C   UNL     1      -1.257   3.152  24.146  0.00  0.00    +0.019 A 
BRANCH  24  27
ATOM     27  C   UNL     1      -1.317   5.143  25.039  0.00  0.00    +0.019 C 
ATOM     28  C   UNL     1      -1.499   5.939  25.157  0.00  0.00    +0.004 C 
ATOM     29  C   UNL     1      -2.028   4.927  25.398  0.00  0.00    +0.004 C 
ATOM     30  C   UNL     1      -0.607   5.359  24.679  0.00  0.00    +0.004 C 
ENDBRANCH  24  27
ENDBRANCH   4  21
BRANCH   7   8
ATOM      8  C   UNL     1      -0.913  -0.145  24.711  0.00  0.00    +0.048 C 
ATOM      9  C   UNL     1      -1.511  -0.535  24.300  0.00  0.00    +0.035 C 
ATOM     10  C   UNL     1      -1.587  -1.292  24.617  0.00  0.00    +0.118 C 
ATOM     19  C   UNL     1      -1.036  -1.370  25.226  0.00  0.00    -0.009 C 
ATOM     20  C   UNL     1      -0.619  -0.661  25.284  0.00  0.00    -0.025 C 
BRANCH  10  11
ATOM     11  N   UNL     1      -2.121  -1.870  24.370  0.00  0.00    -0.199 NA
ATOM     12  C   UNL     1      -2.893  -1.872  24.660  0.00  0.00    +0.271 C 
ATOM     13  O   UNL     1      -3.133  -1.294  25.199  0.00  0.00    -0.268 OA
BRANCH  12  14
ATOM     14  C   UNL     1      -3.426  -2.451  24.413  0.00  0.00    +0.084 A 
ATOM     15  C   UNL     1      -3.403  -3.250  24.617  0.00  0.00    +0.012 A 
ATOM     16  C   UNL     1      -4.039  -3.626  24.248  0.00  0.00    +0.008 A 
ATOM     17  C   UNL     1      -4.454  -3.059  23.816  0.00  0.00    +0.036 A 
ATOM     18  S   UNL     1      -4.075  -2.332  23.918  0.00  0.00    -0.082 S 
ENDBRANCH  12  14
ENDBRANCH  10  11
ENDBRANCH   7   8
TORSDOF 5
ENDMDL
MODEL 5
REMARK VINA RESULT:     -10.6      2.040      2.826
REMARK  Name = 
REMARK  5 active torsions:
REMARK  status: ('A' for Active; 'I' for Inactive)
REMARK    1  A    between atoms: N_4  and  C_21
REMARK    2  A    between atoms: C_7  and  C_8
REMARK    3  A    between atoms: C_10  and  N_11
REMARK    4  A    between atoms: C_12  and  C_14
REMARK    5  A    between atoms: C_24  and  C_27
REMARK                            x       y       z     vdW  Elec       q    Type
REMARK                         _______ _______ _______ _____ _____    ______ ____
ROOT
ATOM      1  C   UNL     1       0.429   0.364  23.926  0.00  0.00    +0.054 C 
ATOM      2  C   UNL     1      -0.322   0.155  24.199  0.00  0.00    +0.077 A 
ATOM      3  N   UNL     1      -0.720  -0.547  24.031  0.00  0.00    -0.170 NA
ATOM      4  N   UNL     1      -1.450  -0.524  24.416  0.00  0.00    -0.234 N 
ATOM      5  C   UNL     1      -1.502   0.193  24.821  0.00  0.00    +0.058 A 
ATOM      6  C   UNL     1      -2.140   0.445  25.280  0.00  0.00    +0.052 C 
ATOM      7  C   UNL     1      -0.804   0.613  24.687  0.00  0.00    +0.010 A 
ENDROOT
BRANCH   4  21
ATOM     21  C   UNL     1      -2.027  -1.114  24.398  0.00  0.00    +0.082 A 
ATOM     22  C   UNL     1      -1.827  -1.890  24.594  0.00  0.00    +0.019 A 
ATOM     23  C   UNL     1      -2.404  -2.480  24.577  0.00  0.00    -0.003 A 
ATOM     24  C   UNL     1      -3.178  -2.295  24.363  0.00  0.00    -0.023 A 
ATOM     25  C   UNL     1      -3.378  -1.518  24.167  0.00  0.00    -0.003 A 
ATOM     26  C   UNL     1      -2.801  -0.927  24.185  0.00  0.00    +0.019 A 
BRANCH  24  27
ATOM     27  C   UNL     1      -3.755  -2.885  24.346  0.00  0.00    +0.019 C 
ATOM     28  C   UNL     1      -4.331  -3.475  24.329  0.00  0.00    +0.004 C 
ATOM     29  C   UNL     1      -4.129  -2.501  23.718  0.00  0.00    +0.004 C 
ATOM     30  C   UNL     1      -3.381  -3.268  24.973  0.00  0.00    +0.004 C 
ENDBRANCH  24  27
ENDBRANCH   4  21
BRANCH   7   8
ATOM      8  C   UNL     1      -0.623   1.359  24.989  0.00  0.00    +0.048 C 
ATOM      9  C   UNL     1      -0.823   2.082  24.648  0.00  0.00    +0.035 C 
ATOM     10  C   UNL     1      -0.533   2.682  25.133  0.00  0.00    +0.118 C 
ATOM     19  C   UNL     1      -0.153   2.329  25.776  0.00  0.00    -0.009 C 
ATOM     20  C   UNL     1      -0.209   1.512  25.686  0.00  0.00    -0.025 C 
BRANCH  10  11
ATOM     11  N   UNL     1      -0.608   3.493  25.002  0.00  0.00    -0.199 NA
ATOM     12  C   UNL     1      -1.268   3.898  25.286  0.00  0.00    +0.271 C 
ATOM     13  O   UNL     1      -1.853   3.493  25.703  0.00  0.00    -0.268 OA
BRANCH  12  14
ATOM     14  C   UNL     1      -1.343   4.710  25.154  0.00  0.00    +0.084 A 
ATOM     15  C   UNL     1      -0.761   5.206  24.844  0.00  0.00    +0.012 A 
ATOM     16  C   UNL     1      -1.071   5.970  24.807  0.00  0.00    +0.008 A 
ATOM     17  C   UNL     1      -1.844   5.945  25.094  0.00  0.00    +0.036 A 
ATOM     18  S   UNL     1      -2.012   5.166  25.308  0.00  0.00    -0.082 S 
ENDBRANCH  12  14
ENDBRANCH  10  11
ENDBRANCH   7   8
TORSDOF 5
ENDMDL
MODEL 6
REMARK VINA RESULT:     -10.4      3.131      4.849
REMARK  Name = 
REMARK  5 active torsions:
REMARK  status: ('A' for Active; 'I' for Inactive)
REMARK    1  A    between atoms: N_4  and  C_21
REMARK    2  A    between atoms: C_7  and  C_8
REMARK    3  A    between atoms: C_10  and  N_11
REMARK    4  A    between atoms: C_12  and  C_14
REMARK    5  A    between atoms: C_24  and  C_27
REMARK                            x       y       z     vdW  Elec       q    Type
REMARK                         _______ _______ _______ _____ _____    ______ ____
ROOT
ATOM      1  C   UNL     1      -0.958   4.261  24.764  0.00  0.00    +0.054 C 
ATOM      2  C   UNL     1      -1.516   3.658  24.845  0.00  0.00    +0.077 A 
ATOM      3  N   UNL     1      -2.333   3.757  24.893  0.00  0.00    -0.170 NA
ATOM      4  N   UNL     1      -2.676   3.010  24.969  0.00  0.00    -0.234 N 
ATOM      5  C   UNL     1      -2.070   2.450  24.969  0.00  0.00    +0.058 A 
ATOM      6  C   UNL     1      -2.165   1.633  25.035  0.00  0.00    +0.052 C 
ATOM      7  C   UNL     1      -1.353   2.851  24.892  0.00  0.00    +0.010 A 
ENDROOT
BRANCH   4  21
ATOM     21  C   UNL     1      -3.483   2.851  25.035  0.00  0.00    +0.082 A 
ATOM     22  C   UNL     1      -3.881   2.481  24.415  0.00  0.00    +0.019 A 
ATOM     23  C   UNL     1      -4.689   2.322  24.480  0.00  0.00    -0.003 A 
ATOM     24  C   UNL     1      -5.097   2.533  25.165  0.00  0.00    -0.023 A 
ATOM     25  C   UNL     1      -4.698   2.904  25.786  0.00  0.00    -0.003 A 
ATOM     26  C   UNL     1      -3.891   3.063  25.720  0.00  0.00    +0.019 A 
BRANCH  24  27
ATOM     27  C   UNL     1      -5.904   2.374  25.230  0.00  0.00    +0.019 C 
ATOM     28  C   UNL     1      -6.711   2.216  25.296  0.00  0.00    +0.004 C 
ATOM     29  C   UNL     1      -5.802   1.679  24.797  0.00  0.00    +0.004 C 
ATOM     30  C   UNL     1      -6.005   3.069  25.663  0.00  0.00    +0.004 C 
ENDBRANCH  24  27
ENDBRANCH   4  21
BRANCH   7   8
ATOM      8  C   UNL     1      -0.605   2.503  24.868  0.00  0.00    +0.048 C 
ATOM      9  C   UNL     1      -0.195   2.280  24.188  0.00  0.00    +0.035 C 
ATOM     10  C   UNL     1       0.527   1.958  24.419  0.00  0.00    +0.118 C 
ATOM     19  C   UNL     1       0.564   1.981  25.243  0.00  0.00    -0.009 C 
ATOM     20  C   UNL     1      -0.135   2.318  25.520  0.00  0.00    -0.025 C 
BRANCH  10  11
ATOM     11  N   UNL     1       1.111   1.663  23.916  0.00  0.00    -0.199 NA
ATOM     12  C   UNL     1       1.090   0.873  23.678  0.00  0.00    +0.271 C 
ATOM     13  O   UNL     1       0.486   0.378  23.941  0.00  0.00    -0.268 OA
BRANCH  12  14
ATOM     14  C   UNL     1       1.675   0.579  23.174  0.00  0.00    +0.084 A 
ATOM     15  C   UNL     1       2.461   0.830  23.145  0.00  0.00    +0.012 A 
ATOM     16  C   UNL     1       2.848   0.388  22.565  0.00  0.00    +0.008 A 
ATOM     17  C   UNL     1       2.301  -0.135  22.236  0.00  0.00    +0.036 A 
ATOM     18  S   UNL     1       1.576  -0.017  22.613  0.00  0.00    -0.082 S 
ENDBRANCH  12  14
ENDBRANCH  10  11
ENDBRANCH   7   8
TORSDOF 5
ENDMDL
MODEL 7
REMARK VINA RESULT:     -10.4      3.946      5.209
REMARK  Name = 
REMARK  5 active torsions:
REMARK  status: ('A' for Active; 'I' for Inactive)
REMARK    1  A    between atoms: N_4  and  C_21
REMARK    2  A    between atoms: C_7  and  C_8
REMARK    3  A    between atoms: C_10  and  N_11
REMARK    4  A    between atoms: C_12  and  C_14
REMARK    5  A    between atoms: C_24  and  C_27
REMARK                            x       y       z     vdW  Elec       q    Type
REMARK                         _______ _______ _______ _____ _____    ______ ____
ROOT
ATOM      1  C   UNL     1      -0.553  -0.909  25.084  0.00  0.00    +0.054 C 
ATOM      2  C   UNL     1      -1.032  -0.310  24.778  0.00  0.00    +0.077 A 
ATOM      3  N   UNL     1      -1.772  -0.087  25.065  0.00  0.00    -0.170 NA
ATOM      4  N   UNL     1      -2.051   0.532  24.596  0.00  0.00    -0.234 N 
ATOM      5  C   UNL     1      -1.483   0.691  24.020  0.00  0.00    +0.058 A 
ATOM      6  C   UNL     1      -1.536   1.270  23.434  0.00  0.00    +0.052 C 
ATOM      7  C   UNL     1      -0.852   0.171  24.132  0.00  0.00    +0.010 A 
ENDROOT
BRANCH   4  21
ATOM     21  C   UNL     1      -2.772   0.923  24.688  0.00  0.00    +0.082 A 
ATOM     22  C   UNL     1      -3.471   0.560  24.442  0.00  0.00    +0.019 A 
ATOM     23  C   UNL     1      -4.192   0.951  24.533  0.00  0.00    -0.003 A 
ATOM     24  C   UNL     1      -4.214   1.703  24.870  0.00  0.00    -0.023 A 
ATOM     25  C   UNL     1      -3.515   2.066  25.116  0.00  0.00    -0.003 A 
ATOM     26  C   UNL     1      -2.793   1.675  25.025  0.00  0.00    +0.019 A 
BRANCH  24  27
ATOM     27  C   UNL     1      -4.935   2.094  24.962  0.00  0.00    +0.019 C 
ATOM     28  C   UNL     1      -5.656   2.485  25.053  0.00  0.00    +0.004 C 
ATOM     29  C   UNL     1      -5.249   1.428  25.336  0.00  0.00    +0.004 C 
ATOM     30  C   UNL     1      -4.622   2.759  24.587  0.00  0.00    +0.004 C 
ENDBRANCH  24  27
ENDBRANCH   4  21
BRANCH   7   8
ATOM      8  C   UNL     1      -0.164   0.139  23.678  0.00  0.00    +0.048 C 
ATOM      9  C   UNL     1       0.537   0.544  23.829  0.00  0.00    +0.035 C 
ATOM     10  C   UNL     1       1.077   0.350  23.237  0.00  0.00    +0.118 C 
ATOM     19  C   UNL     1       0.708  -0.176  22.719  0.00  0.00    -0.009 C 
ATOM     20  C   UNL     1      -0.058  -0.306  22.991  0.00  0.00    -0.025 C 
BRANCH  10  11
ATOM     11  N   UNL     1       1.850   0.632  23.173  0.00  0.00    -0.199 NA
ATOM     12  C   UNL     1       2.461   0.118  22.968  0.00  0.00    +0.271 C 
ATOM     13  O   UNL     1       2.301  -0.679  22.827  0.00  0.00    -0.268 OA
BRANCH  12  14
ATOM     14  C   UNL     1       3.234   0.400  22.904  0.00  0.00    +0.084 A 
ATOM     15  C   UNL     1       3.457   1.140  22.614  0.00  0.00    +0.012 A 
ATOM     16  C   UNL     1       4.280   1.190  22.649  0.00  0.00    +0.008 A 
ATOM     17  C   UNL     1       4.565   0.481  22.962  0.00  0.00    +0.036 A 
ATOM     18  S   UNL     1       3.918  -0.007  23.119  0.00  0.00    -0.082 S 
ENDBRANCH  12  14
ENDBRANCH  10  11
ENDBRANCH   7   8
TORSDOF 5
ENDMDL
MODEL 8
REMARK VINA RESULT:      -9.9      3.531      4.820
REMARK  Name = 
REMARK  5 active torsions:
REMARK  status: ('A' for Active; 'I' for Inactive)
REMARK    1  A    between atoms: N_4  and  C_21
REMARK    2  A    between atoms: C_7  and  C_8
REMARK    3  A    between atoms: C_10  and  N_11
REMARK    4  A    between atoms: C_12  and  C_14
REMARK    5  A    between atoms: C_24  and  C_27
REMARK                            x       y       z     vdW  Elec       q    Type
REMARK                         _______ _______ _______ _____ _____    ______ ____
ROOT
ATOM      1  C   UNL     1      -1.672  -0.950  25.440  0.00  0.00    +0.054 C 
ATOM      2  C   UNL     1      -1.281  -0.514  24.857  0.00  0.00    +0.077 A 
ATOM      3  N   UNL     1      -0.488  -0.589  24.647  0.00  0.00    -0.170 NA
ATOM      4  N   UNL     1      -0.332  -0.047  24.044  0.00  0.00    -0.234 N 
ATOM      5  C   UNL     1      -1.030   0.362  23.883  0.00  0.00    +0.058 A 
ATOM      6  C   UNL     1      -1.124   0.956  23.317  0.00  0.00    +0.052 C 
ATOM      7  C   UNL     1      -1.617   0.074  24.386  0.00  0.00    +0.010 A 
ENDROOT
BRANCH   4  21
ATOM     21  C   UNL     1       0.394   0.065  23.668  0.00  0.00    +0.082 A 
ATOM     22  C   UNL     1       0.629  -0.448  23.066  0.00  0.00    +0.019 A 
ATOM     23  C   UNL     1       1.356  -0.335  22.690  0.00  0.00    -0.003 A 
ATOM     24  C   UNL     1       1.845   0.288  22.916  0.00  0.00    -0.023 A 
ATOM     25  C   UNL     1       1.610   0.801  23.519  0.00  0.00    -0.003 A 
ATOM     26  C   UNL     1       0.883   0.689  23.895  0.00  0.00    +0.019 A 
BRANCH  24  27
ATOM     27  C   UNL     1       2.571   0.400  22.540  0.00  0.00    +0.019 C 
ATOM     28  C   UNL     1       3.297   0.512  22.164  0.00  0.00    +0.004 C 
ATOM     29  C   UNL     1       2.806   0.910  23.146  0.00  0.00    +0.004 C 
ATOM     30  C   UNL     1       2.336  -0.109  21.935  0.00  0.00    +0.004 C 
ENDBRANCH  24  27
ENDBRANCH   4  21
BRANCH   7   8
ATOM      8  C   UNL     1      -2.401   0.330  24.411  0.00  0.00    +0.048 C 
ATOM      9  C   UNL     1      -2.706   0.911  24.910  0.00  0.00    +0.035 C 
ATOM     10  C   UNL     1      -3.511   0.989  24.749  0.00  0.00    +0.118 C 
ATOM     19  C   UNL     1      -3.704   0.454  24.150  0.00  0.00    -0.009 C 
ATOM     20  C   UNL     1      -3.018   0.047  23.941  0.00  0.00    -0.025 C 
BRANCH  10  11
ATOM     11  N   UNL     1      -4.033   1.508  25.120  0.00  0.00    -0.199 NA
ATOM     12  C   UNL     1      -4.320   2.166  24.714  0.00  0.00    +0.271 C 
ATOM     13  O   UNL     1      -4.086   2.305  23.935  0.00  0.00    -0.268 OA
BRANCH  12  14
ATOM     14  C   UNL     1      -4.842   2.686  25.086  0.00  0.00    +0.084 A 
ATOM     15  C   UNL     1      -5.606   2.505  25.342  0.00  0.00    +0.012 A 
ATOM     16  C   UNL     1      -5.928   3.184  25.682  0.00  0.00    +0.008 A 
ATOM     17  C   UNL     1      -5.364   3.785  25.637  0.00  0.00    +0.036 A 
ATOM     18  S   UNL     1      -4.692   3.476  25.269  0.00  0.00    -0.082 S 
ENDBRANCH  12  14
ENDBRANCH  10  11
ENDBRANCH   7   8
TORSDOF 5
ENDMDL
