MODEL 1
REMARK VINA RESULT:     -14.1      0.000      0.000
REMARK  Name = 
REMARK  4 active torsions:
REMARK  status: ('A' for Active; 'I' for Inactive)
REMARK    1  A    between atoms: C_2  and  C_4
REMARK    2  A    between atoms: C_15  and  N_16
REMARK    3  A    between atoms: N_16  and  S_17
REMARK    4  A    between atoms: S_17  and  C_20
REMARK                            x       y       z     vdW  Elec       q    Type
REMARK                         _______ _______ _______ _____ _____    ______ ____
ROOT
ATOM      4  C   UNL     1      -3.025   3.115  24.642  0.00  0.00    +0.329 C 
ATOM      5  O   UNL     1      -2.366   3.638  24.449  0.00  0.00    -0.263 OA
ATOM      6  N   UNL     1      -3.810   3.256  24.936  0.00  0.00    -0.270 N 
ATOM      7  C   UNL     1      -4.257   3.928  25.154  0.00  0.00    +0.096 C 
ATOM      8  C   UNL     1      -5.100   3.486  25.420  0.00  0.00    +0.043 C 
ATOM      9  C   UNL     1      -5.847   3.281  25.671  0.00  0.00    +0.011 C 
ATOM     10  C   UNL     1      -5.271   2.956  25.436  0.00  0.00    +0.058 C 
ATOM     11  C   UNL     1      -4.463   3.397  25.183  0.00  0.00    +0.100 C 
ATOM     12  C   UNL     1      -4.942   2.119  25.247  0.00  0.00    +0.041 A 
ATOM     13  C   UNL     1      -5.166   1.325  25.261  0.00  0.00    +0.014 A 
ATOM     14  C   UNL     1      -4.633   0.743  25.020  0.00  0.00    +0.024 A 
ATOM     15  C   UNL     1      -3.877   0.954  24.766  0.00  0.00    +0.147 A 
ATOM     26  C   UNL     1      -3.654   1.748  24.753  0.00  0.00    +0.277 A 
ATOM     27  O   UNL     1      -2.782   2.089  24.468  0.00  0.00    -0.266 OA
ATOM     28  N   UNL     1      -4.186   2.330  24.993  0.00  0.00    -0.298 N 
ATOM     29  C   UNL     1      -4.748   2.616  25.219  0.00  0.00    +0.110 C 
ENDROOT
BRANCH   4   2
ATOM      1  O   UNL     1      -3.660   1.774  23.910  0.00  0.00    -0.235 OA
ATOM      2  C   UNL     1      -3.283   2.268  24.663  0.00  0.00    +0.440 C 
ATOM      3  O   UNL     1      -3.292   1.623  25.317  0.00  0.00    -0.235 OA
ENDBRANCH   4   2
BRANCH  15  16
ATOM     16  N   UNL     1      -3.298   0.365  24.508  0.00  0.00    -0.092 NA
BRANCH  16  17
ATOM     17  S   UNL     1      -3.462  -0.456  24.540  0.00  0.00    +0.093 S 
ATOM     18  O   UNL     1      -3.567  -0.552  23.676  0.00  0.00    -0.148 OA
ATOM     19  O   UNL     1      -3.387  -0.508  25.408  0.00  0.00    -0.148 OA
BRANCH  17  20
ATOM     20  C   UNL     1      -3.637  -1.255  24.416  0.00  0.00    +0.127 A 
ATOM     21  C   UNL     1      -3.205  -1.757  24.908  0.00  0.00    +0.020 A 
ATOM     22  C   UNL     1      -3.310  -2.573  24.858  0.00  0.00    +0.001 A 
ATOM     23  C   UNL     1      -3.847  -2.888  24.317  0.00  0.00    +0.000 A 
ATOM     24  C   UNL     1      -4.279  -2.386  23.825  0.00  0.00    +0.001 A 
ATOM     25  C   UNL     1      -4.174  -1.570  23.874  0.00  0.00    +0.020 A 
ENDBRANCH  17  20
ENDBRANCH  16  17
ENDBRANCH  15  16
TORSDOF 4
ENDMDL
MODEL 2
REMARK VINA RESULT:     -13.5      1.191      4.351
REMARK  Name = 
REMARK  4 active torsions:
REMARK  status: ('A' for Active; 'I' for Inactive)
REMARK    1  A    between atoms: C_2  and  C_4
REMARK    2  A    between atoms: C_15  and  N_16
REMARK    3  A    between atoms: N_16  and  S_17
REMARK    4  A    between atoms: S_17  and  C_20
REMARK                            x       y       z     vdW  Elec       q    Type
REMARK                         _______ _______ _______ _____ _____    ______ ____
ROOT
ATOM      4  C   UNL     1      -1.493  -1.108  24.869  0.00  0.00    +0.329 C 
ATOM      5  O   UNL     1      -0.648  -1.189  25.025  0.00  0.00    -0.263 OA
ATOM      6  N   UNL     1      -2.107  -1.672  24.699  0.00  0.00    -0.270 N 
ATOM      7  C   UNL     1      -2.153  -2.502  24.615  0.00  0.00    +0.096 C 
ATOM      8  C   UNL     1      -3.117  -2.595  24.419  0.00  0.00    +0.043 C 
ATOM      9  C   UNL     1      -3.876  -2.838  24.250  0.00  0.00    +0.011 C 
ATOM     10  C   UNL     1      -3.539  -2.234  24.370  0.00  0.00    +0.058 C 
ATOM     11  C   UNL     1      -2.606  -2.161  24.558  0.00  0.00    +0.100 C 
ATOM     12  C   UNL     1      -3.682  -1.328  24.425  0.00  0.00    +0.041 A 
ATOM     13  C   UNL     1      -4.285  -0.770  24.359  0.00  0.00    +0.014 A 
ATOM     14  C   UNL     1      -4.119   0.031  24.464  0.00  0.00    +0.024 A 
ATOM     15  C   UNL     1      -3.349   0.274  24.635  0.00  0.00    +0.147 A 
ATOM     26  C   UNL     1      -2.746  -0.285  24.701  0.00  0.00    +0.277 A 
ATOM     27  O   UNL     1      -1.808  -0.088  24.901  0.00  0.00    -0.266 OA
ATOM     28  N   UNL     1      -2.912  -1.086  24.596  0.00  0.00    -0.298 N 
ATOM     29  C   UNL     1      -3.257  -1.647  24.478  0.00  0.00    +0.110 C 
ENDROOT
BRANCH   4   2
ATOM      1  O   UNL     1      -2.366  -0.011  23.991  0.00  0.00    -0.235 OA
ATOM      2  C   UNL     1      -2.154  -0.524  24.794  0.00  0.00    +0.440 C 
ATOM      3  O   UNL     1      -2.804  -0.222  25.369  0.00  0.00    -0.235 OA
ENDBRANCH   4   2
BRANCH  15  16
ATOM     16  N   UNL     1      -3.146   1.108  24.750  0.00  0.00    -0.092 NA
BRANCH  16  17
ATOM     17  S   UNL     1      -3.734   1.702  24.790  0.00  0.00    +0.093 S 
ATOM     18  O   UNL     1      -3.677   1.815  25.657  0.00  0.00    -0.148 OA
ATOM     19  O   UNL     1      -3.897   1.697  23.933  0.00  0.00    -0.148 OA
BRANCH  17  20
ATOM     20  C   UNL     1      -4.285   2.289  24.984  0.00  0.00    +0.127 A 
ATOM     21  C   UNL     1      -3.989   3.052  24.879  0.00  0.00    +0.020 A 
ATOM     22  C   UNL     1      -4.464   3.705  25.046  0.00  0.00    +0.001 A 
ATOM     23  C   UNL     1      -5.235   3.595  25.317  0.00  0.00    +0.000 A 
ATOM     24  C   UNL     1      -5.531   2.832  25.422  0.00  0.00    +0.001 A 
ATOM     25  C   UNL     1      -5.056   2.179  25.255  0.00  0.00    +0.020 A 
ENDBRANCH  17  20
ENDBRANCH  16  17
ENDBRANCH  15  16
TORSDOF 4
ENDMDL
