MODEL 1
REMARK VINA RESULT:     -18.6      0.000      0.000
REMARK  Name = 
REMARK  2 active torsions:
REMARK  status: ('A' for Active; 'I' for Inactive)
REMARK    1  A    between atoms: C_2  and  N_4
REMARK    2  A    between atoms: C_14  and  C_21
REMARK                            x       y       z     vdW  Elec       q    Type
REMARK                         _______ _______ _______ _____ _____    ______ ____
ROOT
ATOM      4  N   UNL     1      -3.554   3.226  25.238  0.00  0.00    -0.190 NA
ATOM      5  C   UNL     1      -4.311   3.500  25.420  0.00  0.00    +0.323 C 
ATOM      6  O   UNL     1      -4.426   4.291  25.622  0.00  0.00    -0.251 OA
ATOM      7  N   UNL     1      -4.953   2.982  25.401  0.00  0.00    -0.262 N 
ATOM      8  C   UNL     1      -5.744   2.718  25.464  0.00  0.00    +0.097 C 
ATOM      9  C   UNL     1      -5.620   1.767  25.224  0.00  0.00    +0.043 C 
ATOM     10  C   UNL     1      -5.686   0.974  25.050  0.00  0.00    +0.011 C 
ATOM     11  C   UNL     1      -5.178   1.458  25.082  0.00  0.00    +0.058 C 
ATOM     12  C   UNL     1      -5.314   2.373  25.316  0.00  0.00    +0.101 C 
ATOM     13  C   UNL     1      -4.273   1.561  24.964  0.00  0.00    +0.041 A 
ATOM     14  C   UNL     1      -3.600   1.129  24.759  0.00  0.00    +0.012 A 
ATOM     15  C   UNL     1      -2.865   1.502  24.729  0.00  0.00    +0.006 A 
ATOM     16  C   UNL     1      -2.802   2.305  24.906  0.00  0.00    +0.061 A 
ATOM     17  C   UNL     1      -3.474   2.737  25.112  0.00  0.00    +0.261 A 
ATOM     18  O   UNL     1      -2.945   3.366  25.175  0.00  0.00    -0.267 OA
ATOM     19  N   UNL     1      -4.209   2.364  25.141  0.00  0.00    -0.299 N 
ATOM     20  C   UNL     1      -4.675   1.885  25.103  0.00  0.00    +0.110 C 
ENDROOT
BRANCH  14  21
ATOM     21  C   UNL     1      -3.664   0.326  24.582  0.00  0.00    +0.001 A 
ATOM     22  C   UNL     1      -3.900   0.086  23.829  0.00  0.00    +0.000 A 
ATOM     23  C   UNL     1      -3.963  -0.717  23.652  0.00  0.00    +0.000 A 
ATOM     24  C   UNL     1      -3.790  -1.281  24.229  0.00  0.00    +0.000 A 
ATOM     25  C   UNL     1      -3.854  -2.084  24.053  0.00  0.00    +0.000 A 
ATOM     26  C   UNL     1      -3.681  -2.649  24.629  0.00  0.00    +0.000 A 
ATOM     27  C   UNL     1      -3.445  -2.409  25.383  0.00  0.00    +0.000 A 
ATOM     28  C   UNL     1      -3.382  -1.605  25.559  0.00  0.00    +0.000 A 
ATOM     29  C   UNL     1      -3.554  -1.041  24.982  0.00  0.00    +0.000 A 
ATOM     30  C   UNL     1      -3.491  -0.238  25.159  0.00  0.00    +0.000 A 
ENDBRANCH  14  21
BRANCH   4   2
ATOM      1  C   UNL     1      -2.685   4.145  24.574  0.00  0.00    +0.023 C 
ATOM      2  C   UNL     1      -2.913   3.744  25.257  0.00  0.00    +0.097 C 
ATOM      3  C   UNL     1      -2.499   3.861  25.962  0.00  0.00    +0.023 C 
ENDBRANCH   4   2
TORSDOF 2
ENDMDL
MODEL 2
REMARK VINA RESULT:     -18.1      1.003      2.020
REMARK  Name = 
REMARK  2 active torsions:
REMARK  status: ('A' for Active; 'I' for Inactive)
REMARK    1  A    between atoms: C_2  and  N_4
REMARK    2  A    between atoms: C_14  and  C_21
REMARK                            x       y       z     vdW  Elec       q    Type
REMARK                         _______ _______ _______ _____ _____    ______ ____
ROOT
ATOM      4  N   UNL     1      -4.489   2.744  24.800  0.00  0.00    -0.190 NA
ATOM      5  C   UNL     1      -4.009   3.127  24.249  0.00  0.00    +0.323 C 
ATOM      6  O   UNL     1      -4.086   3.939  24.128  0.00  0.00    -0.251 OA
ATOM      7  N   UNL     1      -3.451   2.697  23.819  0.00  0.00    -0.262 N 
ATOM      8  C   UNL     1      -2.839   2.544  23.271  0.00  0.00    +0.097 C 
ATOM      9  C   UNL     1      -2.736   1.571  23.406  0.00  0.00    +0.043 C 
ATOM     10  C   UNL     1      -2.530   0.782  23.398  0.00  0.00    +0.011 C 
ATOM     11  C   UNL     1      -2.986   1.196  23.735  0.00  0.00    +0.058 C 
ATOM     12  C   UNL     1      -3.074   2.137  23.593  0.00  0.00    +0.101 C 
ATOM     13  C   UNL     1      -3.648   1.171  24.372  0.00  0.00    +0.041 A 
ATOM     14  C   UNL     1      -4.037   0.642  24.871  0.00  0.00    +0.012 A 
ATOM     15  C   UNL     1      -4.632   0.912  25.374  0.00  0.00    +0.006 A 
ATOM     16  C   UNL     1      -4.838   1.711  25.380  0.00  0.00    +0.061 A 
ATOM     17  C   UNL     1      -4.448   2.240  24.881  0.00  0.00    +0.261 A 
ATOM     18  O   UNL     1      -4.949   2.798  25.225  0.00  0.00    -0.267 OA
ATOM     19  N   UNL     1      -3.853   1.970  24.377  0.00  0.00    -0.299 N 
ATOM     20  C   UNL     1      -3.428   1.554  24.071  0.00  0.00    +0.110 C 
ENDROOT
BRANCH  14  21
ATOM     21  C   UNL     1      -3.832  -0.157  24.865  0.00  0.00    +0.001 A 
ATOM     22  C   UNL     1      -3.248  -0.436  25.377  0.00  0.00    +0.000 A 
ATOM     23  C   UNL     1      -3.043  -1.236  25.372  0.00  0.00    +0.000 A 
ATOM     24  C   UNL     1      -3.421  -1.755  24.855  0.00  0.00    +0.000 A 
ATOM     25  C   UNL     1      -3.215  -2.553  24.850  0.00  0.00    +0.000 A 
ATOM     26  C   UNL     1      -3.593  -3.074  24.333  0.00  0.00    +0.000 A 
ATOM     27  C   UNL     1      -4.176  -2.795  23.821  0.00  0.00    +0.000 A 
ATOM     28  C   UNL     1      -4.382  -1.995  23.826  0.00  0.00    +0.000 A 
ATOM     29  C   UNL     1      -4.004  -1.476  24.343  0.00  0.00    +0.000 A 
ATOM     30  C   UNL     1      -4.209  -0.677  24.348  0.00  0.00    +0.000 A 
ENDBRANCH  14  21
BRANCH   4   2
ATOM      1  C   UNL     1      -5.842   3.151  25.013  0.00  0.00    +0.023 C 
ATOM      2  C   UNL     1      -5.047   3.174  25.229  0.00  0.00    +0.097 C 
ATOM      3  C   UNL     1      -4.808   3.627  25.877  0.00  0.00    +0.023 C 
ENDBRANCH   4   2
TORSDOF 2
ENDMDL
