MODEL 1
REMARK VINA RESULT:      -9.2      0.000      0.000
REMARK  Name = 
REMARK  5 active torsions:
REMARK  status: ('A' for Active; 'I' for Inactive)
REMARK    1  A    between atoms: O_2  and  C_3
REMARK    2  A    between atoms: C_3  and  C_4
REMARK    3  A    between atoms: N_6  and  C_7
REMARK    4  A    between atoms: C_11  and  N_15
REMARK    5  A    between atoms: C_18  and  C_22
REMARK                            x       y       z     vdW  Elec       q    Type
REMARK                         _______ _______ _______ _____ _____    ______ ____
ROOT
ATOM     15  N   UNL     1      -1.062   1.188  24.603  0.00  0.00    -0.200 NA
ATOM     16  C   UNL     1      -1.633   1.776  24.513  0.00  0.00    +0.237 A 
ATOM     17  N   UNL     1      -2.424   1.612  24.684  0.00  0.00    -0.212 NA
ATOM     18  C   UNL     1      -2.996   2.200  24.594  0.00  0.00    +0.086 A 
ATOM     19  C   UNL     1      -2.777   2.952  24.334  0.00  0.00    +0.040 A 
ATOM     20  C   UNL     1      -1.987   3.116  24.163  0.00  0.00    +0.103 A 
ATOM     21  N   UNL     1      -1.415   2.528  24.253  0.00  0.00    -0.211 NA
ENDROOT
BRANCH  18  22
ATOM     22  C   UNL     1      -3.786   2.037  24.765  0.00  0.00    +0.021 A 
ATOM     23  C   UNL     1      -4.216   2.543  25.253  0.00  0.00    +0.042 A 
ATOM     24  C   UNL     1      -5.006   2.380  25.424  0.00  0.00    +0.176 A 
ATOM     25  C   UNL     1      -5.367   1.709  25.106  0.00  0.00    +0.176 A 
ATOM     26  O   UNL     1      -6.148   1.690  25.369  0.00  0.00    -0.435 OA
ATOM     27  C   UNL     1      -6.271   2.348  25.850  0.00  0.00    +0.429 C 
ATOM     28  O   UNL     1      -5.565   2.774  25.883  0.00  0.00    -0.435 OA
ATOM     29  C   UNL     1      -4.936   1.202  24.617  0.00  0.00    +0.040 A 
ATOM     30  C   UNL     1      -4.146   1.366  24.447  0.00  0.00    +0.005 A 
ENDBRANCH  18  22
BRANCH  15  11
ATOM      7  C   UNL     1       1.439   0.856  23.395  0.00  0.00    +0.154 C 
ATOM      8  C   UNL     1       0.991   0.239  23.079  0.00  0.00    +0.166 C 
ATOM      9  O   UNL     1       0.233   0.283  23.401  0.00  0.00    -0.350 OA
ATOM     10  C   UNL     1       0.211   0.927  23.915  0.00  0.00    +0.166 C 
ATOM     11  C   UNL     1      -0.272   1.352  24.433  0.00  0.00    +0.154 C 
ATOM     12  C   UNL     1       0.175   1.969  24.749  0.00  0.00    +0.166 C 
ATOM     13  O   UNL     1       0.934   1.925  24.427  0.00  0.00    -0.350 OA
ATOM     14  C   UNL     1       0.956   1.282  23.912  0.00  0.00    +0.166 C 
BRANCH   7   6
ATOM      4  C   UNL     1       2.691   0.458  22.836  0.00  0.00    +0.272 C 
ATOM      5  O   UNL     1       2.364  -0.266  22.619  0.00  0.00    -0.271 OA
ATOM      6  N   UNL     1       2.228   1.020  23.225  0.00  0.00    -0.200 NA
BRANCH   4   3
ATOM      3  C   UNL     1       3.482   0.623  22.666  0.00  0.00    +0.229 C 
BRANCH   3   2
ATOM      1  C   UNL     1       4.848   0.438  23.040  0.00  0.00    +0.175 C 
ATOM      2  O   UNL     1       4.078   0.148  22.981  0.00  0.00    -0.342 OA
ENDBRANCH   3   2
ENDBRANCH   4   3
ENDBRANCH   7   6
ENDBRANCH  15  11
TORSDOF 5
ENDMDL
MODEL 2
REMARK VINA RESULT:      -8.2      2.139      2.670
REMARK  Name = 
REMARK  5 active torsions:
REMARK  status: ('A' for Active; 'I' for Inactive)
REMARK    1  A    between atoms: O_2  and  C_3
REMARK    2  A    between atoms: C_3  and  C_4
REMARK    3  A    between atoms: N_6  and  C_7
REMARK    4  A    between atoms: C_11  and  N_15
REMARK    5  A    between atoms: C_18  and  C_22
REMARK                            x       y       z     vdW  Elec       q    Type
REMARK                         _______ _______ _______ _____ _____    ______ ____
ROOT
ATOM     15  N   UNL     1      -0.226   0.410  23.356  0.00  0.00    -0.200 NA
ATOM     16  C   UNL     1      -0.677   0.202  24.016  0.00  0.00    +0.237 A 
ATOM     17  N   UNL     1      -1.442  -0.093  23.917  0.00  0.00    -0.212 NA
ATOM     18  C   UNL     1      -1.892  -0.301  24.576  0.00  0.00    +0.086 A 
ATOM     19  C   UNL     1      -1.577  -0.214  25.334  0.00  0.00    +0.040 A 
ATOM     20  C   UNL     1      -0.814   0.081  25.433  0.00  0.00    +0.103 A 
ATOM     21  N   UNL     1      -0.364   0.289  24.774  0.00  0.00    -0.211 NA
ENDROOT
BRANCH  18  22
ATOM     22  C   UNL     1      -2.655  -0.596  24.477  0.00  0.00    +0.021 A 
ATOM     23  C   UNL     1      -2.770  -1.387  24.277  0.00  0.00    +0.042 A 
ATOM     24  C   UNL     1      -3.534  -1.682  24.178  0.00  0.00    +0.176 A 
ATOM     25  C   UNL     1      -4.184  -1.185  24.280  0.00  0.00    +0.176 A 
ATOM     26  O   UNL     1      -4.867  -1.627  24.147  0.00  0.00    -0.435 OA
ATOM     27  C   UNL     1      -4.639  -2.398  23.963  0.00  0.00    +0.429 C 
ATOM     28  O   UNL     1      -3.815  -2.432  23.982  0.00  0.00    -0.435 OA
ATOM     29  C   UNL     1      -4.070  -0.392  24.480  0.00  0.00    +0.040 A 
ATOM     30  C   UNL     1      -3.306  -0.098  24.579  0.00  0.00    +0.005 A 
ENDBRANCH  18  22
BRANCH  15  11
ATOM      7  C   UNL     1       2.535   0.605  22.958  0.00  0.00    +0.154 C 
ATOM      8  C   UNL     1       2.315  -0.018  22.463  0.00  0.00    +0.166 C 
ATOM      9  O   UNL     1       1.500  -0.126  22.536  0.00  0.00    -0.350 OA
ATOM     10  C   UNL     1       1.217   0.429  23.076  0.00  0.00    +0.166 C 
ATOM     11  C   UNL     1       0.537   0.704  23.455  0.00  0.00    +0.154 C 
ATOM     12  C   UNL     1       0.757   1.327  23.950  0.00  0.00    +0.166 C 
ATOM     13  O   UNL     1       1.572   1.435  23.877  0.00  0.00    -0.350 OA
ATOM     14  C   UNL     1       1.856   0.881  23.338  0.00  0.00    +0.166 C 
BRANCH   7   6
ATOM      4  C   UNL     1       3.943   0.385  23.050  0.00  0.00    +0.272 C 
ATOM      5  O   UNL     1       3.823  -0.424  22.943  0.00  0.00    -0.271 OA
ATOM      6  N   UNL     1       3.298   0.899  23.057  0.00  0.00    -0.200 NA
BRANCH   4   3
ATOM      3  C   UNL     1       4.707   0.680  23.149  0.00  0.00    +0.229 C 
BRANCH   3   2
ATOM      1  C   UNL     1       5.982   0.478  23.761  0.00  0.00    +0.175 C 
ATOM      2  O   UNL     1       5.317   0.175  23.379  0.00  0.00    -0.342 OA
ENDBRANCH   3   2
ENDBRANCH   4   3
ENDBRANCH   7   6
ENDBRANCH  15  11
TORSDOF 5
ENDMDL
MODEL 3
REMARK VINA RESULT:      -8.1      1.157      7.015
REMARK  Name = 
REMARK  5 active torsions:
REMARK  status: ('A' for Active; 'I' for Inactive)
REMARK    1  A    between atoms: O_2  and  C_3
REMARK    2  A    between atoms: C_3  and  C_4
REMARK    3  A    between atoms: N_6  and  C_7
REMARK    4  A    between atoms: C_11  and  N_15
REMARK    5  A    between atoms: C_18  and  C_22
REMARK                            x       y       z     vdW  Elec       q    Type
REMARK                         _______ _______ _______ _____ _____    ______ ____
ROOT
ATOM     15  N   UNL     1       0.461   0.998  24.039  0.00  0.00    -0.200 NA
ATOM     16  C   UNL     1       0.921   0.591  23.489  0.00  0.00    +0.237 A 
ATOM     17  N   UNL     1       1.744   0.666  23.502  0.00  0.00    -0.212 NA
ATOM     18  C   UNL     1       2.204   0.260  22.952  0.00  0.00    +0.086 A 
ATOM     19  C   UNL     1       1.843  -0.223  22.389  0.00  0.00    +0.040 A 
ATOM     20  C   UNL     1       1.022  -0.298  22.375  0.00  0.00    +0.103 A 
ATOM     21  N   UNL     1       0.561   0.108  22.925  0.00  0.00    -0.211 NA
ENDROOT
BRANCH  18  22
ATOM     22  C   UNL     1       3.025   0.335  22.966  0.00  0.00    +0.021 A 
ATOM     23  C   UNL     1       3.486  -0.235  23.342  0.00  0.00    +0.042 A 
ATOM     24  C   UNL     1       4.307  -0.160  23.356  0.00  0.00    +0.176 A 
ATOM     25  C   UNL     1       4.668   0.487  22.993  0.00  0.00    +0.176 A 
ATOM     26  O   UNL     1       5.483   0.416  23.095  0.00  0.00    -0.435 OA
ATOM     27  C   UNL     1       5.627  -0.275  23.521  0.00  0.00    +0.429 C 
ATOM     28  O   UNL     1       4.900  -0.630  23.683  0.00  0.00    -0.435 OA
ATOM     29  C   UNL     1       4.207   1.059  22.615  0.00  0.00    +0.040 A 
ATOM     30  C   UNL     1       3.385   0.982  22.602  0.00  0.00    +0.005 A 
ENDBRANCH  18  22
BRANCH  15  11
ATOM      7  C   UNL     1      -2.206   1.836  23.965  0.00  0.00    +0.154 C 
ATOM      8  C   UNL     1      -1.783   2.545  23.953  0.00  0.00    +0.166 C 
ATOM      9  O   UNL     1      -0.979   2.363  23.973  0.00  0.00    -0.350 OA
ATOM     10  C   UNL     1      -0.905   1.542  23.998  0.00  0.00    +0.166 C 
ATOM     11  C   UNL     1      -0.360   0.922  24.026  0.00  0.00    +0.154 C 
ATOM     12  C   UNL     1      -0.783   0.213  24.038  0.00  0.00    +0.166 C 
ATOM     13  O   UNL     1      -1.587   0.395  24.017  0.00  0.00    -0.350 OA
ATOM     14  C   UNL     1      -1.662   1.216  23.993  0.00  0.00    +0.166 C 
BRANCH   7   6
ATOM      4  C   UNL     1      -3.496   2.273  24.396  0.00  0.00    +0.272 C 
ATOM      5  O   UNL     1      -3.143   2.861  24.854  0.00  0.00    -0.271 OA
ATOM      6  N   UNL     1      -3.027   1.761  23.951  0.00  0.00    -0.200 NA
BRANCH   4   3
ATOM      3  C   UNL     1      -4.317   2.197  24.382  0.00  0.00    +0.229 C 
BRANCH   3   2
ATOM      1  C   UNL     1      -5.556   2.182  25.095  0.00  0.00    +0.175 C 
ATOM      2  O   UNL     1      -4.761   2.397  25.048  0.00  0.00    -0.342 OA
ENDBRANCH   3   2
ENDBRANCH   4   3
ENDBRANCH   7   6
ENDBRANCH  15  11
TORSDOF 5
ENDMDL
MODEL 4
REMARK VINA RESULT:      -8.0      1.356      6.667
REMARK  Name = 
REMARK  5 active torsions:
REMARK  status: ('A' for Active; 'I' for Inactive)
REMARK    1  A    between atoms: O_2  and  C_3
REMARK    2  A    between atoms: C_3  and  C_4
REMARK    3  A    between atoms: N_6  and  C_7
REMARK    4  A    between atoms: C_11  and  N_15
REMARK    5  A    between atoms: C_18  and  C_22
REMARK                            x       y       z     vdW  Elec       q    Type
REMARK                         _______ _______ _______ _____ _____    ______ ____
ROOT
ATOM     15  N   UNL     1      -1.642   1.429  23.250  0.00  0.00    -0.200 NA
ATOM     16  C   UNL     1      -1.094   0.883  23.537  0.00  0.00    +0.237 A 
ATOM     17  N   UNL     1      -0.334   0.853  23.217  0.00  0.00    -0.212 NA
ATOM     18  C   UNL     1       0.214   0.307  23.504  0.00  0.00    +0.086 A 
ATOM     19  C   UNL     1       0.001  -0.210  24.111  0.00  0.00    +0.040 A 
ATOM     20  C   UNL     1      -0.758  -0.180  24.432  0.00  0.00    +0.103 A 
ATOM     21  N   UNL     1      -1.305   0.366  24.145  0.00  0.00    -0.211 NA
ENDROOT
BRANCH  18  22
ATOM     22  C   UNL     1       0.973   0.277  23.183  0.00  0.00    +0.021 A 
ATOM     23  C   UNL     1       1.553   0.798  23.450  0.00  0.00    +0.042 A 
ATOM     24  C   UNL     1       2.313   0.769  23.129  0.00  0.00    +0.176 A 
ATOM     25  C   UNL     1       2.492   0.218  22.542  0.00  0.00    +0.176 A 
ATOM     26  O   UNL     1       3.283   0.318  22.331  0.00  0.00    -0.435 OA
ATOM     27  C   UNL     1       3.593   0.930  22.787  0.00  0.00    +0.429 C 
ATOM     28  O   UNL     1       2.994   1.209  23.281  0.00  0.00    -0.435 OA
ATOM     29  C   UNL     1       1.910  -0.303  22.274  0.00  0.00    +0.040 A 
ATOM     30  C   UNL     1       1.151  -0.273  22.596  0.00  0.00    +0.005 A 
ENDBRANCH  18  22
BRANCH  15  11
ATOM      7  C   UNL     1      -3.914   2.586  24.399  0.00  0.00    +0.154 C 
ATOM      8  C   UNL     1      -3.403   3.226  24.301  0.00  0.00    +0.166 C 
ATOM      9  O   UNL     1      -2.705   2.947  23.961  0.00  0.00    -0.350 OA
ATOM     10  C   UNL     1      -2.785   2.134  23.850  0.00  0.00    +0.166 C 
ATOM     11  C   UNL     1      -2.401   1.458  23.571  0.00  0.00    +0.154 C 
ATOM     12  C   UNL     1      -2.912   0.817  23.669  0.00  0.00    +0.166 C 
ATOM     13  O   UNL     1      -3.610   1.097  24.009  0.00  0.00    -0.350 OA
ATOM     14  C   UNL     1      -3.531   1.910  24.120  0.00  0.00    +0.166 C 
BRANCH   7   6
ATOM      4  C   UNL     1      -4.814   3.050  25.406  0.00  0.00    +0.272 C 
ATOM      5  O   UNL     1      -4.196   3.456  25.771  0.00  0.00    -0.271 OA
ATOM      6  N   UNL     1      -4.673   2.615  24.719  0.00  0.00    -0.200 NA
BRANCH   4   3
ATOM      3  C   UNL     1      -5.574   3.080  25.726  0.00  0.00    +0.229 C 
BRANCH   3   2
ATOM      1  C   UNL     1      -6.442   2.261  26.513  0.00  0.00    +0.175 C 
ATOM      2  O   UNL     1      -5.739   2.685  26.432  0.00  0.00    -0.342 OA
ENDBRANCH   3   2
ENDBRANCH   4   3
ENDBRANCH   7   6
ENDBRANCH  15  11
TORSDOF 5
ENDMDL
