MODEL 1
REMARK VINA RESULT:      -9.9      0.000      0.000
REMARK  Name = 
REMARK  7 active torsions:
REMARK  status: ('A' for Active; 'I' for Inactive)
REMARK    1  A    between atoms: C_4  and  N_19
REMARK    2  A    between atoms: C_6  and  C_7
REMARK    3  A    between atoms: C_9  and  C_12
REMARK    4  A    between atoms: C_20  and  C_22
REMARK    5  A    between atoms: C_22  and  O_23
REMARK    6  A    between atoms: O_23  and  C_24
REMARK    7  A    between atoms: C_24  and  C_25
REMARK                            x       y       z     vdW  Elec       q    Type
REMARK                         _______ _______ _______ _____ _____    ______ ____
ROOT
ATOM      1  C   UNL     1      -5.548   3.039  25.047  0.00  0.00    +0.090 C 
ATOM      2  N   UNL     1      -5.098   2.348  25.080  0.00  0.00    -0.264 NA
ATOM      3  C   UNL     1      -5.365   1.587  24.908  0.00  0.00    +0.094 C 
ATOM      4  C   UNL     1      -4.734   1.066  25.013  0.00  0.00    +0.113 C 
ATOM      5  C   UNL     1      -4.077   1.505  25.250  0.00  0.00    +0.049 C 
ATOM      6  C   UNL     1      -4.301   2.298  25.291  0.00  0.00    +0.139 C 
ENDROOT
BRANCH   6   7
ATOM      7  C   UNL     1      -3.815   2.929  25.506  0.00  0.00    +0.251 A 
ATOM      8  N   UNL     1      -3.128   3.167  25.117  0.00  0.00    -0.190 NA
ATOM      9  C   UNL     1      -2.820   3.818  25.519  0.00  0.00    +0.203 A 
ATOM     10  N   UNL     1      -3.316   3.983  26.156  0.00  0.00    -0.056 NA
ATOM     11  O   UNL     1      -3.932   3.433  26.148  0.00  0.00    -0.336 OA
BRANCH   9  12
ATOM     12  C   UNL     1      -2.134   4.231  25.317  0.00  0.00    +0.039 A 
ATOM     13  C   UNL     1      -1.432   3.823  25.178  0.00  0.00    +0.005 A 
ATOM     14  C   UNL     1      -0.747   4.236  24.977  0.00  0.00    +0.030 A 
ATOM     15  C   UNL     1      -0.765   5.059  24.915  0.00  0.00    +0.140 A 
ATOM     16  F   UNL     1      -0.080   5.473  24.714  0.00  0.00    -0.204 F 
ATOM     17  C   UNL     1      -1.468   5.468  25.055  0.00  0.00    +0.030 A 
ATOM     18  C   UNL     1      -2.152   5.054  25.256  0.00  0.00    +0.005 A 
ENDBRANCH   9  12
ENDBRANCH   6   7
BRANCH   4  19
ATOM     19  N   UNL     1      -4.756   0.249  24.901  0.00  0.00    -0.204 NA
ATOM     20  C   UNL     1      -4.339  -0.093  24.276  0.00  0.00    +0.272 C 
ATOM     21  O   UNL     1      -3.901   0.382  23.763  0.00  0.00    -0.271 OA
BRANCH  20  22
ATOM     22  C   UNL     1      -4.362  -0.910  24.164  0.00  0.00    +0.229 C 
BRANCH  22  23
ATOM     23  O   UNL     1      -3.682  -1.362  24.288  0.00  0.00    -0.333 OA
BRANCH  23  24
ATOM     24  C   UNL     1      -3.713  -2.183  24.208  0.00  0.00    +0.257 C 
BRANCH  24  25
ATOM     25  C   UNL     1      -3.140  -2.653  24.569  0.00  0.00    +0.394 C 
ATOM     26  O   UNL     1      -3.343  -3.133  25.209  0.00  0.00    -0.243 OA
ATOM     27  O   UNL     1      -2.363  -2.645  24.290  0.00  0.00    -0.243 OA
ENDBRANCH  24  25
ENDBRANCH  23  24
ENDBRANCH  22  23
ENDBRANCH  20  22
ENDBRANCH   4  19
TORSDOF 7
ENDMDL
MODEL 2
REMARK VINA RESULT:      -9.6      3.216      6.421
REMARK  Name = 
REMARK  7 active torsions:
REMARK  status: ('A' for Active; 'I' for Inactive)
REMARK    1  A    between atoms: C_4  and  N_19
REMARK    2  A    between atoms: C_6  and  C_7
REMARK    3  A    between atoms: C_9  and  C_12
REMARK    4  A    between atoms: C_20  and  C_22
REMARK    5  A    between atoms: C_22  and  O_23
REMARK    6  A    between atoms: O_23  and  C_24
REMARK    7  A    between atoms: C_24  and  C_25
REMARK                            x       y       z     vdW  Elec       q    Type
REMARK                         _______ _______ _______ _____ _____    ______ ____
ROOT
ATOM      1  C   UNL     1       0.271  -0.507  23.624  0.00  0.00    +0.090 C 
ATOM      2  N   UNL     1      -0.020   0.134  24.055  0.00  0.00    -0.264 NA
ATOM      3  C   UNL     1       0.295   0.896  24.066  0.00  0.00    +0.094 C 
ATOM      4  C   UNL     1      -0.169   1.356  24.568  0.00  0.00    +0.113 C 
ATOM      5  C   UNL     1      -0.771   0.880  24.868  0.00  0.00    +0.049 C 
ATOM      6  C   UNL     1      -0.680   0.123  24.551  0.00  0.00    +0.139 C 
ENDROOT
BRANCH   6   7
ATOM      7  C   UNL     1      -1.163  -0.528  24.704  0.00  0.00    +0.251 A 
ATOM      8  N   UNL     1      -1.876  -0.702  24.328  0.00  0.00    -0.190 NA
ATOM      9  C   UNL     1      -2.171  -1.401  24.652  0.00  0.00    +0.203 A 
ATOM     10  N   UNL     1      -1.640  -1.660  25.228  0.00  0.00    -0.056 NA
ATOM     11  O   UNL     1      -1.017  -1.119  25.260  0.00  0.00    -0.336 OA
BRANCH   9  12
ATOM     12  C   UNL     1      -2.874  -1.776  24.437  0.00  0.00    +0.039 A 
ATOM     13  C   UNL     1      -3.527  -1.328  24.207  0.00  0.00    +0.005 A 
ATOM     14  C   UNL     1      -4.230  -1.703  23.992  0.00  0.00    +0.030 A 
ATOM     15  C   UNL     1      -4.279  -2.526  24.007  0.00  0.00    +0.140 A 
ATOM     16  F   UNL     1      -4.981  -2.902  23.792  0.00  0.00    -0.204 F 
ATOM     17  C   UNL     1      -3.625  -2.974  24.237  0.00  0.00    +0.030 A 
ATOM     18  C   UNL     1      -2.923  -2.599  24.452  0.00  0.00    +0.005 A 
ENDBRANCH   9  12
ENDBRANCH   6   7
BRANCH   4  19
ATOM     19  N   UNL     1      -0.050   2.155  24.740  0.00  0.00    -0.204 NA
ATOM     20  C   UNL     1      -0.476   2.732  24.332  0.00  0.00    +0.272 C 
ATOM     21  O   UNL     1      -1.018   2.511  23.751  0.00  0.00    -0.271 OA
BRANCH  20  22
ATOM     22  C   UNL     1      -0.357   3.530  24.504  0.00  0.00    +0.229 C 
BRANCH  22  23
ATOM     23  O   UNL     1      -1.002   4.012  24.688  0.00  0.00    -0.333 OA
BRANCH  23  24
ATOM     24  C   UNL     1      -0.877   4.768  24.995  0.00  0.00    +0.257 C 
BRANCH  24  25
ATOM     25  C   UNL     1      -1.521   5.234  25.215  0.00  0.00    +0.394 C 
ATOM     26  O   UNL     1      -2.127   4.910  25.672  0.00  0.00    -0.243 OA
ATOM     27  O   UNL     1      -1.559   6.024  24.979  0.00  0.00    -0.243 OA
ENDBRANCH  24  25
ENDBRANCH  23  24
ENDBRANCH  22  23
ENDBRANCH  20  22
ENDBRANCH   4  19
TORSDOF 7
ENDMDL
MODEL 3
REMARK VINA RESULT:      -9.4      2.608      3.315
REMARK  Name = 
REMARK  7 active torsions:
REMARK  status: ('A' for Active; 'I' for Inactive)
REMARK    1  A    between atoms: C_4  and  N_19
REMARK    2  A    between atoms: C_6  and  C_7
REMARK    3  A    between atoms: C_9  and  C_12
REMARK    4  A    between atoms: C_20  and  C_22
REMARK    5  A    between atoms: C_22  and  O_23
REMARK    6  A    between atoms: O_23  and  C_24
REMARK    7  A    between atoms: C_24  and  C_25
REMARK                            x       y       z     vdW  Elec       q    Type
REMARK                         _______ _______ _______ _____ _____    ______ ____
ROOT
ATOM      1  C   UNL     1       1.031   1.282  23.844  0.00  0.00    +0.090 C 
ATOM      2  N   UNL     1       0.355   0.854  24.047  0.00  0.00    -0.264 NA
ATOM      3  C   UNL     1       0.165   0.095  23.786  0.00  0.00    +0.094 C 
ATOM      4  C   UNL     1      -0.556  -0.118  24.126  0.00  0.00    +0.113 C 
ATOM      5  C   UNL     1      -0.812   0.509  24.596  0.00  0.00    +0.049 C 
ATOM      6  C   UNL     1      -0.249   1.111  24.548  0.00  0.00    +0.139 C 
ENDROOT
BRANCH   6   7
ATOM      7  C   UNL     1      -0.284   1.840  24.933  0.00  0.00    +0.251 A 
ATOM      8  N   UNL     1      -0.727   2.493  24.694  0.00  0.00    -0.190 NA
ATOM      9  C   UNL     1      -0.598   3.100  25.238  0.00  0.00    +0.203 A 
ATOM     10  N   UNL     1      -0.076   2.822  25.813  0.00  0.00    -0.056 NA
ATOM     11  O   UNL     1       0.118   2.042  25.624  0.00  0.00    -0.336 OA
BRANCH   9  12
ATOM     12  C   UNL     1      -0.934   3.853  25.212  0.00  0.00    +0.039 A 
ATOM     13  C   UNL     1      -0.524   4.475  24.859  0.00  0.00    +0.005 A 
ATOM     14  C   UNL     1      -0.859   5.229  24.832  0.00  0.00    +0.030 A 
ATOM     15  C   UNL     1      -1.605   5.360  25.159  0.00  0.00    +0.140 A 
ATOM     16  F   UNL     1      -1.942   6.112  25.133  0.00  0.00    -0.204 F 
ATOM     17  C   UNL     1      -2.016   4.737  25.512  0.00  0.00    +0.030 A 
ATOM     18  C   UNL     1      -1.680   3.984  25.539  0.00  0.00    +0.005 A 
ENDBRANCH   9  12
ENDBRANCH   6   7
BRANCH   4  19
ATOM     19  N   UNL     1      -0.952  -0.834  24.014  0.00  0.00    -0.204 NA
ATOM     20  C   UNL     1      -0.983  -1.387  24.624  0.00  0.00    +0.272 C 
ATOM     21  O   UNL     1      -0.618  -1.226  25.347  0.00  0.00    -0.271 OA
BRANCH  20  22
ATOM     22  C   UNL     1      -1.379  -2.103  24.512  0.00  0.00    +0.229 C 
BRANCH  22  23
ATOM     23  O   UNL     1      -2.147  -2.197  24.796  0.00  0.00    -0.333 OA
BRANCH  23  24
ATOM     24  C   UNL     1      -2.639  -2.774  24.470  0.00  0.00    +0.257 C 
BRANCH  24  25
ATOM     25  C   UNL     1      -3.440  -2.792  24.667  0.00  0.00    +0.394 C 
ATOM     26  O   UNL     1      -3.669  -2.790  25.461  0.00  0.00    -0.243 OA
ATOM     27  O   UNL     1      -4.012  -2.812  24.073  0.00  0.00    -0.243 OA
ENDBRANCH  24  25
ENDBRANCH  23  24
ENDBRANCH  22  23
ENDBRANCH  20  22
ENDBRANCH   4  19
TORSDOF 7
ENDMDL
MODEL 4
REMARK VINA RESULT:      -9.4      2.285      5.548
REMARK  Name = 
REMARK  7 active torsions:
REMARK  status: ('A' for Active; 'I' for Inactive)
REMARK    1  A    between atoms: C_4  and  N_19
REMARK    2  A    between atoms: C_6  and  C_7
REMARK    3  A    between atoms: C_9  and  C_12
REMARK    4  A    between atoms: C_20  and  C_22
REMARK    5  A    between atoms: C_22  and  O_23
REMARK    6  A    between atoms: O_23  and  C_24
REMARK    7  A    between atoms: C_24  and  C_25
REMARK                            x       y       z     vdW  Elec       q    Type
REMARK                         _______ _______ _______ _____ _____    ______ ____
ROOT
ATOM      1  C   UNL     1      -5.946   1.934  25.721  0.00  0.00    +0.090 C 
ATOM      2  N   UNL     1      -5.228   2.228  25.440  0.00  0.00    -0.264 NA
ATOM      3  C   UNL     1      -4.955   3.002  25.523  0.00  0.00    +0.094 C 
ATOM      4  C   UNL     1      -4.216   3.051  25.160  0.00  0.00    +0.113 C 
ATOM      5  C   UNL     1      -4.032   2.309  24.852  0.00  0.00    +0.049 C 
ATOM      6  C   UNL     1      -4.658   1.799  25.025  0.00  0.00    +0.139 C 
ENDROOT
BRANCH   6   7
ATOM      7  C   UNL     1      -4.705   1.002  24.819  0.00  0.00    +0.251 A 
ATOM      8  N   UNL     1      -4.157   0.417  25.014  0.00  0.00    -0.190 NA
ATOM      9  C   UNL     1      -4.422  -0.297  24.697  0.00  0.00    +0.203 A 
ATOM     10  N   UNL     1      -5.134  -0.154  24.305  0.00  0.00    -0.056 NA
ATOM     11  O   UNL     1      -5.308   0.650  24.380  0.00  0.00    -0.336 OA
BRANCH   9  12
ATOM     12  C   UNL     1      -4.042  -1.026  24.761  0.00  0.00    +0.039 A 
ATOM     13  C   UNL     1      -4.069  -1.562  24.135  0.00  0.00    +0.005 A 
ATOM     14  C   UNL     1      -3.689  -2.291  24.199  0.00  0.00    +0.030 A 
ATOM     15  C   UNL     1      -3.281  -2.485  24.889  0.00  0.00    +0.140 A 
ATOM     16  F   UNL     1      -2.900  -3.214  24.954  0.00  0.00    -0.204 F 
ATOM     17  C   UNL     1      -3.253  -1.948  25.516  0.00  0.00    +0.030 A 
ATOM     18  C   UNL     1      -3.634  -1.219  25.452  0.00  0.00    +0.005 A 
ENDBRANCH   9  12
ENDBRANCH   6   7
BRANCH   4  19
ATOM     19  N   UNL     1      -3.743   3.727  25.113  0.00  0.00    -0.204 NA
ATOM     20  C   UNL     1      -3.172   3.871  25.691  0.00  0.00    +0.272 C 
ATOM     21  O   UNL     1      -3.074   3.341  26.315  0.00  0.00    -0.271 OA
BRANCH  20  22
ATOM     22  C   UNL     1      -2.699   4.546  25.644  0.00  0.00    +0.229 C 
BRANCH  22  23
ATOM     23  O   UNL     1      -1.888   4.472  25.517  0.00  0.00    -0.333 OA
BRANCH  23  24
ATOM     24  C   UNL     1      -1.455   5.114  25.231  0.00  0.00    +0.257 C 
BRANCH  24  25
ATOM     25  C   UNL     1      -0.718   4.992  24.881  0.00  0.00    +0.394 C 
ATOM     26  O   UNL     1      -0.398   5.566  24.382  0.00  0.00    -0.243 OA
ATOM     27  O   UNL     1      -0.301   4.296  25.030  0.00  0.00    -0.243 OA
ENDBRANCH  24  25
ENDBRANCH  23  24
ENDBRANCH  22  23
ENDBRANCH  20  22
ENDBRANCH   4  19
TORSDOF 7
ENDMDL
MODEL 5
REMARK VINA RESULT:      -9.3      3.835      5.140
REMARK  Name = 
REMARK  7 active torsions:
REMARK  status: ('A' for Active; 'I' for Inactive)
REMARK    1  A    between atoms: C_4  and  N_19
REMARK    2  A    between atoms: C_6  and  C_7
REMARK    3  A    between atoms: C_9  and  C_12
REMARK    4  A    between atoms: C_20  and  C_22
REMARK    5  A    between atoms: C_22  and  O_23
REMARK    6  A    between atoms: O_23  and  C_24
REMARK    7  A    between atoms: C_24  and  C_25
REMARK                            x       y       z     vdW  Elec       q    Type
REMARK                         _______ _______ _______ _____ _____    ______ ____
ROOT
ATOM      1  C   UNL     1      -1.522  -0.614  26.034  0.00  0.00    +0.090 C 
ATOM      2  N   UNL     1      -1.290  -0.552  25.244  0.00  0.00    -0.264 NA
ATOM      3  C   UNL     1      -0.535  -0.703  24.947  0.00  0.00    +0.094 C 
ATOM      4  C   UNL     1      -0.551  -0.573  24.133  0.00  0.00    +0.113 C 
ATOM      5  C   UNL     1      -1.315  -0.341  23.926  0.00  0.00    +0.049 C 
ATOM      6  C   UNL     1      -1.772  -0.328  24.613  0.00  0.00    +0.139 C 
ENDROOT
BRANCH   6   7
ATOM      7  C   UNL     1      -2.571  -0.126  24.660  0.00  0.00    +0.251 A 
ATOM      8  N   UNL     1      -2.875   0.635  24.748  0.00  0.00    -0.190 NA
ATOM      9  C   UNL     1      -3.697   0.580  24.769  0.00  0.00    +0.203 A 
ATOM     10  N   UNL     1      -3.903  -0.215  24.694  0.00  0.00    -0.056 NA
ATOM     11  O   UNL     1      -3.205  -0.652  24.626  0.00  0.00    -0.336 OA
BRANCH   9  12
ATOM     12  C   UNL     1      -4.223   1.211  24.851  0.00  0.00    +0.039 A 
ATOM     13  C   UNL     1      -4.928   1.110  25.266  0.00  0.00    +0.005 A 
ATOM     14  C   UNL     1      -5.454   1.740  25.348  0.00  0.00    +0.030 A 
ATOM     15  C   UNL     1      -5.274   2.473  25.014  0.00  0.00    +0.140 A 
ATOM     16  F   UNL     1      -5.799   3.104  25.096  0.00  0.00    -0.204 F 
ATOM     17  C   UNL     1      -4.568   2.575  24.599  0.00  0.00    +0.030 A 
ATOM     18  C   UNL     1      -4.043   1.944  24.517  0.00  0.00    +0.005 A 
ENDBRANCH   9  12
ENDBRANCH   6   7
BRANCH   4  19
ATOM     19  N   UNL     1       0.087  -0.659  23.616  0.00  0.00    -0.204 NA
ATOM     20  C   UNL     1       0.520   0.002  23.382  0.00  0.00    +0.272 C 
ATOM     21  O   UNL     1       0.317   0.750  23.665  0.00  0.00    -0.271 OA
BRANCH  20  22
ATOM     22  C   UNL     1       1.158  -0.084  22.865  0.00  0.00    +0.229 C 
BRANCH  22  23
ATOM     23  O   UNL     1       1.879   0.279  23.036  0.00  0.00    -0.333 OA
BRANCH  23  24
ATOM     24  C   UNL     1       2.514   0.199  22.515  0.00  0.00    +0.257 C 
BRANCH  24  25
ATOM     25  C   UNL     1       3.268   0.444  22.743  0.00  0.00    +0.394 C 
ATOM     26  O   UNL     1       3.843  -0.116  22.936  0.00  0.00    -0.243 OA
ATOM     27  O   UNL     1       3.446   1.249  22.780  0.00  0.00    -0.243 OA
ENDBRANCH  24  25
ENDBRANCH  23  24
ENDBRANCH  22  23
ENDBRANCH  20  22
ENDBRANCH   4  19
TORSDOF 7
ENDMDL
MODEL 6
REMARK VINA RESULT:      -8.7      3.583      4.796
REMARK  Name = 
REMARK  7 active torsions:
REMARK  status: ('A' for Active; 'I' for Inactive)
REMARK    1  A    between atoms: C_4  and  N_19
REMARK    2  A    between atoms: C_6  and  C_7
REMARK    3  A    between atoms: C_9  and  C_12
REMARK    4  A    between atoms: C_20  and  C_22
REMARK    5  A    between atoms: C_22  and  O_23
REMARK    6  A    between atoms: O_23  and  C_24
REMARK    7  A    between atoms: C_24  and  C_25
REMARK                            x       y       z     vdW  Elec       q    Type
REMARK                         _______ _______ _______ _____ _____    ______ ____
ROOT
ATOM      1  C   UNL     1      -0.882   2.564  25.987  0.00  0.00    +0.090 C 
ATOM      2  N   UNL     1      -0.801   2.261  25.224  0.00  0.00    -0.264 NA
ATOM      3  C   UNL     1      -0.127   1.902  24.913  0.00  0.00    +0.094 C 
ATOM      4  C   UNL     1      -0.290   1.683  24.136  0.00  0.00    +0.113 C 
ATOM      5  C   UNL     1      -1.065   1.906  23.965  0.00  0.00    +0.049 C 
ATOM      6  C   UNL     1      -1.382   2.264  24.638  0.00  0.00    +0.139 C 
ENDROOT
BRANCH   6   7
ATOM      7  C   UNL     1      -2.144   2.570  24.710  0.00  0.00    +0.251 A 
ATOM      8  N   UNL     1      -2.829   2.137  24.862  0.00  0.00    -0.190 NA
ATOM      9  C   UNL     1      -3.463   2.664  24.890  0.00  0.00    +0.203 A 
ATOM     10  N   UNL     1      -3.171   3.423  24.755  0.00  0.00    -0.056 NA
ATOM     11  O   UNL     1      -2.355   3.365  24.644  0.00  0.00    -0.336 OA
BRANCH   9  12
ATOM     12  C   UNL     1      -4.252   2.465  25.028  0.00  0.00    +0.039 A 
ATOM     13  C   UNL     1      -4.581   1.802  24.665  0.00  0.00    +0.005 A 
ATOM     14  C   UNL     1      -5.370   1.603  24.803  0.00  0.00    +0.030 A 
ATOM     15  C   UNL     1      -5.830   2.069  25.304  0.00  0.00    +0.140 A 
ATOM     16  F   UNL     1      -6.619   1.872  25.443  0.00  0.00    -0.204 F 
ATOM     17  C   UNL     1      -5.502   2.734  25.668  0.00  0.00    +0.030 A 
ATOM     18  C   UNL     1      -4.713   2.931  25.529  0.00  0.00    +0.005 A 
ENDBRANCH   9  12
ENDBRANCH   6   7
BRANCH   4  19
ATOM     19  N   UNL     1       0.231   1.305  23.618  0.00  0.00    -0.204 NA
ATOM     20  C   UNL     1       0.282   0.482  23.613  0.00  0.00    +0.272 C 
ATOM     21  O   UNL     1      -0.187   0.036  24.124  0.00  0.00    -0.271 OA
BRANCH  20  22
ATOM     22  C   UNL     1       0.804   0.105  23.096  0.00  0.00    +0.229 C 
BRANCH  22  23
ATOM     23  O   UNL     1       1.610   0.278  23.125  0.00  0.00    -0.333 OA
BRANCH  23  24
ATOM     24  C   UNL     1       2.119  -0.033  22.554  0.00  0.00    +0.257 C 
BRANCH  24  25
ATOM     25  C   UNL     1       2.934   0.071  22.629  0.00  0.00    +0.394 C 
ATOM     26  O   UNL     1       3.292   0.749  22.323  0.00  0.00    -0.243 OA
ATOM     27  O   UNL     1       3.390  -0.502  23.009  0.00  0.00    -0.243 OA
ENDBRANCH  24  25
ENDBRANCH  23  24
ENDBRANCH  22  23
ENDBRANCH  20  22
ENDBRANCH   4  19
TORSDOF 7
ENDMDL
