MODEL 1
REMARK VINA RESULT:     -10.9      0.000      0.000
REMARK  Name = 
REMARK  8 active torsions:
REMARK  status: ('A' for Active; 'I' for Inactive)
REMARK    1  A    between atoms: C_6  and  C_7
REMARK    2  A    between atoms: C_12  and  N_29
REMARK    3  A    between atoms: C_14  and  C_15
REMARK    4  A    between atoms: N_17  and  C_18
REMARK    5  A    between atoms: C_18  and  C_19
REMARK    6  A    between atoms: C_18  and  C_26
REMARK    7  A    between atoms: C_19  and  C_20
REMARK    8  A    between atoms: C_30  and  C_32
REMARK                            x       y       z     vdW  Elec       q    Type
REMARK                         _______ _______ _______ _____ _____    ______ ____
ROOT
ATOM      7  C   UNL     1      -2.736  -0.469  24.815  0.00  0.00    +0.265 C 
ATOM      8  O   UNL     1      -3.222   0.168  25.012  0.00  0.00    -0.268 OA
ATOM      9  N   UNL     1      -1.950  -0.337  24.600  0.00  0.00    -0.268 N 
ATOM     10  C   UNL     1      -1.464  -0.973  24.403  0.00  0.00    +0.096 C 
ATOM     11  C   UNL     1      -0.678  -0.841  24.188  0.00  0.00    +0.043 C 
ATOM     12  C   UNL     1      -0.379  -0.072  24.170  0.00  0.00    +0.100 C 
ATOM     13  C   UNL     1      -0.866   0.564  24.367  0.00  0.00    +0.051 C 
ATOM     14  C   UNL     1      -1.651   0.432  24.582  0.00  0.00    +0.155 C 
ENDROOT
BRANCH   7   6
ATOM      1  C   UNL     1      -4.067  -1.106  23.794  0.00  0.00    +0.131 C 
ATOM      2  N   UNL     1      -3.647  -1.530  24.363  0.00  0.00    -0.320 N 
ATOM      3  C   UNL     1      -3.764  -2.322  24.563  0.00  0.00    +0.076 A 
ATOM      4  C   UNL     1      -3.225  -2.518  25.156  0.00  0.00    +0.020 A 
ATOM      5  C   UNL     1      -2.774  -1.848  25.323  0.00  0.00    +0.023 A 
ATOM      6  C   UNL     1      -3.034  -1.237  24.833  0.00  0.00    +0.114 A 
ENDBRANCH   7   6
BRANCH  14  15
ATOM     15  C   UNL     1      -2.137   1.069  24.779  0.00  0.00    +0.260 C 
ATOM     16  O   UNL     1      -2.705   0.987  25.371  0.00  0.00    -0.272 OA
ATOM     17  N   UNL     1      -2.054   1.789  24.383  0.00  0.00    -0.196 NA
BRANCH  17  18
ATOM     18  C   UNL     1      -2.540   2.426  24.580  0.00  0.00    +0.179 C 
BRANCH  18  26
ATOM     26  C   UNL     1      -3.190   2.612  24.106  0.00  0.00    +0.281 C 
ATOM     27  N   UNL     1      -3.924   2.759  24.452  0.00  0.00    -0.086 NA
ATOM     28  O   UNL     1      -3.104   2.650  23.287  0.00  0.00    -0.270 OA
ENDBRANCH  18  26
BRANCH  18  19
ATOM     19  C   UNL     1      -2.377   2.877  25.251  0.00  0.00    +0.057 C 
BRANCH  19  20
ATOM     20  C   UNL     1      -1.928   3.567  25.185  0.00  0.00    -0.020 A 
ATOM     21  C   UNL     1      -1.137   3.524  24.959  0.00  0.00    -0.004 A 
ATOM     22  C   UNL     1      -0.689   4.214  24.893  0.00  0.00    -0.000 A 
ATOM     23  C   UNL     1      -1.033   4.946  25.053  0.00  0.00    -0.000 A 
ATOM     24  C   UNL     1      -1.826   4.989  25.278  0.00  0.00    -0.000 A 
ATOM     25  C   UNL     1      -2.274   4.299  25.345  0.00  0.00    -0.004 A 
ENDBRANCH  19  20
ENDBRANCH  18  19
ENDBRANCH  17  18
ENDBRANCH  14  15
BRANCH  12  29
ATOM     29  N   UNL     1       0.406   0.060  23.955  0.00  0.00    -0.203 NA
ATOM     30  C   UNL     1       0.630   0.013  23.162  0.00  0.00    +0.273 C 
ATOM     31  O   UNL     1       0.070  -0.166  22.585  0.00  0.00    -0.268 OA
BRANCH  30  32
ATOM     32  C   UNL     1       1.416   0.145  22.947  0.00  0.00    +0.119 A 
ATOM     33  C   UNL     1       1.783  -0.126  22.259  0.00  0.00    +0.093 A 
ATOM     34  C   UNL     1       1.429  -0.576  21.666  0.00  0.00    +0.055 C 
ATOM     35  N   UNL     1       2.566   0.133  22.270  0.00  0.00    -0.145 NA
ATOM     36  N   UNL     1       2.684   0.564  22.964  0.00  0.00    -0.110 NA
ATOM     37  S   UNL     1       1.973   0.571  23.382  0.00  0.00    +0.042 S 
ENDBRANCH  30  32
ENDBRANCH  12  29
TORSDOF 8
ENDMDL
MODEL 2
REMARK VINA RESULT:     -10.8      2.113      4.320
REMARK  Name = 
REMARK  8 active torsions:
REMARK  status: ('A' for Active; 'I' for Inactive)
REMARK    1  A    between atoms: C_6  and  C_7
REMARK    2  A    between atoms: C_12  and  N_29
REMARK    3  A    between atoms: C_14  and  C_15
REMARK    4  A    between atoms: N_17  and  C_18
REMARK    5  A    between atoms: C_18  and  C_19
REMARK    6  A    between atoms: C_18  and  C_26
REMARK    7  A    between atoms: C_19  and  C_20
REMARK    8  A    between atoms: C_30  and  C_32
REMARK                            x       y       z     vdW  Elec       q    Type
REMARK                         _______ _______ _______ _____ _____    ______ ____
ROOT
ATOM      7  C   UNL     1      -2.994  -1.158  24.442  0.00  0.00    +0.265 C 
ATOM      8  O   UNL     1      -2.174  -1.189  24.363  0.00  0.00    -0.268 OA
ATOM      9  N   UNL     1      -3.357  -0.465  24.703  0.00  0.00    -0.268 N 
ATOM     10  C   UNL     1      -4.177  -0.432  24.783  0.00  0.00    +0.096 C 
ATOM     11  C   UNL     1      -4.540   0.261  25.044  0.00  0.00    +0.043 C 
ATOM     12  C   UNL     1      -4.082   0.923  25.227  0.00  0.00    +0.100 C 
ATOM     13  C   UNL     1      -3.261   0.890  25.148  0.00  0.00    +0.051 C 
ATOM     14  C   UNL     1      -2.899   0.197  24.886  0.00  0.00    +0.155 C 
ENDROOT
BRANCH   7   6
ATOM      1  C   UNL     1      -2.882  -2.768  25.227  0.00  0.00    +0.131 C 
ATOM      2  N   UNL     1      -3.401  -2.560  24.620  0.00  0.00    -0.320 N 
ATOM      3  C   UNL     1      -3.959  -3.054  24.268  0.00  0.00    +0.076 A 
ATOM      4  C   UNL     1      -4.356  -2.620  23.690  0.00  0.00    +0.020 A 
ATOM      5  C   UNL     1      -4.043  -1.856  23.684  0.00  0.00    +0.023 A 
ATOM      6  C   UNL     1      -3.452  -1.819  24.260  0.00  0.00    +0.114 A 
ENDBRANCH   7   6
BRANCH  14  15
ATOM     15  C   UNL     1      -2.078   0.166  24.807  0.00  0.00    +0.260 C 
ATOM     16  O   UNL     1      -1.665  -0.504  25.054  0.00  0.00    -0.272 OA
ATOM     17  N   UNL     1      -1.671   0.805  24.481  0.00  0.00    -0.196 NA
BRANCH  17  18
ATOM     18  C   UNL     1      -0.850   0.774  24.402  0.00  0.00    +0.179 C 
BRANCH  18  26
ATOM     26  C   UNL     1      -0.513   0.546  23.684  0.00  0.00    +0.281 C 
ATOM     27  N   UNL     1       0.112   0.007  23.675  0.00  0.00    -0.086 NA
ATOM     28  O   UNL     1      -0.800   0.857  22.976  0.00  0.00    -0.270 OA
ENDBRANCH  18  26
BRANCH  18  19
ATOM     19  C   UNL     1      -0.367   0.971  25.041  0.00  0.00    +0.057 C 
BRANCH  19  20
ATOM     20  C   UNL     1      -0.288   1.759  25.270  0.00  0.00    -0.020 A 
ATOM     21  C   UNL     1      -0.209   2.349  24.699  0.00  0.00    -0.004 A 
ATOM     22  C   UNL     1      -0.129   3.138  24.928  0.00  0.00    -0.000 A 
ATOM     23  C   UNL     1      -0.129   3.336  25.729  0.00  0.00    -0.000 A 
ATOM     24  C   UNL     1      -0.208   2.746  26.301  0.00  0.00    -0.000 A 
ATOM     25  C   UNL     1      -0.287   1.957  26.071  0.00  0.00    -0.004 A 
ENDBRANCH  19  20
ENDBRANCH  18  19
ENDBRANCH  17  18
ENDBRANCH  14  15
BRANCH  12  29
ATOM     29  N   UNL     1      -4.444   1.616  25.488  0.00  0.00    -0.203 NA
ATOM     30  C   UNL     1      -4.699   2.179  24.942  0.00  0.00    +0.273 C 
ATOM     31  O   UNL     1      -4.591   2.050  24.135  0.00  0.00    -0.268 OA
BRANCH  30  32
ATOM     32  C   UNL     1      -5.062   2.873  25.203  0.00  0.00    +0.119 A 
ATOM     33  C   UNL     1      -4.769   3.639  25.109  0.00  0.00    +0.093 A 
ATOM     34  C   UNL     1      -4.063   3.845  24.738  0.00  0.00    +0.055 C 
ATOM     35  N   UNL     1      -5.308   4.161  25.453  0.00  0.00    -0.145 NA
ATOM     36  N   UNL     1      -5.933   3.719  25.759  0.00  0.00    -0.110 NA
ATOM     37  S   UNL     1      -5.781   2.923  25.605  0.00  0.00    +0.042 S 
ENDBRANCH  30  32
ENDBRANCH  12  29
TORSDOF 8
ENDMDL
MODEL 3
REMARK VINA RESULT:     -10.8      2.484      4.335
REMARK  Name = 
REMARK  8 active torsions:
REMARK  status: ('A' for Active; 'I' for Inactive)
REMARK    1  A    between atoms: C_6  and  C_7
REMARK    2  A    between atoms: C_12  and  N_29
REMARK    3  A    between atoms: C_14  and  C_15
REMARK    4  A    between atoms: N_17  and  C_18
REMARK    5  A    between atoms: C_18  and  C_19
REMARK    6  A    between atoms: C_18  and  C_26
REMARK    7  A    between atoms: C_19  and  C_20
REMARK    8  A    between atoms: C_30  and  C_32
REMARK                            x       y       z     vdW  Elec       q    Type
REMARK                         _______ _______ _______ _____ _____    ______ ____
ROOT
ATOM      7  C   UNL     1      -1.496  -0.391  24.671  0.00  0.00    +0.265 C 
ATOM      8  O   UNL     1      -0.819   0.064  24.547  0.00  0.00    -0.268 OA
ATOM      9  N   UNL     1      -2.208  -0.024  24.867  0.00  0.00    -0.268 N 
ATOM     10  C   UNL     1      -2.886  -0.478  24.992  0.00  0.00    +0.096 C 
ATOM     11  C   UNL     1      -3.598  -0.111  25.187  0.00  0.00    +0.043 C 
ATOM     12  C   UNL     1      -3.634   0.711  25.258  0.00  0.00    +0.100 C 
ATOM     13  C   UNL     1      -2.956   1.165  25.133  0.00  0.00    +0.051 C 
ATOM     14  C   UNL     1      -2.243   0.798  24.938  0.00  0.00    +0.155 C 
ENDROOT
BRANCH   7   6
ATOM      1  C   UNL     1      -0.418  -1.484  25.600  0.00  0.00    +0.131 C 
ATOM      2  N   UNL     1      -0.965  -1.715  25.028  0.00  0.00    -0.320 N 
ATOM      3  C   UNL     1      -1.113  -2.488  24.782  0.00  0.00    +0.076 A 
ATOM      4  C   UNL     1      -1.701  -2.463  24.202  0.00  0.00    +0.020 A 
ATOM      5  C   UNL     1      -1.916  -1.674  24.091  0.00  0.00    +0.023 A 
ATOM      6  C   UNL     1      -1.461  -1.212  24.601  0.00  0.00    +0.114 A 
ENDBRANCH   7   6
BRANCH  14  15
ATOM     15  C   UNL     1      -1.566   1.252  24.813  0.00  0.00    +0.260 C 
ATOM     16  O   UNL     1      -1.061   1.077  24.185  0.00  0.00    -0.272 OA
ATOM     17  N   UNL     1      -1.395   1.883  25.318  0.00  0.00    -0.196 NA
BRANCH  17  18
ATOM     18  C   UNL     1      -0.717   2.337  25.193  0.00  0.00    +0.179 C 
BRANCH  18  26
ATOM     26  C   UNL     1      -0.053   2.227  25.670  0.00  0.00    +0.281 C 
ATOM     27  N   UNL     1      -0.130   2.222  26.491  0.00  0.00    -0.086 NA
ATOM     28  O   UNL     1       0.689   2.123  25.324  0.00  0.00    -0.270 OA
ENDBRANCH  18  26
BRANCH  18  19
ATOM     19  C   UNL     1      -0.705   2.902  24.591  0.00  0.00    +0.057 C 
BRANCH  19  20
ATOM     20  C   UNL     1      -0.899   3.686  24.758  0.00  0.00    -0.020 A 
ATOM     21  C   UNL     1      -1.585   3.860  25.182  0.00  0.00    -0.004 A 
ATOM     22  C   UNL     1      -1.779   4.645  25.349  0.00  0.00    -0.000 A 
ATOM     23  C   UNL     1      -1.287   5.255  25.091  0.00  0.00    -0.000 A 
ATOM     24  C   UNL     1      -0.601   5.081  24.667  0.00  0.00    -0.000 A 
ATOM     25  C   UNL     1      -0.407   4.296  24.500  0.00  0.00    -0.004 A 
ENDBRANCH  19  20
ENDBRANCH  18  19
ENDBRANCH  17  18
ENDBRANCH  14  15
BRANCH  12  29
ATOM     29  N   UNL     1      -4.346   1.078  25.453  0.00  0.00    -0.203 NA
ATOM     30  C   UNL     1      -4.741   1.536  24.893  0.00  0.00    +0.273 C 
ATOM     31  O   UNL     1      -4.424   1.628  24.137  0.00  0.00    -0.268 OA
BRANCH  30  32
ATOM     32  C   UNL     1      -5.453   1.903  25.088  0.00  0.00    +0.119 A 
ATOM     33  C   UNL     1      -5.555   2.703  25.266  0.00  0.00    +0.093 A 
ATOM     34  C   UNL     1      -4.961   3.275  25.279  0.00  0.00    +0.055 C 
ATOM     35  N   UNL     1      -6.354   2.829  25.428  0.00  0.00    -0.145 NA
ATOM     36  N   UNL     1      -6.747   2.107  25.350  0.00  0.00    -0.110 NA
ATOM     37  S   UNL     1      -6.190   1.536  25.140  0.00  0.00    +0.042 S 
ENDBRANCH  30  32
ENDBRANCH  12  29
TORSDOF 8
ENDMDL
MODEL 4
REMARK VINA RESULT:     -10.4      2.347      4.336
REMARK  Name = 
REMARK  8 active torsions:
REMARK  status: ('A' for Active; 'I' for Inactive)
REMARK    1  A    between atoms: C_6  and  C_7
REMARK    2  A    between atoms: C_12  and  N_29
REMARK    3  A    between atoms: C_14  and  C_15
REMARK    4  A    between atoms: N_17  and  C_18
REMARK    5  A    between atoms: C_18  and  C_19
REMARK    6  A    between atoms: C_18  and  C_26
REMARK    7  A    between atoms: C_19  and  C_20
REMARK    8  A    between atoms: C_30  and  C_32
REMARK                            x       y       z     vdW  Elec       q    Type
REMARK                         _______ _______ _______ _____ _____    ______ ____
ROOT
ATOM      7  C   UNL     1      -1.348   2.396  25.446  0.00  0.00    +0.265 C 
ATOM      8  O   UNL     1      -1.807   3.064  25.289  0.00  0.00    -0.268 OA
ATOM      9  N   UNL     1      -1.599   1.654  25.187  0.00  0.00    -0.268 N 
ATOM     10  C   UNL     1      -1.141   0.986  25.344  0.00  0.00    +0.096 C 
ATOM     11  C   UNL     1      -1.391   0.244  25.084  0.00  0.00    +0.043 C 
ATOM     12  C   UNL     1      -2.100   0.170  24.667  0.00  0.00    +0.100 C 
ATOM     13  C   UNL     1      -2.557   0.838  24.510  0.00  0.00    +0.051 C 
ATOM     14  C   UNL     1      -2.307   1.580  24.770  0.00  0.00    +0.155 C 
ENDROOT
BRANCH   7   6
ATOM      1  C   UNL     1       0.150   3.181  24.848  0.00  0.00    +0.131 C 
ATOM      2  N   UNL     1       0.049   2.831  25.588  0.00  0.00    -0.320 N 
ATOM      3  C   UNL     1       0.618   2.780  26.182  0.00  0.00    +0.076 A 
ATOM      4  C   UNL     1       0.281   2.387  26.825  0.00  0.00    +0.020 A 
ATOM      5  C   UNL     1      -0.497   2.195  26.628  0.00  0.00    +0.023 A 
ATOM      6  C   UNL     1      -0.641   2.470  25.863  0.00  0.00    +0.114 A 
ENDBRANCH   7   6
BRANCH  14  15
ATOM     15  C   UNL     1      -2.765   2.248  24.612  0.00  0.00    +0.260 C 
ATOM     16  O   UNL     1      -2.420   2.996  24.620  0.00  0.00    -0.272 OA
ATOM     17  N   UNL     1      -3.570   2.165  24.447  0.00  0.00    -0.196 NA
BRANCH  17  18
ATOM     18  C   UNL     1      -4.029   2.833  24.290  0.00  0.00    +0.179 C 
BRANCH  18  26
ATOM     26  C   UNL     1      -3.993   3.193  23.548  0.00  0.00    +0.281 C 
ATOM     27  N   UNL     1      -3.987   4.015  23.488  0.00  0.00    -0.086 NA
ATOM     28  O   UNL     1      -3.965   2.729  22.866  0.00  0.00    -0.270 OA
ENDBRANCH  18  26
BRANCH  18  19
ATOM     19  C   UNL     1      -4.522   3.141  24.875  0.00  0.00    +0.057 C 
BRANCH  19  20
ATOM     20  C   UNL     1      -5.152   2.692  25.162  0.00  0.00    -0.020 A 
ATOM     21  C   UNL     1      -5.599   2.231  24.645  0.00  0.00    -0.004 A 
ATOM     22  C   UNL     1      -6.228   1.781  24.932  0.00  0.00    -0.000 A 
ATOM     23  C   UNL     1      -6.410   1.793  25.737  0.00  0.00    -0.000 A 
ATOM     24  C   UNL     1      -5.963   2.255  26.254  0.00  0.00    -0.000 A 
ATOM     25  C   UNL     1      -5.333   2.705  25.967  0.00  0.00    -0.004 A 
ENDBRANCH  19  20
ENDBRANCH  18  19
ENDBRANCH  17  18
ENDBRANCH  14  15
BRANCH  12  29
ATOM     29  N   UNL     1      -2.350  -0.572  24.408  0.00  0.00    -0.203 NA
ATOM     30  C   UNL     1      -2.852  -1.027  24.880  0.00  0.00    +0.273 C 
ATOM     31  O   UNL     1      -3.103  -0.739  25.610  0.00  0.00    -0.268 OA
BRANCH  30  32
ATOM     32  C   UNL     1      -3.102  -1.769  24.620  0.00  0.00    +0.119 A 
ATOM     33  C   UNL     1      -3.835  -1.943  24.283  0.00  0.00    +0.093 A 
ATOM     34  C   UNL     1      -4.445  -1.406  24.146  0.00  0.00    +0.055 C 
ATOM     35  N   UNL     1      -3.849  -2.749  24.107  0.00  0.00    -0.145 NA
ATOM     36  N   UNL     1      -3.125  -3.073  24.335  0.00  0.00    -0.110 NA
ATOM     37  S   UNL     1      -2.664  -2.467  24.652  0.00  0.00    +0.042 S 
ENDBRANCH  30  32
ENDBRANCH  12  29
TORSDOF 8
ENDMDL
MODEL 5
REMARK VINA RESULT:     -10.1      1.296      4.115
REMARK  Name = 
REMARK  8 active torsions:
REMARK  status: ('A' for Active; 'I' for Inactive)
REMARK    1  A    between atoms: C_6  and  C_7
REMARK    2  A    between atoms: C_12  and  N_29
REMARK    3  A    between atoms: C_14  and  C_15
REMARK    4  A    between atoms: N_17  and  C_18
REMARK    5  A    between atoms: C_18  and  C_19
REMARK    6  A    between atoms: C_18  and  C_26
REMARK    7  A    between atoms: C_19  and  C_20
REMARK    8  A    between atoms: C_30  and  C_32
REMARK                            x       y       z     vdW  Elec       q    Type
REMARK                         _______ _______ _______ _____ _____    ______ ____
ROOT
ATOM      7  C   UNL     1      -2.611   3.086  25.125  0.00  0.00    +0.265 C 
ATOM      8  O   UNL     1      -3.301   2.787  25.465  0.00  0.00    -0.268 OA
ATOM      9  N   UNL     1      -2.105   2.585  24.709  0.00  0.00    -0.268 N 
ATOM     10  C   UNL     1      -1.415   2.883  24.369  0.00  0.00    +0.096 C 
ATOM     11  C   UNL     1      -0.910   2.382  23.952  0.00  0.00    +0.043 C 
ATOM     12  C   UNL     1      -1.094   1.581  23.875  0.00  0.00    +0.100 C 
ATOM     13  C   UNL     1      -1.784   1.282  24.215  0.00  0.00    +0.051 C 
ATOM     14  C   UNL     1      -2.290   1.784  24.632  0.00  0.00    +0.155 C 
ENDROOT
BRANCH   7   6
ATOM      1  C   UNL     1      -3.615   4.459  24.553  0.00  0.00    +0.131 C 
ATOM      2  N   UNL     1      -2.888   4.518  24.939  0.00  0.00    -0.320 N 
ATOM      3  C   UNL     1      -2.495   5.217  25.130  0.00  0.00    +0.076 A 
ATOM      4  C   UNL     1      -1.790   5.019  25.511  0.00  0.00    +0.020 A 
ATOM      5  C   UNL     1      -1.748   4.196  25.555  0.00  0.00    +0.023 A 
ATOM      6  C   UNL     1      -2.426   3.886  25.202  0.00  0.00    +0.114 A 
ENDBRANCH   7   6
BRANCH  14  15
ATOM     15  C   UNL     1      -2.979   1.484  24.972  0.00  0.00    +0.260 C 
ATOM     16  O   UNL     1      -3.218   1.743  25.717  0.00  0.00    -0.272 OA
ATOM     17  N   UNL     1      -3.430   0.926  24.564  0.00  0.00    -0.196 NA
BRANCH  17  18
ATOM     18  C   UNL     1      -4.120   0.626  24.904  0.00  0.00    +0.179 C 
BRANCH  18  26
ATOM     26  C   UNL     1      -4.843   1.001  24.769  0.00  0.00    +0.281 C 
ATOM     27  N   UNL     1      -5.371   1.116  25.393  0.00  0.00    -0.086 NA
ATOM     28  O   UNL     1      -5.038   1.261  24.011  0.00  0.00    -0.270 OA
ENDBRANCH  18  26
BRANCH  18  19
ATOM     19  C   UNL     1      -4.087  -0.048  25.378  0.00  0.00    +0.057 C 
BRANCH  19  20
ATOM     20  C   UNL     1      -3.968  -0.788  25.034  0.00  0.00    -0.020 A 
ATOM     21  C   UNL     1      -4.307  -0.964  24.303  0.00  0.00    -0.004 A 
ATOM     22  C   UNL     1      -4.188  -1.704  23.959  0.00  0.00    -0.000 A 
ATOM     23  C   UNL     1      -3.728  -2.269  24.346  0.00  0.00    -0.000 A 
ATOM     24  C   UNL     1      -3.388  -2.094  25.078  0.00  0.00    -0.000 A 
ATOM     25  C   UNL     1      -3.507  -1.353  25.422  0.00  0.00    -0.004 A 
ENDBRANCH  19  20
ENDBRANCH  18  19
ENDBRANCH  17  18
ENDBRANCH  14  15
BRANCH  12  29
ATOM     29  N   UNL     1      -0.589   1.079  23.459  0.00  0.00    -0.203 NA
ATOM     30  C   UNL     1       0.044   0.719  23.845  0.00  0.00    +0.273 C 
ATOM     31  O   UNL     1       0.172   0.859  24.648  0.00  0.00    -0.268 OA
BRANCH  30  32
ATOM     32  C   UNL     1       0.550   0.217  23.429  0.00  0.00    +0.119 A 
ATOM     33  C   UNL     1       0.563  -0.607  23.476  0.00  0.00    +0.093 A 
ATOM     34  C   UNL     1       0.074  -1.073  23.948  0.00  0.00    +0.055 C 
ATOM     35  N   UNL     1       1.153  -0.881  22.968  0.00  0.00    -0.145 NA
ATOM     36  N   UNL     1       1.504  -0.228  22.607  0.00  0.00    -0.110 NA
ATOM     37  S   UNL     1       1.131   0.451  22.892  0.00  0.00    +0.042 S 
ENDBRANCH  30  32
ENDBRANCH  12  29
TORSDOF 8
ENDMDL
MODEL 6
REMARK VINA RESULT:     -10.1      2.391      3.936
REMARK  Name = 
REMARK  8 active torsions:
REMARK  status: ('A' for Active; 'I' for Inactive)
REMARK    1  A    between atoms: C_6  and  C_7
REMARK    2  A    between atoms: C_12  and  N_29
REMARK    3  A    between atoms: C_14  and  C_15
REMARK    4  A    between atoms: N_17  and  C_18
REMARK    5  A    between atoms: C_18  and  C_19
REMARK    6  A    between atoms: C_18  and  C_26
REMARK    7  A    between atoms: C_19  and  C_20
REMARK    8  A    between atoms: C_30  and  C_32
REMARK                            x       y       z     vdW  Elec       q    Type
REMARK                         _______ _______ _______ _____ _____    ______ ____
ROOT
ATOM      7  C   UNL     1      -4.509   2.211  24.757  0.00  0.00    +0.265 C 
ATOM      8  O   UNL     1      -4.007   2.821  24.518  0.00  0.00    -0.268 OA
ATOM      9  N   UNL     1      -4.297   1.426  24.621  0.00  0.00    -0.268 N 
ATOM     10  C   UNL     1      -4.798   0.816  24.861  0.00  0.00    +0.096 C 
ATOM     11  C   UNL     1      -4.586   0.030  24.724  0.00  0.00    +0.043 C 
ATOM     12  C   UNL     1      -3.873  -0.146  24.348  0.00  0.00    +0.100 C 
ATOM     13  C   UNL     1      -3.372   0.464  24.109  0.00  0.00    +0.051 C 
ATOM     14  C   UNL     1      -3.584   1.250  24.245  0.00  0.00    +0.155 C 
ENDROOT
BRANCH   7   6
ATOM      1  C   UNL     1      -4.729   3.365  26.115  0.00  0.00    +0.131 C 
ATOM      2  N   UNL     1      -5.322   2.917  25.758  0.00  0.00    -0.320 N 
ATOM      3  C   UNL     1      -6.122   2.921  25.961  0.00  0.00    +0.076 A 
ATOM      4  C   UNL     1      -6.515   2.393  25.463  0.00  0.00    +0.020 A 
ATOM      5  C   UNL     1      -5.958   2.063  24.952  0.00  0.00    +0.023 A 
ATOM      6  C   UNL     1      -5.221   2.387  25.133  0.00  0.00    +0.114 A 
ENDBRANCH   7   6
BRANCH  14  15
ATOM     15  C   UNL     1      -3.082   1.859  24.005  0.00  0.00    +0.260 C 
ATOM     16  O   UNL     1      -3.383   2.499  23.582  0.00  0.00    -0.272 OA
ATOM     17  N   UNL     1      -2.278   1.828  24.189  0.00  0.00    -0.196 NA
BRANCH  17  18
ATOM     18  C   UNL     1      -1.776   2.437  23.949  0.00  0.00    +0.179 C 
BRANCH  18  26
ATOM     26  C   UNL     1      -1.520   2.477  23.166  0.00  0.00    +0.281 C 
ATOM     27  N   UNL     1      -1.228   1.802  22.792  0.00  0.00    -0.086 NA
ATOM     28  O   UNL     1      -1.556   3.192  22.756  0.00  0.00    -0.270 OA
ENDBRANCH  18  26
BRANCH  18  19
ATOM     19  C   UNL     1      -1.531   3.007  24.493  0.00  0.00    +0.057 C 
BRANCH  19  20
ATOM     20  C   UNL     1      -0.974   2.813  25.071  0.00  0.00    -0.020 A 
ATOM     21  C   UNL     1      -0.261   2.461  24.855  0.00  0.00    -0.004 A 
ATOM     22  C   UNL     1       0.296   2.267  25.432  0.00  0.00    -0.000 A 
ATOM     23  C   UNL     1       0.138   2.425  26.226  0.00  0.00    -0.000 A 
ATOM     24  C   UNL     1      -0.577   2.777  26.443  0.00  0.00    -0.000 A 
ATOM     25  C   UNL     1      -1.133   2.971  25.865  0.00  0.00    -0.004 A 
ENDBRANCH  19  20
ENDBRANCH  18  19
ENDBRANCH  17  18
ENDBRANCH  14  15
BRANCH  12  29
ATOM     29  N   UNL     1      -3.661  -0.932  24.212  0.00  0.00    -0.203 NA
ATOM     30  C   UNL     1      -3.297  -1.370  24.809  0.00  0.00    +0.273 C 
ATOM     31  O   UNL     1      -3.145  -1.023  25.541  0.00  0.00    -0.268 OA
BRANCH  30  32
ATOM     32  C   UNL     1      -3.086  -2.155  24.672  0.00  0.00    +0.119 A 
ATOM     33  C   UNL     1      -2.316  -2.452  24.637  0.00  0.00    +0.093 A 
ATOM     34  C   UNL     1      -1.624  -2.014  24.731  0.00  0.00    +0.055 C 
ATOM     35  N   UNL     1      -2.362  -3.262  24.490  0.00  0.00    -0.145 NA
ATOM     36  N   UNL     1      -3.159  -3.468  24.435  0.00  0.00    -0.110 NA
ATOM     37  S   UNL     1      -3.606  -2.783  24.547  0.00  0.00    +0.042 S 
ENDBRANCH  30  32
ENDBRANCH  12  29
TORSDOF 8
ENDMDL
MODEL 7
REMARK VINA RESULT:      -9.8      1.547      4.946
REMARK  Name = 
REMARK  8 active torsions:
REMARK  status: ('A' for Active; 'I' for Inactive)
REMARK    1  A    between atoms: C_6  and  C_7
REMARK    2  A    between atoms: C_12  and  N_29
REMARK    3  A    between atoms: C_14  and  C_15
REMARK    4  A    between atoms: N_17  and  C_18
REMARK    5  A    between atoms: C_18  and  C_19
REMARK    6  A    between atoms: C_18  and  C_26
REMARK    7  A    between atoms: C_19  and  C_20
REMARK    8  A    between atoms: C_30  and  C_32
REMARK                            x       y       z     vdW  Elec       q    Type
REMARK                         _______ _______ _______ _____ _____    ______ ____
ROOT
ATOM      7  C   UNL     1       0.836  -0.010  23.472  0.00  0.00    +0.265 C 
ATOM      8  O   UNL     1       0.503  -0.756  23.593  0.00  0.00    -0.268 OA
ATOM      9  N   UNL     1       0.502   0.653  23.831  0.00  0.00    -0.268 N 
ATOM     10  C   UNL     1       0.834   1.399  23.710  0.00  0.00    +0.096 C 
ATOM     11  C   UNL     1       0.500   2.062  24.069  0.00  0.00    +0.043 C 
ATOM     12  C   UNL     1      -0.166   1.980  24.549  0.00  0.00    +0.100 C 
ATOM     13  C   UNL     1      -0.498   1.235  24.670  0.00  0.00    +0.051 C 
ATOM     14  C   UNL     1      -0.164   0.571  24.311  0.00  0.00    +0.155 C 
ENDROOT
BRANCH   7   6
ATOM      1  C   UNL     1       0.959  -0.492  21.747  0.00  0.00    +0.131 C 
ATOM      2  N   UNL     1       1.558  -0.150  22.199  0.00  0.00    -0.320 N 
ATOM      3  C   UNL     1       2.319   0.031  21.938  0.00  0.00    +0.076 A 
ATOM      4  C   UNL     1       2.733   0.364  22.570  0.00  0.00    +0.020 A 
ATOM      5  C   UNL     1       2.228   0.389  23.221  0.00  0.00    +0.023 A 
ATOM      6  C   UNL     1       1.501   0.072  22.993  0.00  0.00    +0.114 A 
ENDBRANCH   7   6
BRANCH  14  15
ATOM     15  C   UNL     1      -0.497  -0.174  24.432  0.00  0.00    +0.260 C 
ATOM     16  O   UNL     1      -0.059  -0.853  24.268  0.00  0.00    -0.272 OA
ATOM     17  N   UNL     1      -1.269  -0.239  24.719  0.00  0.00    -0.196 NA
BRANCH  17  18
ATOM     18  C   UNL     1      -1.601  -0.985  24.840  0.00  0.00    +0.179 C 
BRANCH  18  26
ATOM     26  C   UNL     1      -1.484  -1.377  25.556  0.00  0.00    +0.281 C 
ATOM     27  N   UNL     1      -1.234  -2.163  25.559  0.00  0.00    -0.086 NA
ATOM     28  O   UNL     1      -1.618  -0.984  26.269  0.00  0.00    -0.270 OA
ENDBRANCH  18  26
BRANCH  18  19
ATOM     19  C   UNL     1      -2.051  -1.337  24.245  0.00  0.00    +0.057 C 
BRANCH  19  20
ATOM     20  C   UNL     1      -2.866  -1.215  24.217  0.00  0.00    -0.020 A 
ATOM     21  C   UNL     1      -3.168  -0.449  24.166  0.00  0.00    -0.004 A 
ATOM     22  C   UNL     1      -3.983  -0.326  24.139  0.00  0.00    -0.000 A 
ATOM     23  C   UNL     1      -4.497  -0.971  24.162  0.00  0.00    -0.000 A 
ATOM     24  C   UNL     1      -4.196  -1.738  24.213  0.00  0.00    -0.000 A 
ATOM     25  C   UNL     1      -3.381  -1.860  24.240  0.00  0.00    -0.004 A 
ENDBRANCH  19  20
ENDBRANCH  18  19
ENDBRANCH  17  18
ENDBRANCH  14  15
BRANCH  12  29
ATOM     29  N   UNL     1      -0.500   2.644  24.908  0.00  0.00    -0.203 NA
ATOM     30  C   UNL     1      -1.072   3.085  24.509  0.00  0.00    +0.273 C 
ATOM     31  O   UNL     1      -1.309   2.863  23.751  0.00  0.00    -0.268 OA
BRANCH  30  32
ATOM     32  C   UNL     1      -1.406   3.748  24.867  0.00  0.00    +0.119 A 
ATOM     33  C   UNL     1      -2.181   3.812  25.144  0.00  0.00    +0.093 A 
ATOM     34  C   UNL     1      -2.757   3.224  25.110  0.00  0.00    +0.055 C 
ATOM     35  N   UNL     1      -2.277   4.568  25.460  0.00  0.00    -0.145 NA
ATOM     36  N   UNL     1      -1.562   4.972  25.379  0.00  0.00    -0.110 NA
ATOM     37  S   UNL     1      -1.024   4.465  25.013  0.00  0.00    +0.042 S 
ENDBRANCH  30  32
ENDBRANCH  12  29
TORSDOF 8
ENDMDL
MODEL 8
REMARK VINA RESULT:      -9.7      2.037      5.678
REMARK  Name = 
REMARK  8 active torsions:
REMARK  status: ('A' for Active; 'I' for Inactive)
REMARK    1  A    between atoms: C_6  and  C_7
REMARK    2  A    between atoms: C_12  and  N_29
REMARK    3  A    between atoms: C_14  and  C_15
REMARK    4  A    between atoms: N_17  and  C_18
REMARK    5  A    between atoms: C_18  and  C_19
REMARK    6  A    between atoms: C_18  and  C_26
REMARK    7  A    between atoms: C_19  and  C_20
REMARK    8  A    between atoms: C_30  and  C_32
REMARK                            x       y       z     vdW  Elec       q    Type
REMARK                         _______ _______ _______ _____ _____    ______ ____
ROOT
ATOM      7  C   UNL     1      -0.923   0.932  24.699  0.00  0.00    +0.265 C 
ATOM      8  O   UNL     1      -0.917   0.156  24.980  0.00  0.00    -0.268 OA
ATOM      9  N   UNL     1      -1.623   1.368  24.706  0.00  0.00    -0.268 N 
ATOM     10  C   UNL     1      -1.630   2.144  24.426  0.00  0.00    +0.096 C 
ATOM     11  C   UNL     1      -2.330   2.579  24.433  0.00  0.00    +0.043 C 
ATOM     12  C   UNL     1      -3.025   2.239  24.720  0.00  0.00    +0.100 C 
ATOM     13  C   UNL     1      -3.019   1.463  25.000  0.00  0.00    +0.051 C 
ATOM     14  C   UNL     1      -2.318   1.027  24.993  0.00  0.00    +0.155 C 
ENDROOT
BRANCH   7   6
ATOM      1  C   UNL     1       0.122   0.262  23.402  0.00  0.00    +0.131 C 
ATOM      2  N   UNL     1       0.252   0.964  23.816  0.00  0.00    -0.320 N 
ATOM      3  C   UNL     1       0.884   1.482  23.706  0.00  0.00    +0.076 A 
ATOM      4  C   UNL     1       0.795   2.110  24.234  0.00  0.00    +0.020 A 
ATOM      5  C   UNL     1       0.107   1.980  24.670  0.00  0.00    +0.023 A 
ATOM      6  C   UNL     1      -0.229   1.272  24.412  0.00  0.00    +0.114 A 
ENDBRANCH   7   6
BRANCH  14  15
ATOM     15  C   UNL     1      -2.313   0.251  25.274  0.00  0.00    +0.260 C 
ATOM     16  O   UNL     1      -1.651  -0.040  25.670  0.00  0.00    -0.272 OA
ATOM     17  N   UNL     1      -2.971  -0.233  25.157  0.00  0.00    -0.196 NA
BRANCH  17  18
ATOM     18  C   UNL     1      -2.965  -1.009  25.438  0.00  0.00    +0.179 C 
BRANCH  18  26
ATOM     26  C   UNL     1      -3.197  -1.170  26.214  0.00  0.00    +0.281 C 
ATOM     27  N   UNL     1      -2.700  -1.601  26.711  0.00  0.00    -0.086 NA
ATOM     28  O   UNL     1      -3.925  -0.898  26.491  0.00  0.00    -0.270 OA
ENDBRANCH  18  26
BRANCH  18  19
ATOM     19  C   UNL     1      -2.729  -1.625  24.942  0.00  0.00    +0.057 C 
BRANCH  19  20
ATOM     20  C   UNL     1      -3.288  -2.028  24.489  0.00  0.00    -0.020 A 
ATOM     21  C   UNL     1      -3.812  -1.608  24.011  0.00  0.00    -0.004 A 
ATOM     22  C   UNL     1      -4.372  -2.010  23.558  0.00  0.00    -0.000 A 
ATOM     23  C   UNL     1      -4.407  -2.834  23.583  0.00  0.00    -0.000 A 
ATOM     24  C   UNL     1      -3.882  -3.255  24.061  0.00  0.00    -0.000 A 
ATOM     25  C   UNL     1      -3.322  -2.852  24.514  0.00  0.00    -0.004 A 
ENDBRANCH  19  20
ENDBRANCH  18  19
ENDBRANCH  17  18
ENDBRANCH  14  15
BRANCH  12  29
ATOM     29  N   UNL     1      -3.725   2.675  24.727  0.00  0.00    -0.203 NA
ATOM     30  C   UNL     1      -3.961   3.066  25.414  0.00  0.00    +0.273 C 
ATOM     31  O   UNL     1      -3.497   3.021  26.094  0.00  0.00    -0.268 OA
BRANCH  30  32
ATOM     32  C   UNL     1      -4.661   3.501  25.421  0.00  0.00    +0.119 A 
ATOM     33  C   UNL     1      -5.396   3.236  25.690  0.00  0.00    +0.093 A 
ATOM     34  C   UNL     1      -5.557   2.489  25.998  0.00  0.00    +0.055 C 
ATOM     35  N   UNL     1      -5.938   3.850  25.595  0.00  0.00    -0.145 NA
ATOM     36  N   UNL     1      -5.541   4.495  25.268  0.00  0.00    -0.110 NA
ATOM     37  S   UNL     1      -4.752   4.279  25.161  0.00  0.00    +0.042 S 
ENDBRANCH  30  32
ENDBRANCH  12  29
TORSDOF 8
ENDMDL
MODEL 9
REMARK VINA RESULT:      -9.7      1.197      4.063
REMARK  Name = 
REMARK  8 active torsions:
REMARK  status: ('A' for Active; 'I' for Inactive)
REMARK    1  A    between atoms: C_6  and  C_7
REMARK    2  A    between atoms: C_12  and  N_29
REMARK    3  A    between atoms: C_14  and  C_15
REMARK    4  A    between atoms: N_17  and  C_18
REMARK    5  A    between atoms: C_18  and  C_19
REMARK    6  A    between atoms: C_18  and  C_26
REMARK    7  A    between atoms: C_19  and  C_20
REMARK    8  A    between atoms: C_30  and  C_32
REMARK                            x       y       z     vdW  Elec       q    Type
REMARK                         _______ _______ _______ _____ _____    ______ ____
ROOT
ATOM      7  C   UNL     1      -1.476   2.123  25.193  0.00  0.00    +0.265 C 
ATOM      8  O   UNL     1      -1.906   1.662  25.725  0.00  0.00    -0.268 OA
ATOM      9  N   UNL     1      -0.949   1.765  24.669  0.00  0.00    -0.268 N 
ATOM     10  C   UNL     1      -0.519   2.226  24.137  0.00  0.00    +0.096 C 
ATOM     11  C   UNL     1       0.008   1.868  23.613  0.00  0.00    +0.043 C 
ATOM     12  C   UNL     1       0.104   1.049  23.620  0.00  0.00    +0.100 C 
ATOM     13  C   UNL     1      -0.326   0.588  24.151  0.00  0.00    +0.051 C 
ATOM     14  C   UNL     1      -0.853   0.946  24.676  0.00  0.00    +0.155 C 
ENDROOT
BRANCH   7   6
ATOM      1  C   UNL     1      -2.983   3.005  24.777  0.00  0.00    +0.131 C 
ATOM      2  N   UNL     1      -2.265   3.348  24.995  0.00  0.00    -0.320 N 
ATOM      3  C   UNL     1      -2.114   4.156  25.059  0.00  0.00    +0.076 A 
ATOM      4  C   UNL     1      -1.327   4.250  25.290  0.00  0.00    +0.020 A 
ATOM      5  C   UNL     1      -0.992   3.501  25.368  0.00  0.00    +0.023 A 
ATOM      6  C   UNL     1      -1.572   2.942  25.186  0.00  0.00    +0.114 A 
ENDBRANCH   7   6
BRANCH  14  15
ATOM     15  C   UNL     1      -1.283   0.484  25.207  0.00  0.00    +0.260 C 
ATOM     16  O   UNL     1      -1.359   0.722  25.993  0.00  0.00    -0.272 OA
ATOM     17  N   UNL     1      -1.638  -0.216  24.951  0.00  0.00    -0.196 NA
BRANCH  17  18
ATOM     18  C   UNL     1      -2.068  -0.678  25.483  0.00  0.00    +0.179 C 
BRANCH  18  26
ATOM     26  C   UNL     1      -1.674  -1.181  26.006  0.00  0.00    +0.281 C 
ATOM     27  N   UNL     1      -1.073  -1.674  25.730  0.00  0.00    -0.086 NA
ATOM     28  O   UNL     1      -1.882  -1.190  26.804  0.00  0.00    -0.270 OA
ENDBRANCH  18  26
BRANCH  18  19
ATOM     19  C   UNL     1      -2.892  -0.637  25.492  0.00  0.00    +0.057 C 
BRANCH  19  20
ATOM     20  C   UNL     1      -3.331  -1.061  24.937  0.00  0.00    -0.020 A 
ATOM     21  C   UNL     1      -3.793  -0.661  24.383  0.00  0.00    -0.004 A 
ATOM     22  C   UNL     1      -4.233  -1.085  23.828  0.00  0.00    -0.000 A 
ATOM     23  C   UNL     1      -4.210  -1.910  23.828  0.00  0.00    -0.000 A 
ATOM     24  C   UNL     1      -3.748  -2.310  24.382  0.00  0.00    -0.000 A 
ATOM     25  C   UNL     1      -3.308  -1.886  24.937  0.00  0.00    -0.004 A 
ENDBRANCH  19  20
ENDBRANCH  18  19
ENDBRANCH  17  18
ENDBRANCH  14  15
BRANCH  12  29
ATOM     29  N   UNL     1       0.631   0.691  23.095  0.00  0.00    -0.203 NA
ATOM     30  C   UNL     1       1.444   0.750  23.223  0.00  0.00    +0.273 C 
ATOM     31  O   UNL     1       1.730   1.166  23.875  0.00  0.00    -0.268 OA
BRANCH  30  32
ATOM     32  C   UNL     1       1.971   0.392  22.699  0.00  0.00    +0.119 A 
ATOM     33  C   UNL     1       2.777   0.557  22.632  0.00  0.00    +0.093 A 
ATOM     34  C   UNL     1       3.196   1.109  23.077  0.00  0.00    +0.055 C 
ATOM     35  N   UNL     1       3.087   0.073  22.041  0.00  0.00    -0.145 NA
ATOM     36  N   UNL     1       2.475  -0.392  21.742  0.00  0.00    -0.110 NA
ATOM     37  S   UNL     1       1.785  -0.195  22.149  0.00  0.00    +0.042 S 
ENDBRANCH  30  32
ENDBRANCH  12  29
TORSDOF 8
ENDMDL
