MODEL 1
REMARK VINA RESULT:     -10.2      0.000      0.000
REMARK  Name = 
REMARK  8 active torsions:
REMARK  status: ('A' for Active; 'I' for Inactive)
REMARK    1  A    between atoms: C_3  and  C_4
REMARK    2  A    between atoms: C_4  and  N_5
REMARK    3  A    between atoms: N_5  and  S_6
REMARK    4  A    between atoms: S_6  and  C_9
REMARK    5  A    between atoms: C_17  and  N_18
REMARK    6  A    between atoms: N_18  and  C_19
REMARK    7  A    between atoms: C_19  and  C_20
REMARK    8  A    between atoms: C_23  and  C_26
REMARK                            x       y       z     vdW  Elec       q    Type
REMARK                         _______ _______ _______ _____ _____    ______ ____
ROOT
ATOM      1  O   UNL     1      -3.359   1.687  23.823  0.00  0.00    -0.219 OA
ATOM      2  C   UNL     1      -3.903   1.809  24.432  0.00  0.00    +0.199 C 
ATOM      3  C   UNL     1      -4.019   2.514  24.844  0.00  0.00    +0.166 C 
ATOM     15  O   UNL     1      -4.613   2.388  25.402  0.00  0.00    -0.350 OA
ATOM     16  C   UNL     1      -4.864   1.605  25.335  0.00  0.00    +0.162 C 
ATOM     17  C   UNL     1      -4.425   1.247  24.735  0.00  0.00    +0.135 C 
ENDROOT
BRANCH   3   4
ATOM      4  C   UNL     1      -3.613   3.221  24.720  0.00  0.00    +0.148 C 
BRANCH   4   5
ATOM      5  N   UNL     1      -3.257   3.610  25.355  0.00  0.00    -0.075 NA
BRANCH   5   6
ATOM      6  S   UNL     1      -2.577   4.062  25.234  0.00  0.00    +0.077 S 
ATOM      7  O   UNL     1      -2.906   4.371  24.543  0.00  0.00    -0.152 OA
ATOM      8  O   UNL     1      -2.248   3.752  25.924  0.00  0.00    -0.152 OA
BRANCH   6   9
ATOM      9  C   UNL     1      -1.898   4.513  25.112  0.00  0.00    +0.124 A 
ATOM     10  C   UNL     1      -1.173   4.141  24.979  0.00  0.00    +0.020 A 
ATOM     11  C   UNL     1      -0.494   4.592  24.858  0.00  0.00    +0.001 A 
ATOM     12  C   UNL     1      -0.538   5.417  24.870  0.00  0.00    +0.000 A 
ATOM     13  C   UNL     1      -1.262   5.788  25.003  0.00  0.00    +0.001 A 
ATOM     14  C   UNL     1      -1.942   5.336  25.124  0.00  0.00    +0.020 A 
ENDBRANCH   6   9
ENDBRANCH   5   6
ENDBRANCH   4   5
ENDBRANCH   3   4
BRANCH  17  18
ATOM     18  N   UNL     1      -4.495   0.465  24.484  0.00  0.00    -0.209 NA
BRANCH  18  19
ATOM     19  C   UNL     1      -4.517  -0.146  25.037  0.00  0.00    +0.115 C 
BRANCH  19  20
ATOM     20  C   UNL     1      -4.186  -0.880  24.854  0.00  0.00    -0.005 A 
ATOM     21  C   UNL     1      -3.666  -1.242  25.383  0.00  0.00    -0.003 A 
ATOM     22  C   UNL     1      -3.336  -1.975  25.200  0.00  0.00    +0.006 A 
ATOM     23  C   UNL     1      -3.526  -2.347  24.489  0.00  0.00    +0.080 A 
ATOM     24  C   UNL     1      -4.046  -1.986  23.960  0.00  0.00    +0.006 A 
ATOM     25  C   UNL     1      -4.376  -1.252  24.143  0.00  0.00    -0.003 A 
BRANCH  23  26
ATOM     26  C   UNL     1      -3.195  -3.081  24.306  0.00  0.00    +0.388 C 
ATOM     27  O   UNL     1      -2.380  -3.152  24.202  0.00  0.00    -0.241 OA
ATOM     28  O   UNL     1      -3.681  -3.744  24.228  0.00  0.00    -0.241 OA
ENDBRANCH  23  26
ENDBRANCH  19  20
ENDBRANCH  18  19
ENDBRANCH  17  18
TORSDOF 8
ENDMDL
MODEL 2
REMARK VINA RESULT:      -9.2      4.786      6.160
REMARK  Name = 
REMARK  8 active torsions:
REMARK  status: ('A' for Active; 'I' for Inactive)
REMARK    1  A    between atoms: C_3  and  C_4
REMARK    2  A    between atoms: C_4  and  N_5
REMARK    3  A    between atoms: N_5  and  S_6
REMARK    4  A    between atoms: S_6  and  C_9
REMARK    5  A    between atoms: C_17  and  N_18
REMARK    6  A    between atoms: N_18  and  C_19
REMARK    7  A    between atoms: C_19  and  C_20
REMARK    8  A    between atoms: C_23  and  C_26
REMARK                            x       y       z     vdW  Elec       q    Type
REMARK                         _______ _______ _______ _____ _____    ______ ____
ROOT
ATOM      1  O   UNL     1       0.431   1.830  24.252  0.00  0.00    -0.219 OA
ATOM      2  C   UNL     1       0.261   1.124  23.860  0.00  0.00    +0.199 C 
ATOM      3  C   UNL     1      -0.487   0.789  23.767  0.00  0.00    +0.166 C 
ATOM     15  O   UNL     1      -0.401   0.088  23.342  0.00  0.00    -0.350 OA
ATOM     16  C   UNL     1       0.400  -0.011  23.172  0.00  0.00    +0.162 C 
ATOM     17  C   UNL     1       0.810   0.629  23.492  0.00  0.00    +0.135 C 
ENDROOT
BRANCH   3   4
ATOM      4  C   UNL     1      -1.197   1.102  24.049  0.00  0.00    +0.148 C 
BRANCH   4   5
ATOM      5  N   UNL     1      -1.909   0.719  23.887  0.00  0.00    -0.075 NA
BRANCH   5   6
ATOM      6  S   UNL     1      -2.623   1.057  24.127  0.00  0.00    +0.077 S 
ATOM      7  O   UNL     1      -2.763   1.312  23.355  0.00  0.00    -0.152 OA
ATOM      8  O   UNL     1      -2.484   0.802  24.900  0.00  0.00    -0.152 OA
BRANCH   6   9
ATOM      9  C   UNL     1      -3.336   1.394  24.367  0.00  0.00    +0.124 A 
ATOM     10  C   UNL     1      -3.465   2.203  24.268  0.00  0.00    +0.020 A 
ATOM     11  C   UNL     1      -4.177   2.541  24.508  0.00  0.00    +0.001 A 
ATOM     12  C   UNL     1      -4.764   2.069  24.848  0.00  0.00    +0.000 A 
ATOM     13  C   UNL     1      -4.636   1.260  24.947  0.00  0.00    +0.001 A 
ATOM     14  C   UNL     1      -3.922   0.923  24.707  0.00  0.00    +0.020 A 
ENDBRANCH   6   9
ENDBRANCH   5   6
ENDBRANCH   4   5
ENDBRANCH   3   4
BRANCH  17  18
ATOM     18  N   UNL     1       1.624   0.753  23.452  0.00  0.00    -0.209 NA
BRANCH  18  19
ATOM     19  C   UNL     1       2.079   0.330  22.909  0.00  0.00    +0.115 C 
BRANCH  19  20
ATOM     20  C   UNL     1       2.898   0.291  23.000  0.00  0.00    -0.005 A 
ATOM     21  C   UNL     1       3.367   0.940  22.802  0.00  0.00    -0.003 A 
ATOM     22  C   UNL     1       4.186   0.901  22.892  0.00  0.00    +0.006 A 
ATOM     23  C   UNL     1       4.536   0.212  23.181  0.00  0.00    +0.080 A 
ATOM     24  C   UNL     1       4.068  -0.437  23.379  0.00  0.00    +0.006 A 
ATOM     25  C   UNL     1       3.248  -0.398  23.288  0.00  0.00    -0.003 A 
BRANCH  23  26
ATOM     26  C   UNL     1       5.356   0.173  23.271  0.00  0.00    +0.388 C 
ATOM     27  O   UNL     1       5.708   0.454  23.962  0.00  0.00    -0.241 OA
ATOM     28  O   UNL     1       5.821  -0.148  22.671  0.00  0.00    -0.241 OA
ENDBRANCH  23  26
ENDBRANCH  19  20
ENDBRANCH  18  19
ENDBRANCH  17  18
TORSDOF 8
ENDMDL
MODEL 3
REMARK VINA RESULT:      -9.2      1.579      6.023
REMARK  Name = 
REMARK  8 active torsions:
REMARK  status: ('A' for Active; 'I' for Inactive)
REMARK    1  A    between atoms: C_3  and  C_4
REMARK    2  A    between atoms: C_4  and  N_5
REMARK    3  A    between atoms: N_5  and  S_6
REMARK    4  A    between atoms: S_6  and  C_9
REMARK    5  A    between atoms: C_17  and  N_18
REMARK    6  A    between atoms: N_18  and  C_19
REMARK    7  A    between atoms: C_19  and  C_20
REMARK    8  A    between atoms: C_23  and  C_26
REMARK                            x       y       z     vdW  Elec       q    Type
REMARK                         _______ _______ _______ _____ _____    ______ ____
ROOT
ATOM      1  O   UNL     1      -3.518   1.488  23.864  0.00  0.00    -0.219 OA
ATOM      2  C   UNL     1      -4.076   1.495  24.471  0.00  0.00    +0.199 C 
ATOM      3  C   UNL     1      -4.481   0.840  24.766  0.00  0.00    +0.166 C 
ATOM     15  O   UNL     1      -4.983   1.100  25.367  0.00  0.00    -0.350 OA
ATOM     16  C   UNL     1      -4.888   1.916  25.444  0.00  0.00    +0.162 C 
ATOM     17  C   UNL     1      -4.328   2.161  24.890  0.00  0.00    +0.135 C 
ENDROOT
BRANCH   3   4
ATOM      4  C   UNL     1      -4.399   0.061  24.505  0.00  0.00    +0.148 C 
BRANCH   4   5
ATOM      5  N   UNL     1      -4.337  -0.553  25.053  0.00  0.00    -0.075 NA
BRANCH   5   6
ATOM      6  S   UNL     1      -3.940  -1.247  24.851  0.00  0.00    +0.077 S 
ATOM      7  O   UNL     1      -3.493  -1.193  25.543  0.00  0.00    -0.152 OA
ATOM      8  O   UNL     1      -4.386  -1.301  24.159  0.00  0.00    -0.152 OA
BRANCH   6   9
ATOM      9  C   UNL     1      -3.543  -1.941  24.649  0.00  0.00    +0.124 A 
ATOM     10  C   UNL     1      -3.959  -2.577  24.327  0.00  0.00    +0.020 A 
ATOM     11  C   UNL     1      -3.562  -3.270  24.126  0.00  0.00    +0.001 A 
ATOM     12  C   UNL     1      -2.747  -3.330  24.246  0.00  0.00    +0.000 A 
ATOM     13  C   UNL     1      -2.331  -2.695  24.569  0.00  0.00    +0.001 A 
ATOM     14  C   UNL     1      -2.729  -2.000  24.770  0.00  0.00    +0.020 A 
ENDBRANCH   6   9
ENDBRANCH   5   6
ENDBRANCH   4   5
ENDBRANCH   3   4
BRANCH  17  18
ATOM     18  N   UNL     1      -4.065   2.934  24.776  0.00  0.00    -0.209 NA
BRANCH  18  19
ATOM     19  C   UNL     1      -3.770   3.367  25.412  0.00  0.00    +0.115 C 
BRANCH  19  20
ATOM     20  C   UNL     1      -3.104   3.845  25.312  0.00  0.00    -0.005 A 
ATOM     21  C   UNL     1      -3.097   4.425  24.726  0.00  0.00    -0.003 A 
ATOM     22  C   UNL     1      -2.432   4.903  24.626  0.00  0.00    +0.006 A 
ATOM     23  C   UNL     1      -1.774   4.800  25.112  0.00  0.00    +0.080 A 
ATOM     24  C   UNL     1      -1.780   4.220  25.698  0.00  0.00    +0.006 A 
ATOM     25  C   UNL     1      -2.446   3.742  25.798  0.00  0.00    -0.003 A 
BRANCH  23  26
ATOM     26  C   UNL     1      -1.108   5.278  25.012  0.00  0.00    +0.388 C 
ATOM     27  O   UNL     1      -0.366   4.934  24.902  0.00  0.00    -0.241 OA
ATOM     28  O   UNL     1      -1.186   6.099  25.022  0.00  0.00    -0.241 OA
ENDBRANCH  23  26
ENDBRANCH  19  20
ENDBRANCH  18  19
ENDBRANCH  17  18
TORSDOF 8
ENDMDL
MODEL 4
REMARK VINA RESULT:      -9.1      2.276      6.487
REMARK  Name = 
REMARK  8 active torsions:
REMARK  status: ('A' for Active; 'I' for Inactive)
REMARK    1  A    between atoms: C_3  and  C_4
REMARK    2  A    between atoms: C_4  and  N_5
REMARK    3  A    between atoms: N_5  and  S_6
REMARK    4  A    between atoms: S_6  and  C_9
REMARK    5  A    between atoms: C_17  and  N_18
REMARK    6  A    between atoms: N_18  and  C_19
REMARK    7  A    between atoms: C_19  and  C_20
REMARK    8  A    between atoms: C_23  and  C_26
REMARK                            x       y       z     vdW  Elec       q    Type
REMARK                         _______ _______ _______ _____ _____    ______ ____
ROOT
ATOM      1  O   UNL     1      -1.364   0.771  23.973  0.00  0.00    -0.219 OA
ATOM      2  C   UNL     1      -1.151   0.586  24.749  0.00  0.00    +0.199 C 
ATOM      3  C   UNL     1      -1.245  -0.146  25.116  0.00  0.00    +0.166 C 
ATOM     15  O   UNL     1      -0.959  -0.084  25.886  0.00  0.00    -0.350 OA
ATOM     16  C   UNL     1      -0.687   0.687  25.996  0.00  0.00    +0.162 C 
ATOM     17  C   UNL     1      -0.805   1.102  25.293  0.00  0.00    +0.135 C 
ENDROOT
BRANCH   3   4
ATOM      4  C   UNL     1      -1.569  -0.823  24.772  0.00  0.00    +0.148 C 
BRANCH   4   5
ATOM      5  N   UNL     1      -2.057  -1.318  25.216  0.00  0.00    -0.075 NA
BRANCH   5   6
ATOM      6  S   UNL     1      -2.664  -1.739  24.848  0.00  0.00    +0.077 S 
ATOM      7  O   UNL     1      -2.116  -2.075  24.329  0.00  0.00    -0.152 OA
ATOM      8  O   UNL     1      -3.211  -1.404  25.366  0.00  0.00    -0.152 OA
BRANCH   6   9
ATOM      9  C   UNL     1      -3.270  -2.160  24.479  0.00  0.00    +0.124 A 
ATOM     10  C   UNL     1      -3.296  -2.982  24.536  0.00  0.00    +0.020 A 
ATOM     11  C   UNL     1      -3.902  -3.403  24.168  0.00  0.00    +0.001 A 
ATOM     12  C   UNL     1      -4.483  -3.001  23.742  0.00  0.00    +0.000 A 
ATOM     13  C   UNL     1      -4.457  -2.178  23.684  0.00  0.00    +0.001 A 
ATOM     14  C   UNL     1      -3.851  -1.758  24.053  0.00  0.00    +0.020 A 
ENDBRANCH   6   9
ENDBRANCH   5   6
ENDBRANCH   4   5
ENDBRANCH   3   4
BRANCH  17  18
ATOM     18  N   UNL     1      -0.613   1.892  25.158  0.00  0.00    -0.209 NA
BRANCH  18  19
ATOM     19  C   UNL     1      -0.712   2.449  25.758  0.00  0.00    +0.115 C 
BRANCH  19  20
ATOM     20  C   UNL     1      -0.900   3.230  25.569  0.00  0.00    -0.005 A 
ATOM     21  C   UNL     1      -0.366   3.690  25.139  0.00  0.00    -0.003 A 
ATOM     22  C   UNL     1      -0.553   4.471  24.950  0.00  0.00    +0.006 A 
ATOM     23  C   UNL     1      -1.274   4.792  25.191  0.00  0.00    +0.080 A 
ATOM     24  C   UNL     1      -1.807   4.333  25.621  0.00  0.00    +0.006 A 
ATOM     25  C   UNL     1      -1.620   3.551  25.810  0.00  0.00    -0.003 A 
BRANCH  23  26
ATOM     26  C   UNL     1      -1.461   5.573  25.002  0.00  0.00    +0.388 C 
ATOM     27  O   UNL     1      -0.912   6.045  24.608  0.00  0.00    -0.241 OA
ATOM     28  O   UNL     1      -2.198   5.882  25.208  0.00  0.00    -0.241 OA
ENDBRANCH  23  26
ENDBRANCH  19  20
ENDBRANCH  18  19
ENDBRANCH  17  18
TORSDOF 8
ENDMDL
MODEL 5
REMARK VINA RESULT:      -9.1      1.907      2.353
REMARK  Name = 
REMARK  8 active torsions:
REMARK  status: ('A' for Active; 'I' for Inactive)
REMARK    1  A    between atoms: C_3  and  C_4
REMARK    2  A    between atoms: C_4  and  N_5
REMARK    3  A    between atoms: N_5  and  S_6
REMARK    4  A    between atoms: S_6  and  C_9
REMARK    5  A    between atoms: C_17  and  N_18
REMARK    6  A    between atoms: N_18  and  C_19
REMARK    7  A    between atoms: C_19  and  C_20
REMARK    8  A    between atoms: C_23  and  C_26
REMARK                            x       y       z     vdW  Elec       q    Type
REMARK                         _______ _______ _______ _____ _____    ______ ____
ROOT
ATOM      1  O   UNL     1      -1.209   0.908  23.962  0.00  0.00    -0.219 OA
ATOM      2  C   UNL     1      -1.002   0.789  24.752  0.00  0.00    +0.199 C 
ATOM      3  C   UNL     1      -0.713   1.362  25.269  0.00  0.00    +0.166 C 
ATOM     15  O   UNL     1      -0.580   1.003  25.999  0.00  0.00    -0.350 OA
ATOM     16  C   UNL     1      -0.786   0.207  25.933  0.00  0.00    +0.162 C 
ATOM     17  C   UNL     1      -1.047   0.074  25.163  0.00  0.00    +0.135 C 
ENDROOT
BRANCH   3   4
ATOM      4  C   UNL     1      -0.581   2.156  25.088  0.00  0.00    +0.148 C 
BRANCH   4   5
ATOM      5  N   UNL     1      -0.658   2.732  25.674  0.00  0.00    -0.075 NA
BRANCH   5   6
ATOM      6  S   UNL     1      -0.879   3.501  25.471  0.00  0.00    +0.077 S 
ATOM      7  O   UNL     1      -1.516   3.456  25.994  0.00  0.00    -0.152 OA
ATOM      8  O   UNL     1      -0.241   3.545  24.948  0.00  0.00    -0.152 OA
BRANCH   6   9
ATOM      9  C   UNL     1      -1.099   4.269  25.268  0.00  0.00    +0.124 A 
ATOM     10  C   UNL     1      -0.568   4.759  24.869  0.00  0.00    +0.020 A 
ATOM     11  C   UNL     1      -0.789   5.527  24.666  0.00  0.00    +0.001 A 
ATOM     12  C   UNL     1      -1.540   5.807  24.863  0.00  0.00    +0.000 A 
ATOM     13  C   UNL     1      -2.071   5.317  25.262  0.00  0.00    +0.001 A 
ATOM     14  C   UNL     1      -1.850   4.548  25.465  0.00  0.00    +0.020 A 
ENDBRANCH   6   9
ENDBRANCH   5   6
ENDBRANCH   4   5
ENDBRANCH   3   4
BRANCH  17  18
ATOM     18  N   UNL     1      -1.307  -0.646  24.856  0.00  0.00    -0.209 NA
BRANCH  18  19
ATOM     19  C   UNL     1      -1.743  -1.162  25.329  0.00  0.00    +0.115 C 
BRANCH  19  20
ATOM     20  C   UNL     1      -2.336  -1.628  24.994  0.00  0.00    -0.005 A 
ATOM     21  C   UNL     1      -3.129  -1.436  25.116  0.00  0.00    -0.003 A 
ATOM     22  C   UNL     1      -3.723  -1.902  24.781  0.00  0.00    +0.006 A 
ATOM     23  C   UNL     1      -3.522  -2.559  24.324  0.00  0.00    +0.080 A 
ATOM     24  C   UNL     1      -2.729  -2.750  24.201  0.00  0.00    +0.006 A 
ATOM     25  C   UNL     1      -2.136  -2.284  24.537  0.00  0.00    -0.003 A 
BRANCH  23  26
ATOM     26  C   UNL     1      -4.115  -3.024  23.989  0.00  0.00    +0.388 C 
ATOM     27  O   UNL     1      -4.055  -3.847  24.009  0.00  0.00    -0.241 OA
ATOM     28  O   UNL     1      -4.768  -2.667  23.633  0.00  0.00    -0.241 OA
ENDBRANCH  23  26
ENDBRANCH  19  20
ENDBRANCH  18  19
ENDBRANCH  17  18
TORSDOF 8
ENDMDL
MODEL 6
REMARK VINA RESULT:      -8.9      4.367      5.588
REMARK  Name = 
REMARK  8 active torsions:
REMARK  status: ('A' for Active; 'I' for Inactive)
REMARK    1  A    between atoms: C_3  and  C_4
REMARK    2  A    between atoms: C_4  and  N_5
REMARK    3  A    between atoms: N_5  and  S_6
REMARK    4  A    between atoms: S_6  and  C_9
REMARK    5  A    between atoms: C_17  and  N_18
REMARK    6  A    between atoms: N_18  and  C_19
REMARK    7  A    between atoms: C_19  and  C_20
REMARK    8  A    between atoms: C_23  and  C_26
REMARK                            x       y       z     vdW  Elec       q    Type
REMARK                         _______ _______ _______ _____ _____    ______ ____
ROOT
ATOM      1  O   UNL     1       0.116   1.920  24.330  0.00  0.00    -0.219 OA
ATOM      2  C   UNL     1      -0.083   1.209  23.964  0.00  0.00    +0.199 C 
ATOM      3  C   UNL     1       0.445   0.677  23.618  0.00  0.00    +0.166 C 
ATOM     15  O   UNL     1       0.009   0.044  23.319  0.00  0.00    -0.350 OA
ATOM     16  C   UNL     1      -0.788   0.183  23.480  0.00  0.00    +0.162 C 
ATOM     17  C   UNL     1      -0.845   0.903  23.879  0.00  0.00    +0.135 C 
ENDROOT
BRANCH   3   4
ATOM      4  C   UNL     1       1.264   0.765  23.577  0.00  0.00    +0.148 C 
BRANCH   4   5
ATOM      5  N   UNL     1       1.688   0.405  22.968  0.00  0.00    -0.075 NA
BRANCH   5   6
ATOM      6  S   UNL     1       2.512   0.371  23.002  0.00  0.00    +0.077 S 
ATOM      7  O   UNL     1       2.489  -0.424  22.781  0.00  0.00    -0.152 OA
ATOM      8  O   UNL     1       2.535   1.166  23.223  0.00  0.00    -0.152 OA
BRANCH   6   9
ATOM      9  C   UNL     1       3.335   0.338  23.036  0.00  0.00    +0.124 A 
ATOM     10  C   UNL     1       3.709  -0.327  23.352  0.00  0.00    +0.020 A 
ATOM     11  C   UNL     1       4.532  -0.361  23.386  0.00  0.00    +0.001 A 
ATOM     12  C   UNL     1       4.983   0.271  23.104  0.00  0.00    +0.000 A 
ATOM     13  C   UNL     1       4.610   0.935  22.788  0.00  0.00    +0.001 A 
ATOM     14  C   UNL     1       3.786   0.969  22.754  0.00  0.00    +0.020 A 
ENDBRANCH   6   9
ENDBRANCH   5   6
ENDBRANCH   4   5
ENDBRANCH   3   4
BRANCH  17  18
ATOM     18  N   UNL     1      -1.541   1.256  24.145  0.00  0.00    -0.209 NA
BRANCH  18  19
ATOM     19  C   UNL     1      -2.268   1.022  23.832  0.00  0.00    +0.115 C 
BRANCH  19  20
ATOM     20  C   UNL     1      -2.964   1.377  24.097  0.00  0.00    -0.005 A 
ATOM     21  C   UNL     1      -3.414   1.015  24.686  0.00  0.00    -0.003 A 
ATOM     22  C   UNL     1      -4.110   1.370  24.951  0.00  0.00    +0.006 A 
ATOM     23  C   UNL     1      -4.357   2.087  24.625  0.00  0.00    +0.080 A 
ATOM     24  C   UNL     1      -3.907   2.449  24.036  0.00  0.00    +0.006 A 
ATOM     25  C   UNL     1      -3.210   2.094  23.771  0.00  0.00    -0.003 A 
BRANCH  23  26
ATOM     26  C   UNL     1      -5.053   2.442  24.889  0.00  0.00    +0.388 C 
ATOM     27  O   UNL     1      -5.779   2.069  24.766  0.00  0.00    -0.241 OA
ATOM     28  O   UNL     1      -5.023   3.169  25.277  0.00  0.00    -0.241 OA
ENDBRANCH  23  26
ENDBRANCH  19  20
ENDBRANCH  18  19
ENDBRANCH  17  18
TORSDOF 8
ENDMDL
MODEL 7
REMARK VINA RESULT:      -7.8     14.182     16.630
REMARK  Name = 
REMARK  8 active torsions:
REMARK  status: ('A' for Active; 'I' for Inactive)
REMARK    1  A    between atoms: C_3  and  C_4
REMARK    2  A    between atoms: C_4  and  N_5
REMARK    3  A    between atoms: N_5  and  S_6
REMARK    4  A    between atoms: S_6  and  C_9
REMARK    5  A    between atoms: C_17  and  N_18
REMARK    6  A    between atoms: N_18  and  C_19
REMARK    7  A    between atoms: C_19  and  C_20
REMARK    8  A    between atoms: C_23  and  C_26
REMARK                            x       y       z     vdW  Elec       q    Type
REMARK                         _______ _______ _______ _____ _____    ______ ____
ROOT
ATOM      1  O   UNL     1      -4.690 -10.587  13.998  0.00  0.00    -0.219 OA
ATOM      2  C   UNL     1      -5.446 -10.258  13.976  0.00  0.00    +0.199 C 
ATOM      3  C   UNL     1      -5.946 -10.147  14.622  0.00  0.00    +0.166 C 
ATOM     15  O   UNL     1      -6.644  -9.803  14.348  0.00  0.00    -0.350 OA
ATOM     16  C   UNL     1      -6.576  -9.702  13.533  0.00  0.00    +0.162 C 
ATOM     17  C   UNL     1      -5.836  -9.983  13.302  0.00  0.00    +0.135 C 
ENDROOT
BRANCH   3   4
ATOM      4  C   UNL     1      -5.778 -10.345  15.405  0.00  0.00    +0.148 C 
BRANCH   4   5
ATOM      5  N   UNL     1      -6.170  -9.962  16.021  0.00  0.00    -0.075 NA
BRANCH   5   6
ATOM      6  S   UNL     1      -6.008 -10.166  16.804  0.00  0.00    +0.077 S 
ATOM      7  O   UNL     1      -6.620 -10.721  16.786  0.00  0.00    -0.152 OA
ATOM      8  O   UNL     1      -5.397  -9.612  16.823  0.00  0.00    -0.152 OA
BRANCH   6   9
ATOM      9  C   UNL     1      -5.847 -10.371  17.587  0.00  0.00    +0.124 A 
ATOM     10  C   UNL     1      -6.452 -10.371  18.147  0.00  0.00    +0.020 A 
ATOM     11  C   UNL     1      -6.291 -10.575  18.929  0.00  0.00    +0.001 A 
ATOM     12  C   UNL     1      -5.523 -10.781  19.152  0.00  0.00    +0.000 A 
ATOM     13  C   UNL     1      -4.917 -10.781  18.592  0.00  0.00    +0.001 A 
ATOM     14  C   UNL     1      -5.079 -10.576  17.809  0.00  0.00    +0.020 A 
ENDBRANCH   6   9
ENDBRANCH   5   6
ENDBRANCH   4   5
ENDBRANCH   3   4
BRANCH  17  18
ATOM     18  N   UNL     1      -5.537  -9.988  12.533  0.00  0.00    -0.209 NA
BRANCH  18  19
ATOM     19  C   UNL     1      -5.847  -9.475  11.967  0.00  0.00    +0.115 C 
BRANCH  19  20
ATOM     20  C   UNL     1      -5.468  -9.385  11.240  0.00  0.00    -0.005 A 
ATOM     21  C   UNL     1      -5.397 -10.028  10.728  0.00  0.00    -0.003 A 
ATOM     22  C   UNL     1      -5.018  -9.938  10.001  0.00  0.00    +0.006 A 
ATOM     23  C   UNL     1      -4.709  -9.204   9.786  0.00  0.00    +0.080 A 
ATOM     24  C   UNL     1      -4.779  -8.560  10.298  0.00  0.00    +0.006 A 
ATOM     25  C   UNL     1      -5.159  -8.651  11.025  0.00  0.00    -0.003 A 
BRANCH  23  26
ATOM     26  C   UNL     1      -4.329  -9.113   9.059  0.00  0.00    +0.388 C 
ATOM     27  O   UNL     1      -4.703  -9.356   8.365  0.00  0.00    -0.241 OA
ATOM     28  O   UNL     1      -3.575  -8.780   9.027  0.00  0.00    -0.241 OA
ENDBRANCH  23  26
ENDBRANCH  19  20
ENDBRANCH  18  19
ENDBRANCH  17  18
TORSDOF 8
ENDMDL
MODEL 8
REMARK VINA RESULT:      -7.7     17.768     18.908
REMARK  Name = 
REMARK  8 active torsions:
REMARK  status: ('A' for Active; 'I' for Inactive)
REMARK    1  A    between atoms: C_3  and  C_4
REMARK    2  A    between atoms: C_4  and  N_5
REMARK    3  A    between atoms: N_5  and  S_6
REMARK    4  A    between atoms: S_6  and  C_9
REMARK    5  A    between atoms: C_17  and  N_18
REMARK    6  A    between atoms: N_18  and  C_19
REMARK    7  A    between atoms: C_19  and  C_20
REMARK    8  A    between atoms: C_23  and  C_26
REMARK                            x       y       z     vdW  Elec       q    Type
REMARK                         _______ _______ _______ _____ _____    ______ ____
ROOT
ATOM      1  O   UNL     1      -5.910  -8.514  10.804  0.00  0.00    -0.219 OA
ATOM      2  C   UNL     1      -5.786  -8.823  10.049  0.00  0.00    +0.199 C 
ATOM      3  C   UNL     1      -5.173  -9.328   9.826  0.00  0.00    +0.166 C 
ATOM     15  O   UNL     1      -5.261  -9.498   9.024  0.00  0.00    -0.350 OA
ATOM     16  C   UNL     1      -5.930  -9.099   8.751  0.00  0.00    +0.162 C 
ATOM     17  C   UNL     1      -6.254  -8.682   9.384  0.00  0.00    +0.135 C 
ENDROOT
BRANCH   3   4
ATOM      4  C   UNL     1      -4.575  -9.612  10.319  0.00  0.00    +0.148 C 
BRANCH   4   5
ATOM      5  N   UNL     1      -3.803  -9.677  10.036  0.00  0.00    -0.075 NA
BRANCH   5   6
ATOM      6  S   UNL     1      -3.184  -9.837  10.559  0.00  0.00    +0.077 S 
ATOM      7  O   UNL     1      -2.883  -9.079  10.434  0.00  0.00    -0.152 OA
ATOM      8  O   UNL     1      -3.485 -10.595  10.683  0.00  0.00    -0.152 OA
BRANCH   6   9
ATOM      9  C   UNL     1      -2.566  -9.996  11.080  0.00  0.00    +0.124 A 
ATOM     10  C   UNL     1      -2.633 -10.613  11.625  0.00  0.00    +0.020 A 
ATOM     11  C   UNL     1      -2.015 -10.772  12.146  0.00  0.00    +0.001 A 
ATOM     12  C   UNL     1      -1.328 -10.315  12.124  0.00  0.00    +0.000 A 
ATOM     13  C   UNL     1      -1.260  -9.699  11.580  0.00  0.00    +0.001 A 
ATOM     14  C   UNL     1      -1.880  -9.539  11.058  0.00  0.00    +0.020 A 
ENDBRANCH   6   9
ENDBRANCH   5   6
ENDBRANCH   4   5
ENDBRANCH   3   4
BRANCH  17  18
ATOM     18  N   UNL     1      -6.928  -8.207   9.357  0.00  0.00    -0.209 NA
BRANCH  18  19
ATOM     19  C   UNL     1      -7.313  -8.078   8.640  0.00  0.00    +0.115 C 
BRANCH  19  20
ATOM     20  C   UNL     1      -7.901  -7.501   8.585  0.00  0.00    -0.005 A 
ATOM     21  C   UNL     1      -8.657  -7.654   8.876  0.00  0.00    -0.003 A 
ATOM     22  C   UNL     1      -9.245  -7.077   8.821  0.00  0.00    +0.006 A 
ATOM     23  C   UNL     1      -9.076  -6.348   8.475  0.00  0.00    +0.080 A 
ATOM     24  C   UNL     1      -8.319  -6.195   8.184  0.00  0.00    +0.006 A 
ATOM     25  C   UNL     1      -7.731  -6.771   8.239  0.00  0.00    -0.003 A 
BRANCH  23  26
ATOM     26  C   UNL     1      -9.663  -5.771   8.421  0.00  0.00    +0.388 C 
ATOM     27  O   UNL     1     -10.409  -5.968   8.128  0.00  0.00    -0.241 OA
ATOM     28  O   UNL     1      -9.505  -4.997   8.659  0.00  0.00    -0.241 OA
ENDBRANCH  23  26
ENDBRANCH  19  20
ENDBRANCH  18  19
ENDBRANCH  17  18
TORSDOF 8
ENDMDL
MODEL 9
REMARK VINA RESULT:      -7.7     14.124     16.403
REMARK  Name = 
REMARK  8 active torsions:
REMARK  status: ('A' for Active; 'I' for Inactive)
REMARK    1  A    between atoms: C_3  and  C_4
REMARK    2  A    between atoms: C_4  and  N_5
REMARK    3  A    between atoms: N_5  and  S_6
REMARK    4  A    between atoms: S_6  and  C_9
REMARK    5  A    between atoms: C_17  and  N_18
REMARK    6  A    between atoms: N_18  and  C_19
REMARK    7  A    between atoms: C_19  and  C_20
REMARK    8  A    between atoms: C_23  and  C_26
REMARK                            x       y       z     vdW  Elec       q    Type
REMARK                         _______ _______ _______ _____ _____    ______ ____
ROOT
ATOM      1  O   UNL     1      -5.781 -10.050  14.075  0.00  0.00    -0.219 OA
ATOM      2  C   UNL     1      -5.018 -10.322  14.233  0.00  0.00    +0.199 C 
ATOM      3  C   UNL     1      -4.412 -10.413  13.681  0.00  0.00    +0.166 C 
ATOM     15  O   UNL     1      -3.748 -10.697  14.078  0.00  0.00    -0.350 OA
ATOM     16  C   UNL     1      -3.943 -10.781  14.875  0.00  0.00    +0.162 C 
ATOM     17  C   UNL     1      -4.728 -10.549  14.971  0.00  0.00    +0.135 C 
ENDROOT
BRANCH   3   4
ATOM      4  C   UNL     1      -4.463 -10.249  12.874  0.00  0.00    +0.148 C 
BRANCH   4   5
ATOM      5  N   UNL     1      -3.778 -10.229  12.414  0.00  0.00    -0.075 NA
BRANCH   5   6
ATOM      6  S   UNL     1      -3.827 -10.051  11.609  0.00  0.00    +0.077 S 
ATOM      7  O   UNL     1      -3.014 -10.173  11.533  0.00  0.00    -0.152 OA
ATOM      8  O   UNL     1      -4.640  -9.928  11.686  0.00  0.00    -0.152 OA
BRANCH   6   9
ATOM      9  C   UNL     1      -3.875  -9.872  10.806  0.00  0.00    +0.124 A 
ATOM     10  C   UNL     1      -3.861  -9.086  10.556  0.00  0.00    +0.020 A 
ATOM     11  C   UNL     1      -3.909  -8.908   9.752  0.00  0.00    +0.001 A 
ATOM     12  C   UNL     1      -3.972  -9.516   9.197  0.00  0.00    +0.000 A 
ATOM     13  C   UNL     1      -3.987 -10.302   9.447  0.00  0.00    +0.001 A 
ATOM     14  C   UNL     1      -3.938 -10.480  10.252  0.00  0.00    +0.020 A 
ENDBRANCH   6   9
ENDBRANCH   5   6
ENDBRANCH   4   5
ENDBRANCH   3   4
BRANCH  17  18
ATOM     18  N   UNL     1      -5.149 -10.545  15.680  0.00  0.00    -0.209 NA
BRANCH  18  19
ATOM     19  C   UNL     1      -4.762 -10.378  16.389  0.00  0.00    +0.115 C 
BRANCH  19  20
ATOM     20  C   UNL     1      -5.177 -10.400  17.102  0.00  0.00    -0.005 A 
ATOM     21  C   UNL     1      -5.929 -10.066  17.151  0.00  0.00    -0.003 A 
ATOM     22  C   UNL     1      -6.345 -10.088  17.864  0.00  0.00    +0.006 A 
ATOM     23  C   UNL     1      -6.007 -10.446  18.527  0.00  0.00    +0.080 A 
ATOM     24  C   UNL     1      -5.255 -10.780  18.477  0.00  0.00    +0.006 A 
ATOM     25  C   UNL     1      -4.839 -10.757  17.764  0.00  0.00    -0.003 A 
BRANCH  23  26
ATOM     26  C   UNL     1      -6.423 -10.468  19.239  0.00  0.00    +0.388 C 
ATOM     27  O   UNL     1      -6.022 -10.373  19.954  0.00  0.00    -0.241 OA
ATOM     28  O   UNL     1      -7.239 -10.587  19.237  0.00  0.00    -0.241 OA
ENDBRANCH  23  26
ENDBRANCH  19  20
ENDBRANCH  18  19
ENDBRANCH  17  18
TORSDOF 8
ENDMDL
MODEL 10
REMARK VINA RESULT:      -7.2     14.474     15.890
REMARK  Name = 
REMARK  8 active torsions:
REMARK  status: ('A' for Active; 'I' for Inactive)
REMARK    1  A    between atoms: C_3  and  C_4
REMARK    2  A    between atoms: C_4  and  N_5
REMARK    3  A    between atoms: N_5  and  S_6
REMARK    4  A    between atoms: S_6  and  C_9
REMARK    5  A    between atoms: C_17  and  N_18
REMARK    6  A    between atoms: N_18  and  C_19
REMARK    7  A    between atoms: C_19  and  C_20
REMARK    8  A    between atoms: C_23  and  C_26
REMARK                            x       y       z     vdW  Elec       q    Type
REMARK                         _______ _______ _______ _____ _____    ______ ____
ROOT
ATOM      1  O   UNL     1      -6.290  -9.723  14.707  0.00  0.00    -0.219 OA
ATOM      2  C   UNL     1      -5.858 -10.043  15.333  0.00  0.00    +0.199 C 
ATOM      3  C   UNL     1      -6.087 -10.052  16.126  0.00  0.00    +0.166 C 
ATOM     15  O   UNL     1      -5.492 -10.425  16.558  0.00  0.00    -0.350 OA
ATOM     16  C   UNL     1      -4.896 -10.648  16.033  0.00  0.00    +0.162 C 
ATOM     17  C   UNL     1      -5.122 -10.412  15.276  0.00  0.00    +0.135 C 
ENDROOT
BRANCH   3   4
ATOM      4  C   UNL     1      -6.787  -9.741  16.432  0.00  0.00    +0.148 C 
BRANCH   4   5
ATOM      5  N   UNL     1      -7.169 -10.121  17.056  0.00  0.00    -0.075 NA
BRANCH   5   6
ATOM      6  S   UNL     1      -7.927  -9.884  17.282  0.00  0.00    +0.077 S 
ATOM      7  O   UNL     1      -7.649  -9.117  17.409  0.00  0.00    -0.152 OA
ATOM      8  O   UNL     1      -8.205 -10.650  17.156  0.00  0.00    -0.152 OA
BRANCH   6   9
ATOM      9  C   UNL     1      -8.683  -9.646  17.509  0.00  0.00    +0.124 A 
ATOM     10  C   UNL     1      -9.103 -10.083  18.069  0.00  0.00    +0.020 A 
ATOM     11  C   UNL     1      -9.859  -9.846  18.295  0.00  0.00    +0.001 A 
ATOM     12  C   UNL     1     -10.198  -9.171  17.961  0.00  0.00    +0.000 A 
ATOM     13  C   UNL     1      -9.778  -8.734  17.401  0.00  0.00    +0.001 A 
ATOM     14  C   UNL     1      -9.021  -8.972  17.174  0.00  0.00    +0.020 A 
ENDBRANCH   6   9
ENDBRANCH   5   6
ENDBRANCH   4   5
ENDBRANCH   3   4
BRANCH  17  18
ATOM     18  N   UNL     1      -4.689 -10.525  14.584  0.00  0.00    -0.209 NA
BRANCH  18  19
ATOM     19  C   UNL     1      -3.905 -10.777  14.625  0.00  0.00    +0.115 C 
BRANCH  19  20
ATOM     20  C   UNL     1      -3.407 -10.687  13.972  0.00  0.00    -0.005 A 
ATOM     21  C   UNL     1      -2.609 -10.510  14.083  0.00  0.00    -0.003 A 
ATOM     22  C   UNL     1      -2.112 -10.420  13.431  0.00  0.00    +0.006 A 
ATOM     23  C   UNL     1      -2.414 -10.506  12.668  0.00  0.00    +0.080 A 
ATOM     24  C   UNL     1      -3.212 -10.682  12.557  0.00  0.00    +0.006 A 
ATOM     25  C   UNL     1      -3.709 -10.773  13.209  0.00  0.00    -0.003 A 
BRANCH  23  26
ATOM     26  C   UNL     1      -1.916 -10.415  12.015  0.00  0.00    +0.388 C 
ATOM     27  O   UNL     1      -1.127 -10.203  12.125  0.00  0.00    -0.241 OA
ATOM     28  O   UNL     1      -2.209 -10.537  11.254  0.00  0.00    -0.241 OA
ENDBRANCH  23  26
ENDBRANCH  19  20
ENDBRANCH  18  19
ENDBRANCH  17  18
TORSDOF 8
ENDMDL
