MODEL 1
REMARK VINA RESULT:      -9.5      0.000      0.000
REMARK  Name = 
REMARK  5 active torsions:
REMARK  status: ('A' for Active; 'I' for Inactive)
REMARK    1  A    between atoms: C_1  and  N_2
REMARK    2  A    between atoms: C_1  and  C_24
REMARK    3  A    between atoms: C_6  and  C_7
REMARK    4  A    between atoms: C_9  and  C_12
REMARK    5  A    between atoms: C_15  and  C_18
REMARK                            x       y       z     vdW  Elec       q    Type
REMARK                         _______ _______ _______ _____ _____    ______ ____
ROOT
ATOM      7  C   UNL     1      -2.372  -0.051  24.785  0.00  0.00    +0.251 A 
ATOM      8  N   UNL     1      -1.821   0.063  24.183  0.00  0.00    -0.190 NA
ATOM      9  C   UNL     1      -1.068  -0.052  24.500  0.00  0.00    +0.205 A 
ATOM     10  N   UNL     1      -1.154  -0.237  25.300  0.00  0.00    -0.056 NA
ATOM     11  O   UNL     1      -1.960  -0.236  25.476  0.00  0.00    -0.336 OA
ENDROOT
BRANCH   9  12
ATOM     12  C   UNL     1      -0.355   0.007  24.091  0.00  0.00    +0.058 A 
ATOM     13  C   UNL     1      -0.056   0.748  23.886  0.00  0.00    +0.006 A 
ATOM     14  C   UNL     1       0.657   0.807  23.476  0.00  0.00    +0.019 A 
ATOM     15  C   UNL     1       1.073   0.125  23.271  0.00  0.00    +0.084 A 
ATOM     16  N   UNL     1       0.774  -0.617  23.475  0.00  0.00    -0.244 NA
ATOM     17  C   UNL     1       0.060  -0.676  23.885  0.00  0.00    +0.102 A 
BRANCH  15  18
ATOM     18  C   UNL     1       1.786   0.184  22.861  0.00  0.00    +0.056 A 
ATOM     19  C   UNL     1       1.856  -0.140  22.105  0.00  0.00    +0.104 A 
ATOM     20  N   UNL     1       2.569  -0.080  21.696  0.00  0.00    -0.222 NA
ATOM     21  C   UNL     1       3.213   0.302  22.042  0.00  0.00    +0.199 A 
ATOM     22  N   UNL     1       3.143   0.626  22.797  0.00  0.00    -0.222 NA
ATOM     23  C   UNL     1       2.429   0.566  23.207  0.00  0.00    +0.104 A 
ENDBRANCH  15  18
ENDBRANCH   9  12
BRANCH   7   6
ATOM      2  N   UNL     1      -3.638   0.697  24.813  0.00  0.00    -0.263 NA
ATOM      3  C   UNL     1      -4.431   0.507  24.687  0.00  0.00    +0.073 C 
ATOM      4  C   UNL     1      -4.475  -0.297  24.507  0.00  0.00    +0.019 C 
ATOM      5  C   UNL     1      -3.709  -0.603  24.522  0.00  0.00    +0.027 C 
ATOM      6  C   UNL     1      -3.192   0.011  24.711  0.00  0.00    +0.138 C 
BRANCH   2   1
ATOM      1  C   UNL     1      -3.343   1.443  25.007  0.00  0.00    +0.100 C 
BRANCH   1  24
ATOM     24  C   UNL     1      -3.835   2.105  24.964  0.00  0.00    -0.003 A 
ATOM     25  C   UNL     1      -3.813   2.592  24.298  0.00  0.00    +0.000 A 
ATOM     26  C   UNL     1      -4.303   3.253  24.255  0.00  0.00    +0.040 A 
ATOM     27  C   UNL     1      -4.816   3.428  24.877  0.00  0.00    +0.176 A 
ATOM     28  O   UNL     1      -5.360   4.037  24.990  0.00  0.00    -0.435 OA
ATOM     29  C   UNL     1      -5.718   3.927  25.725  0.00  0.00    +0.429 C 
ATOM     30  O   UNL     1      -5.395   3.250  26.066  0.00  0.00    -0.435 OA
ATOM     31  C   UNL     1      -4.838   2.941  25.543  0.00  0.00    +0.176 A 
ATOM     32  C   UNL     1      -4.347   2.279  25.586  0.00  0.00    +0.037 A 
ENDBRANCH   1  24
ENDBRANCH   2   1
ENDBRANCH   7   6
TORSDOF 5
ENDMDL
MODEL 2
REMARK VINA RESULT:      -9.5      3.303      5.016
REMARK  Name = 
REMARK  5 active torsions:
REMARK  status: ('A' for Active; 'I' for Inactive)
REMARK    1  A    between atoms: C_1  and  N_2
REMARK    2  A    between atoms: C_1  and  C_24
REMARK    3  A    between atoms: C_6  and  C_7
REMARK    4  A    between atoms: C_9  and  C_12
REMARK    5  A    between atoms: C_15  and  C_18
REMARK                            x       y       z     vdW  Elec       q    Type
REMARK                         _______ _______ _______ _____ _____    ______ ____
ROOT
ATOM      7  C   UNL     1      -4.089   2.781  25.067  0.00  0.00    +0.251 A 
ATOM      8  N   UNL     1      -3.830   2.006  25.177  0.00  0.00    -0.190 NA
ATOM      9  C   UNL     1      -4.256   1.519  24.665  0.00  0.00    +0.205 A 
ATOM     10  N   UNL     1      -4.779   1.994  24.238  0.00  0.00    -0.056 NA
ATOM     11  O   UNL     1      -4.676   2.774  24.486  0.00  0.00    -0.336 OA
ENDROOT
BRANCH   9  12
ATOM     12  C   UNL     1      -4.174   0.702  24.592  0.00  0.00    +0.058 A 
ATOM     13  C   UNL     1      -3.766   0.383  23.950  0.00  0.00    +0.006 A 
ATOM     14  C   UNL     1      -3.684  -0.435  23.878  0.00  0.00    +0.019 A 
ATOM     15  C   UNL     1      -4.010  -0.934  24.448  0.00  0.00    +0.084 A 
ATOM     16  N   UNL     1      -4.418  -0.616  25.090  0.00  0.00    -0.244 NA
ATOM     17  C   UNL     1      -4.500   0.203  25.162  0.00  0.00    +0.102 A 
BRANCH  15  18
ATOM     18  C   UNL     1      -3.927  -1.751  24.375  0.00  0.00    +0.056 A 
ATOM     19  C   UNL     1      -3.447  -2.167  24.902  0.00  0.00    +0.104 A 
ATOM     20  N   UNL     1      -3.365  -2.984  24.830  0.00  0.00    -0.222 NA
ATOM     21  C   UNL     1      -3.763  -3.387  24.230  0.00  0.00    +0.199 A 
ATOM     22  N   UNL     1      -4.244  -2.972  23.703  0.00  0.00    -0.222 NA
ATOM     23  C   UNL     1      -4.326  -2.154  23.776  0.00  0.00    +0.104 A 
ENDBRANCH  15  18
ENDBRANCH   9  12
BRANCH   7   6
ATOM      2  N   UNL     1      -3.065   3.788  25.380  0.00  0.00    -0.263 NA
ATOM      3  C   UNL     1      -3.023   4.441  25.883  0.00  0.00    +0.073 C 
ATOM      4  C   UNL     1      -3.743   4.503  26.280  0.00  0.00    +0.019 C 
ATOM      5  C   UNL     1      -4.230   3.889  26.022  0.00  0.00    +0.027 C 
ATOM      6  C   UNL     1      -3.811   3.447  25.467  0.00  0.00    +0.138 C 
BRANCH   2   1
ATOM      1  C   UNL     1      -2.466   3.522  24.879  0.00  0.00    +0.100 C 
BRANCH   1  24
ATOM     24  C   UNL     1      -1.687   3.481  25.151  0.00  0.00    -0.003 A 
ATOM     25  C   UNL     1      -1.147   4.070  24.945  0.00  0.00    +0.000 A 
ATOM     26  C   UNL     1      -0.370   4.028  25.217  0.00  0.00    +0.040 A 
ATOM     27  C   UNL     1      -0.132   3.399  25.696  0.00  0.00    +0.176 A 
ATOM     28  O   UNL     1       0.591   3.212  26.044  0.00  0.00    -0.435 OA
ATOM     29  C   UNL     1       0.499   2.509  26.465  0.00  0.00    +0.429 C 
ATOM     30  O   UNL     1      -0.283   2.261  26.376  0.00  0.00    -0.435 OA
ATOM     31  C   UNL     1      -0.673   2.811  25.901  0.00  0.00    +0.176 A 
ATOM     32  C   UNL     1      -1.451   2.852  25.629  0.00  0.00    +0.037 A 
ENDBRANCH   1  24
ENDBRANCH   2   1
ENDBRANCH   7   6
TORSDOF 5
ENDMDL
MODEL 3
REMARK VINA RESULT:      -8.5      1.922      6.226
REMARK  Name = 
REMARK  5 active torsions:
REMARK  status: ('A' for Active; 'I' for Inactive)
REMARK    1  A    between atoms: C_1  and  N_2
REMARK    2  A    between atoms: C_1  and  C_24
REMARK    3  A    between atoms: C_6  and  C_7
REMARK    4  A    between atoms: C_9  and  C_12
REMARK    5  A    between atoms: C_15  and  C_18
REMARK                            x       y       z     vdW  Elec       q    Type
REMARK                         _______ _______ _______ _____ _____    ______ ____
ROOT
ATOM      7  C   UNL     1      -2.092  -0.587  24.575  0.00  0.00    +0.251 A 
ATOM      8  N   UNL     1      -2.366   0.118  24.903  0.00  0.00    -0.190 NA
ATOM      9  C   UNL     1      -3.121   0.264  24.602  0.00  0.00    +0.205 A 
ATOM     10  N   UNL     1      -3.313  -0.353  24.088  0.00  0.00    -0.056 NA
ATOM     11  O   UNL     1      -2.677  -0.878  24.071  0.00  0.00    -0.336 OA
ENDROOT
BRANCH   9  12
ATOM     12  C   UNL     1      -3.599   0.910  24.784  0.00  0.00    +0.058 A 
ATOM     13  C   UNL     1      -4.396   0.797  24.966  0.00  0.00    +0.006 A 
ATOM     14  C   UNL     1      -4.874   1.445  25.148  0.00  0.00    +0.019 A 
ATOM     15  C   UNL     1      -4.556   2.206  25.147  0.00  0.00    +0.084 A 
ATOM     16  N   UNL     1      -3.759   2.319  24.964  0.00  0.00    -0.244 NA
ATOM     17  C   UNL     1      -3.281   1.671  24.783  0.00  0.00    +0.102 A 
BRANCH  15  18
ATOM     18  C   UNL     1      -5.034   2.852  25.329  0.00  0.00    +0.056 A 
ATOM     19  C   UNL     1      -4.786   3.616  25.136  0.00  0.00    +0.104 A 
ATOM     20  N   UNL     1      -5.264   4.262  25.318  0.00  0.00    -0.222 NA
ATOM     21  C   UNL     1      -5.990   4.146  25.692  0.00  0.00    +0.199 A 
ATOM     22  N   UNL     1      -6.238   3.384  25.885  0.00  0.00    -0.222 NA
ATOM     23  C   UNL     1      -5.759   2.736  25.703  0.00  0.00    +0.104 A 
ENDBRANCH  15  18
ENDBRANCH   9  12
BRANCH   7   6
ATOM      2  N   UNL     1      -0.653  -0.770  24.337  0.00  0.00    -0.263 NA
ATOM      3  C   UNL     1      -0.064  -1.249  24.660  0.00  0.00    +0.073 C 
ATOM      4  C   UNL     1      -0.409  -1.714  25.248  0.00  0.00    +0.019 C 
ATOM      5  C   UNL     1      -1.210  -1.523  25.287  0.00  0.00    +0.027 C 
ATOM      6  C   UNL     1      -1.361  -0.939  24.724  0.00  0.00    +0.138 C 
BRANCH   2   1
ATOM      1  C   UNL     1      -0.551  -0.218  23.732  0.00  0.00    +0.100 C 
BRANCH   1  24
ATOM     24  C   UNL     1       0.201   0.077  23.565  0.00  0.00    -0.003 A 
ATOM     25  C   UNL     1       0.471   0.758  23.944  0.00  0.00    +0.000 A 
ATOM     26  C   UNL     1       1.222   1.053  23.777  0.00  0.00    +0.040 A 
ATOM     27  C   UNL     1       1.706   0.668  23.231  0.00  0.00    +0.176 A 
ATOM     28  O   UNL     1       2.466   0.828  22.956  0.00  0.00    -0.435 OA
ATOM     29  C   UNL     1       2.667   0.246  22.408  0.00  0.00    +0.429 C 
ATOM     30  O   UNL     1       2.031  -0.274  22.343  0.00  0.00    -0.435 OA
ATOM     31  C   UNL     1       1.436  -0.013  22.851  0.00  0.00    +0.176 A 
ATOM     32  C   UNL     1       0.684  -0.309  23.018  0.00  0.00    +0.037 A 
ENDBRANCH   1  24
ENDBRANCH   2   1
ENDBRANCH   7   6
TORSDOF 5
ENDMDL
MODEL 4
REMARK VINA RESULT:      -8.5      1.668      2.277
REMARK  Name = 
REMARK  5 active torsions:
REMARK  status: ('A' for Active; 'I' for Inactive)
REMARK    1  A    between atoms: C_1  and  N_2
REMARK    2  A    between atoms: C_1  and  C_24
REMARK    3  A    between atoms: C_6  and  C_7
REMARK    4  A    between atoms: C_9  and  C_12
REMARK    5  A    between atoms: C_15  and  C_18
REMARK                            x       y       z     vdW  Elec       q    Type
REMARK                         _______ _______ _______ _____ _____    ______ ____
ROOT
ATOM      7  C   UNL     1      -1.439   2.881  25.530  0.00  0.00    +0.251 A 
ATOM      8  N   UNL     1      -1.071   2.612  24.843  0.00  0.00    -0.190 NA
ATOM      9  C   UNL     1      -0.465   2.097  25.063  0.00  0.00    +0.205 A 
ATOM     10  N   UNL     1      -0.460   2.047  25.887  0.00  0.00    -0.056 NA
ATOM     11  O   UNL     1      -1.062   2.532  26.176  0.00  0.00    -0.336 OA
ENDROOT
BRANCH   9  12
ATOM     12  C   UNL     1       0.044   1.701  24.551  0.00  0.00    +0.058 A 
ATOM     13  C   UNL     1      -0.154   0.952  24.267  0.00  0.00    +0.006 A 
ATOM     14  C   UNL     1       0.356   0.556  23.754  0.00  0.00    +0.019 A 
ATOM     15  C   UNL     1       1.066   0.909  23.524  0.00  0.00    +0.084 A 
ATOM     16  N   UNL     1       1.264   1.658  23.807  0.00  0.00    -0.244 NA
ATOM     17  C   UNL     1       0.754   2.054  24.321  0.00  0.00    +0.102 A 
BRANCH  15  18
ATOM     18  C   UNL     1       1.576   0.513  23.011  0.00  0.00    +0.056 A 
ATOM     19  C   UNL     1       1.274  -0.022  22.459  0.00  0.00    +0.104 A 
ATOM     20  N   UNL     1       1.784  -0.418  21.946  0.00  0.00    -0.222 NA
ATOM     21  C   UNL     1       2.596  -0.279  21.985  0.00  0.00    +0.199 A 
ATOM     22  N   UNL     1       2.899   0.255  22.536  0.00  0.00    -0.222 NA
ATOM     23  C   UNL     1       2.388   0.651  23.049  0.00  0.00    +0.104 A 
ENDBRANCH  15  18
ENDBRANCH   9  12
BRANCH   7   6
ATOM      2  N   UNL     1      -2.858   3.235  25.376  0.00  0.00    -0.263 NA
ATOM      3  C   UNL     1      -3.305   3.919  25.491  0.00  0.00    +0.073 C 
ATOM      4  C   UNL     1      -2.797   4.514  25.752  0.00  0.00    +0.019 C 
ATOM      5  C   UNL     1      -2.037   4.197  25.798  0.00  0.00    +0.027 C 
ATOM      6  C   UNL     1      -2.074   3.407  25.566  0.00  0.00    +0.138 C 
BRANCH   2   1
ATOM      1  C   UNL     1      -3.145   2.506  25.117  0.00  0.00    +0.100 C 
BRANCH   1  24
ATOM     24  C   UNL     1      -3.955   2.400  24.998  0.00  0.00    -0.003 A 
ATOM     25  C   UNL     1      -4.281   2.514  24.249  0.00  0.00    +0.000 A 
ATOM     26  C   UNL     1      -5.090   2.408  24.130  0.00  0.00    +0.040 A 
ATOM     27  C   UNL     1      -5.575   2.188  24.761  0.00  0.00    +0.176 A 
ATOM     28  O   UNL     1      -6.384   2.044  24.811  0.00  0.00    -0.435 OA
ATOM     29  C   UNL     1      -6.560   1.842  25.591  0.00  0.00    +0.429 C 
ATOM     30  O   UNL     1      -5.858   1.860  26.023  0.00  0.00    -0.435 OA
ATOM     31  C   UNL     1      -5.249   2.074  25.510  0.00  0.00    +0.176 A 
ATOM     32  C   UNL     1      -4.439   2.180  25.629  0.00  0.00    +0.037 A 
ENDBRANCH   1  24
ENDBRANCH   2   1
ENDBRANCH   7   6
TORSDOF 5
ENDMDL
MODEL 5
REMARK VINA RESULT:      -8.4      2.476      3.839
REMARK  Name = 
REMARK  5 active torsions:
REMARK  status: ('A' for Active; 'I' for Inactive)
REMARK    1  A    between atoms: C_1  and  N_2
REMARK    2  A    between atoms: C_1  and  C_24
REMARK    3  A    between atoms: C_6  and  C_7
REMARK    4  A    between atoms: C_9  and  C_12
REMARK    5  A    between atoms: C_15  and  C_18
REMARK                            x       y       z     vdW  Elec       q    Type
REMARK                         _______ _______ _______ _____ _____    ______ ____
ROOT
ATOM      7  C   UNL     1      -0.805   2.548  25.174  0.00  0.00    +0.251 A 
ATOM      8  N   UNL     1      -1.337   1.943  24.999  0.00  0.00    -0.190 NA
ATOM      9  C   UNL     1      -0.963   1.223  25.150  0.00  0.00    +0.205 A 
ATOM     10  N   UNL     1      -0.199   1.384  25.418  0.00  0.00    -0.056 NA
ATOM     11  O   UNL     1      -0.102   2.203  25.433  0.00  0.00    -0.336 OA
ENDROOT
BRANCH   9  12
ATOM     12  C   UNL     1      -1.294   0.474  25.050  0.00  0.00    +0.058 A 
ATOM     13  C   UNL     1      -1.310  -0.058  25.680  0.00  0.00    +0.006 A 
ATOM     14  C   UNL     1      -1.642  -0.807  25.580  0.00  0.00    +0.019 A 
ATOM     15  C   UNL     1      -1.957  -1.024  24.849  0.00  0.00    +0.084 A 
ATOM     16  N   UNL     1      -1.941  -0.492  24.219  0.00  0.00    -0.244 NA
ATOM     17  C   UNL     1      -1.610   0.257  24.319  0.00  0.00    +0.102 A 
BRANCH  15  18
ATOM     18  C   UNL     1      -2.288  -1.772  24.749  0.00  0.00    +0.056 A 
ATOM     19  C   UNL     1      -3.066  -1.915  24.985  0.00  0.00    +0.104 A 
ATOM     20  N   UNL     1      -3.398  -2.663  24.885  0.00  0.00    -0.222 NA
ATOM     21  C   UNL     1      -2.951  -3.270  24.549  0.00  0.00    +0.199 A 
ATOM     22  N   UNL     1      -2.173  -3.129  24.314  0.00  0.00    -0.222 NA
ATOM     23  C   UNL     1      -1.842  -2.379  24.414  0.00  0.00    +0.104 A 
ENDBRANCH  15  18
ENDBRANCH   9  12
BRANCH   7   6
ATOM      2  N   UNL     1      -1.540   3.780  25.495  0.00  0.00    -0.263 NA
ATOM      3  C   UNL     1      -1.486   4.570  25.262  0.00  0.00    +0.073 C 
ATOM      4  C   UNL     1      -0.863   4.635  24.726  0.00  0.00    +0.019 C 
ATOM      5  C   UNL     1      -0.532   3.885  24.627  0.00  0.00    +0.027 C 
ATOM      6  C   UNL     1      -0.951   3.358  25.103  0.00  0.00    +0.138 C 
BRANCH   2   1
ATOM      1  C   UNL     1      -2.088   3.469  26.027  0.00  0.00    +0.100 C 
BRANCH   1  24
ATOM     24  C   UNL     1      -2.879   3.705  25.992  0.00  0.00    -0.003 A 
ATOM     25  C   UNL     1      -3.126   4.379  26.397  0.00  0.00    +0.000 A 
ATOM     26  C   UNL     1      -3.916   4.614  26.361  0.00  0.00    +0.040 A 
ATOM     27  C   UNL     1      -4.458   4.176  25.921  0.00  0.00    +0.176 A 
ATOM     28  O   UNL     1      -5.265   4.272  25.784  0.00  0.00    -0.435 OA
ATOM     29  C   UNL     1      -5.517   3.657  25.295  0.00  0.00    +0.429 C 
ATOM     30  O   UNL     1      -4.864   3.181  25.129  0.00  0.00    -0.435 OA
ATOM     31  C   UNL     1      -4.210   3.501  25.516  0.00  0.00    +0.176 A 
ATOM     32  C   UNL     1      -3.420   3.265  25.551  0.00  0.00    +0.037 A 
ENDBRANCH   1  24
ENDBRANCH   2   1
ENDBRANCH   7   6
TORSDOF 5
ENDMDL
MODEL 6
REMARK VINA RESULT:      -8.2      2.165      5.868
REMARK  Name = 
REMARK  5 active torsions:
REMARK  status: ('A' for Active; 'I' for Inactive)
REMARK    1  A    between atoms: C_1  and  N_2
REMARK    2  A    between atoms: C_1  and  C_24
REMARK    3  A    between atoms: C_6  and  C_7
REMARK    4  A    between atoms: C_9  and  C_12
REMARK    5  A    between atoms: C_15  and  C_18
REMARK                            x       y       z     vdW  Elec       q    Type
REMARK                         _______ _______ _______ _____ _____    ______ ____
ROOT
ATOM      7  C   UNL     1      -0.669   1.292  24.406  0.00  0.00    +0.251 A 
ATOM      8  N   UNL     1      -1.482   1.433  24.413  0.00  0.00    -0.190 NA
ATOM      9  C   UNL     1      -1.614   2.142  24.815  0.00  0.00    +0.205 A 
ATOM     10  N   UNL     1      -0.883   2.439  25.056  0.00  0.00    -0.056 NA
ATOM     11  O   UNL     1      -0.299   1.914  24.803  0.00  0.00    -0.336 OA
ENDROOT
BRANCH   9  12
ATOM     12  C   UNL     1      -2.348   2.491  24.951  0.00  0.00    +0.058 A 
ATOM     13  C   UNL     1      -2.980   2.337  24.443  0.00  0.00    +0.006 A 
ATOM     14  C   UNL     1      -3.715   2.687  24.580  0.00  0.00    +0.019 A 
ATOM     15  C   UNL     1      -3.818   3.191  25.225  0.00  0.00    +0.084 A 
ATOM     16  N   UNL     1      -3.186   3.346  25.732  0.00  0.00    -0.244 NA
ATOM     17  C   UNL     1      -2.451   2.996  25.596  0.00  0.00    +0.102 A 
BRANCH  15  18
ATOM     18  C   UNL     1      -4.552   3.541  25.361  0.00  0.00    +0.056 A 
ATOM     19  C   UNL     1      -4.674   4.334  25.170  0.00  0.00    +0.104 A 
ATOM     20  N   UNL     1      -5.408   4.684  25.307  0.00  0.00    -0.222 NA
ATOM     21  C   UNL     1      -6.021   4.240  25.635  0.00  0.00    +0.199 A 
ATOM     22  N   UNL     1      -5.901   3.447  25.826  0.00  0.00    -0.222 NA
ATOM     23  C   UNL     1      -5.165   3.097  25.689  0.00  0.00    +0.104 A 
ENDBRANCH  15  18
ENDBRANCH   9  12
BRANCH   7   6
ATOM      2  N   UNL     1      -0.375  -0.144  24.293  0.00  0.00    -0.263 NA
ATOM      3  C   UNL     1       0.100  -0.605  23.800  0.00  0.00    +0.073 C 
ATOM      4  C   UNL     1       0.476  -0.103  23.265  0.00  0.00    +0.019 C 
ATOM      5  C   UNL     1       0.234   0.669  23.427  0.00  0.00    +0.027 C 
ATOM      6  C   UNL     1      -0.292   0.644  24.062  0.00  0.00    +0.138 C 
BRANCH   2   1
ATOM      1  C   UNL     1      -0.849  -0.421  24.908  0.00  0.00    +0.100 C 
BRANCH   1  24
ATOM     24  C   UNL     1      -1.275  -1.123  24.817  0.00  0.00    -0.003 A 
ATOM     25  C   UNL     1      -0.900  -1.850  24.924  0.00  0.00    +0.000 A 
ATOM     26  C   UNL     1      -1.326  -2.550  24.833  0.00  0.00    +0.040 A 
ATOM     27  C   UNL     1      -2.126  -2.525  24.635  0.00  0.00    +0.176 A 
ATOM     28  O   UNL     1      -2.684  -3.119  24.509  0.00  0.00    -0.435 OA
ATOM     29  C   UNL     1      -3.403  -2.760  24.324  0.00  0.00    +0.429 C 
ATOM     30  O   UNL     1      -3.290  -1.943  24.336  0.00  0.00    -0.435 OA
ATOM     31  C   UNL     1      -2.501  -1.798  24.528  0.00  0.00    +0.176 A 
ATOM     32  C   UNL     1      -2.075  -1.096  24.619  0.00  0.00    +0.037 A 
ENDBRANCH   1  24
ENDBRANCH   2   1
ENDBRANCH   7   6
TORSDOF 5
ENDMDL
