MODEL 1
REMARK VINA RESULT:      -9.6      0.000      0.000
REMARK  Name = 
REMARK  8 active torsions:
REMARK  status: ('A' for Active; 'I' for Inactive)
REMARK    1  A    between atoms: O_2  and  C_3
REMARK    2  A    between atoms: C_3  and  C_4
REMARK    3  A    between atoms: N_8  and  C_9
REMARK    4  A    between atoms: C_9  and  C_10
REMARK    5  A    between atoms: C_17  and  C_18
REMARK    6  A    between atoms: C_18  and  N_19
REMARK    7  A    between atoms: C_20  and  C_22
REMARK    8  A    between atoms: C_25  and  N_28
REMARK                            x       y       z     vdW  Elec       q    Type
REMARK                         _______ _______ _______ _____ _____    ______ ____
ROOT
ATOM     10  C   UNL     1      -3.204   3.180  25.404  0.00  0.00    +0.032 C 
ATOM     11  C   UNL     1      -2.953   2.533  25.053  0.00  0.00    +0.073 C 
ATOM     12  N   UNL     1      -3.738   2.720  25.228  0.00  0.00    -0.272 NA
ATOM     13  C   UNL     1      -3.735   3.657  25.698  0.00  0.00    +0.072 C 
ATOM     14  C   UNL     1      -4.055   4.152  25.980  0.00  0.00    +0.017 C 
ATOM     15  C   UNL     1      -3.976   3.357  25.573  0.00  0.00    +0.005 C 
ATOM     16  C   UNL     1      -4.724   2.920  25.430  0.00  0.00    +0.018 C 
ATOM     17  C   UNL     1      -4.520   2.271  25.083  0.00  0.00    +0.079 C 
ENDROOT
BRANCH  10   9
ATOM      9  C   UNL     1      -2.633   3.736  25.624  0.00  0.00    +0.073 C 
BRANCH   9   8
ATOM      4  C   UNL     1      -1.212   3.993  25.354  0.00  0.00    +0.087 C 
ATOM      5  C   UNL     1      -0.511   3.569  25.464  0.00  0.00    +0.020 C 
ATOM      6  C   UNL     1      -0.703   2.844  25.805  0.00  0.00    +0.019 C 
ATOM      7  C   UNL     1      -1.521   2.817  25.907  0.00  0.00    +0.072 C 
ATOM      8  N   UNL     1      -1.835   3.527  25.628  0.00  0.00    -0.272 NA
BRANCH   4   3
ATOM      3  C   UNL     1      -1.276   4.747  25.028  0.00  0.00    +0.158 C 
BRANCH   3   2
ATOM      1  C   UNL     1      -0.662   5.929  24.513  0.00  0.00    +0.174 C 
ATOM      2  O   UNL     1      -0.597   5.182  24.856  0.00  0.00    -0.350 OA
ENDBRANCH   3   2
ENDBRANCH   4   3
ENDBRANCH   9   8
ENDBRANCH  10   9
BRANCH  17  18
ATOM     18  C   UNL     1      -4.826   1.575  24.765  0.00  0.00    +0.131 C 
BRANCH  18  19
ATOM     19  N   UNL     1      -4.373   0.886  24.767  0.00  0.00    -0.200 NA
ATOM     20  C   UNL     1      -4.727   0.159  24.604  0.00  0.00    +0.265 C 
ATOM     21  O   UNL     1      -5.535   0.122  24.439  0.00  0.00    -0.268 OA
BRANCH  20  22
ATOM     22  C   UNL     1      -4.274  -0.530  24.606  0.00  0.00    +0.055 A 
ATOM     23  C   UNL     1      -3.945  -0.806  25.310  0.00  0.00    +0.006 A 
ATOM     24  C   UNL     1      -3.492  -1.495  25.312  0.00  0.00    +0.015 A 
ATOM     25  C   UNL     1      -3.368  -1.909  24.610  0.00  0.00    +0.048 A 
ATOM     26  C   UNL     1      -3.697  -1.633  23.905  0.00  0.00    +0.015 A 
ATOM     27  C   UNL     1      -4.149  -0.945  23.903  0.00  0.00    +0.006 A 
BRANCH  25  28
ATOM     28  N   UNL     1      -2.915  -2.599  24.611  0.00  0.00    -0.304 N 
ATOM     29  C   UNL     1      -3.285  -3.334  24.662  0.00  0.00    +0.112 C 
ATOM     30  C   UNL     1      -2.093  -2.553  24.560  0.00  0.00    +0.112 C 
ENDBRANCH  25  28
ENDBRANCH  20  22
ENDBRANCH  18  19
ENDBRANCH  17  18
TORSDOF 8
ENDMDL
MODEL 2
REMARK VINA RESULT:      -8.9      4.482      5.912
REMARK  Name = 
REMARK  8 active torsions:
REMARK  status: ('A' for Active; 'I' for Inactive)
REMARK    1  A    between atoms: O_2  and  C_3
REMARK    2  A    between atoms: C_3  and  C_4
REMARK    3  A    between atoms: N_8  and  C_9
REMARK    4  A    between atoms: C_9  and  C_10
REMARK    5  A    between atoms: C_17  and  C_18
REMARK    6  A    between atoms: C_18  and  N_19
REMARK    7  A    between atoms: C_20  and  C_22
REMARK    8  A    between atoms: C_25  and  N_28
REMARK                            x       y       z     vdW  Elec       q    Type
REMARK                         _______ _______ _______ _____ _____    ______ ____
ROOT
ATOM     10  C   UNL     1      -0.732   0.980  24.485  0.00  0.00    +0.032 C 
ATOM     11  C   UNL     1      -0.319   1.477  24.052  0.00  0.00    +0.073 C 
ATOM     12  N   UNL     1      -0.261   0.654  24.038  0.00  0.00    -0.272 NA
ATOM     13  C   UNL     1      -0.950   0.282  24.736  0.00  0.00    +0.072 C 
ATOM     14  C   UNL     1      -1.233  -0.220  25.042  0.00  0.00    +0.017 C 
ATOM     15  C   UNL     1      -0.670   0.173  24.465  0.00  0.00    +0.005 C 
ATOM     16  C   UNL     1      -0.163  -0.366  23.993  0.00  0.00    +0.018 C 
ATOM     17  C   UNL     1       0.262   0.087  23.550  0.00  0.00    +0.079 C 
ENDROOT
BRANCH  10   9
ATOM      9  C   UNL     1      -1.282   1.302  25.011  0.00  0.00    +0.073 C 
BRANCH   9   8
ATOM      4  C   UNL     1      -1.875   2.626  25.246  0.00  0.00    +0.087 C 
ATOM      5  C   UNL     1      -1.582   3.365  25.470  0.00  0.00    +0.020 C 
ATOM      6  C   UNL     1      -0.767   3.296  25.574  0.00  0.00    +0.019 C 
ATOM      7  C   UNL     1      -0.555   2.515  25.415  0.00  0.00    +0.072 C 
ATOM      8  N   UNL     1      -1.240   2.101  25.213  0.00  0.00    -0.272 NA
BRANCH   4   3
ATOM      3  C   UNL     1      -2.663   2.446  25.085  0.00  0.00    +0.158 C 
BRANCH   3   2
ATOM      1  C   UNL     1      -4.025   2.855  24.958  0.00  0.00    +0.174 C 
ATOM      2  O   UNL     1      -3.241   3.032  25.141  0.00  0.00    -0.350 OA
ENDBRANCH   3   2
ENDBRANCH   4   3
ENDBRANCH   9   8
ENDBRANCH  10   9
BRANCH  17  18
ATOM     18  C   UNL     1       0.849   0.073  22.971  0.00  0.00    +0.131 C 
BRANCH  18  19
ATOM     19  N   UNL     1       1.644   0.101  23.189  0.00  0.00    -0.200 NA
ATOM     20  C   UNL     1       2.231   0.043  22.612  0.00  0.00    +0.265 C 
ATOM     21  O   UNL     1       2.024  -0.043  21.818  0.00  0.00    -0.268 OA
BRANCH  20  22
ATOM     22  C   UNL     1       3.027   0.070  22.830  0.00  0.00    +0.055 A 
ATOM     23  C   UNL     1       3.386  -0.592  23.166  0.00  0.00    +0.006 A 
ATOM     24  C   UNL     1       4.181  -0.565  23.383  0.00  0.00    +0.015 A 
ATOM     25  C   UNL     1       4.617   0.125  23.265  0.00  0.00    +0.048 A 
ATOM     26  C   UNL     1       4.258   0.788  22.928  0.00  0.00    +0.015 A 
ATOM     27  C   UNL     1       3.464   0.760  22.711  0.00  0.00    +0.006 A 
BRANCH  25  28
ATOM     28  N   UNL     1       5.413   0.154  23.482  0.00  0.00    -0.304 N 
ATOM     29  C   UNL     1       5.985  -0.189  22.996  0.00  0.00    +0.112 C 
ATOM     30  C   UNL     1       5.636   0.524  24.184  0.00  0.00    +0.112 C 
ENDBRANCH  25  28
ENDBRANCH  20  22
ENDBRANCH  18  19
ENDBRANCH  17  18
TORSDOF 8
ENDMDL
MODEL 3
REMARK VINA RESULT:      -8.9      2.519      4.480
REMARK  Name = 
REMARK  8 active torsions:
REMARK  status: ('A' for Active; 'I' for Inactive)
REMARK    1  A    between atoms: O_2  and  C_3
REMARK    2  A    between atoms: C_3  and  C_4
REMARK    3  A    between atoms: N_8  and  C_9
REMARK    4  A    between atoms: C_9  and  C_10
REMARK    5  A    between atoms: C_17  and  C_18
REMARK    6  A    between atoms: C_18  and  N_19
REMARK    7  A    between atoms: C_20  and  C_22
REMARK    8  A    between atoms: C_25  and  N_28
REMARK                            x       y       z     vdW  Elec       q    Type
REMARK                         _______ _______ _______ _____ _____    ______ ____
ROOT
ATOM     10  C   UNL     1      -0.314   1.901  24.479  0.00  0.00    +0.032 C 
ATOM     11  C   UNL     1      -0.931   1.811  24.013  0.00  0.00    +0.073 C 
ATOM     12  N   UNL     1      -0.824   2.411  24.570  0.00  0.00    -0.272 NA
ATOM     13  C   UNL     1       0.104   2.246  25.028  0.00  0.00    +0.072 C 
ATOM     14  C   UNL     1       0.563   2.418  25.461  0.00  0.00    +0.017 C 
ATOM     15  C   UNL     1      -0.217   2.492  25.023  0.00  0.00    +0.005 C 
ATOM     16  C   UNL     1      -0.725   3.170  25.252  0.00  0.00    +0.018 C 
ATOM     17  C   UNL     1      -1.347   3.118  24.813  0.00  0.00    +0.079 C 
ENDROOT
BRANCH  10   9
ATOM      9  C   UNL     1       0.293   1.345  24.413  0.00  0.00    +0.073 C 
BRANCH   9   8
ATOM      4  C   UNL     1       0.594   0.183  23.565  0.00  0.00    +0.087 C 
ATOM      5  C   UNL     1       0.230  -0.544  23.420  0.00  0.00    +0.020 C 
ATOM      6  C   UNL     1      -0.455  -0.581  23.877  0.00  0.00    +0.019 C 
ATOM      7  C   UNL     1      -0.516   0.121  24.305  0.00  0.00    +0.072 C 
ATOM      8  N   UNL     1       0.133   0.593  24.112  0.00  0.00    -0.272 NA
BRANCH   4   3
ATOM      3  C   UNL     1       1.295   0.450  23.224  0.00  0.00    +0.158 C 
BRANCH   3   2
ATOM      1  C   UNL     1       2.489   0.187  22.484  0.00  0.00    +0.174 C 
ATOM      2  O   UNL     1       1.763  -0.066  22.781  0.00  0.00    -0.350 OA
ENDBRANCH   3   2
ENDBRANCH   4   3
ENDBRANCH   9   8
ENDBRANCH  10   9
BRANCH  17  18
ATOM     18  C   UNL     1      -2.067   3.486  24.653  0.00  0.00    +0.131 C 
BRANCH  18  19
ATOM     19  N   UNL     1      -2.775   3.113  24.855  0.00  0.00    -0.200 NA
ATOM     20  C   UNL     1      -3.495   3.479  24.688  0.00  0.00    +0.265 C 
ATOM     21  O   UNL     1      -3.508   4.217  24.321  0.00  0.00    -0.268 OA
BRANCH  20  22
ATOM     22  C   UNL     1      -4.203   3.106  24.890  0.00  0.00    +0.055 A 
ATOM     23  C   UNL     1      -4.456   2.444  24.468  0.00  0.00    +0.006 A 
ATOM     24  C   UNL     1      -5.164   2.072  24.670  0.00  0.00    +0.015 A 
ATOM     25  C   UNL     1      -5.619   2.361  25.294  0.00  0.00    +0.048 A 
ATOM     26  C   UNL     1      -5.366   3.023  25.716  0.00  0.00    +0.015 A 
ATOM     27  C   UNL     1      -4.659   3.396  25.515  0.00  0.00    +0.006 A 
BRANCH  25  28
ATOM     28  N   UNL     1      -6.327   1.989  25.497  0.00  0.00    -0.304 N 
ATOM     29  C   UNL     1      -6.825   1.702  24.905  0.00  0.00    +0.112 C 
ATOM     30  C   UNL     1      -6.536   1.904  26.290  0.00  0.00    +0.112 C 
ENDBRANCH  25  28
ENDBRANCH  20  22
ENDBRANCH  18  19
ENDBRANCH  17  18
TORSDOF 8
ENDMDL
MODEL 4
REMARK VINA RESULT:      -8.8      1.822      6.133
REMARK  Name = 
REMARK  8 active torsions:
REMARK  status: ('A' for Active; 'I' for Inactive)
REMARK    1  A    between atoms: O_2  and  C_3
REMARK    2  A    between atoms: C_3  and  C_4
REMARK    3  A    between atoms: N_8  and  C_9
REMARK    4  A    between atoms: C_9  and  C_10
REMARK    5  A    between atoms: C_17  and  C_18
REMARK    6  A    between atoms: C_18  and  N_19
REMARK    7  A    between atoms: C_20  and  C_22
REMARK    8  A    between atoms: C_25  and  N_28
REMARK                            x       y       z     vdW  Elec       q    Type
REMARK                         _______ _______ _______ _____ _____    ______ ____
ROOT
ATOM     10  C   UNL     1      -1.711  -0.976  24.701  0.00  0.00    +0.032 C 
ATOM     11  C   UNL     1      -1.895  -0.235  24.549  0.00  0.00    +0.073 C 
ATOM     12  N   UNL     1      -1.133  -0.551  24.589  0.00  0.00    -0.272 NA
ATOM     13  C   UNL     1      -1.231  -1.570  24.811  0.00  0.00    +0.072 C 
ATOM     14  C   UNL     1      -0.963  -2.155  24.927  0.00  0.00    +0.017 C 
ATOM     15  C   UNL     1      -0.961  -1.278  24.738  0.00  0.00    +0.005 C 
ATOM     16  C   UNL     1      -0.172  -0.908  24.630  0.00  0.00    +0.018 C 
ATOM     17  C   UNL     1      -0.310  -0.173  24.478  0.00  0.00    +0.079 C 
ENDROOT
BRANCH  10   9
ATOM      9  C   UNL     1      -2.336  -1.500  24.836  0.00  0.00    +0.073 C 
BRANCH   9   8
ATOM      4  C   UNL     1      -3.781  -1.567  24.580  0.00  0.00    +0.087 C 
ATOM      5  C   UNL     1      -4.431  -1.096  24.775  0.00  0.00    +0.020 C 
ATOM      6  C   UNL     1      -4.157  -0.454  25.215  0.00  0.00    +0.019 C 
ATOM      7  C   UNL     1      -3.340  -0.527  25.291  0.00  0.00    +0.072 C 
ATOM      8  N   UNL     1      -3.107  -1.215  24.899  0.00  0.00    -0.272 NA
BRANCH   4   3
ATOM      3  C   UNL     1      -3.803  -2.265  24.142  0.00  0.00    +0.158 C 
BRANCH   3   2
ATOM      1  C   UNL     1      -4.527  -3.204  23.345  0.00  0.00    +0.174 C 
ATOM      2  O   UNL     1      -4.498  -2.491  23.759  0.00  0.00    -0.350 OA
ENDBRANCH   3   2
ENDBRANCH   4   3
ENDBRANCH   9   8
ENDBRANCH  10   9
BRANCH  17  18
ATOM     18  C   UNL     1       0.066   0.542  24.310  0.00  0.00    +0.131 C 
BRANCH  18  19
ATOM     19  N   UNL     1      -0.308   1.256  24.485  0.00  0.00    -0.200 NA
ATOM     20  C   UNL     1       0.118   1.961  24.460  0.00  0.00    +0.265 C 
ATOM     21  O   UNL     1       0.919   1.953  24.261  0.00  0.00    -0.268 OA
BRANCH  20  22
ATOM     22  C   UNL     1      -0.256   2.675  24.635  0.00  0.00    +0.055 A 
ATOM     23  C   UNL     1      -0.357   2.907  25.421  0.00  0.00    +0.006 A 
ATOM     24  C   UNL     1      -0.732   3.621  25.596  0.00  0.00    +0.015 A 
ATOM     25  C   UNL     1      -1.005   4.104  24.985  0.00  0.00    +0.048 A 
ATOM     26  C   UNL     1      -0.904   3.872  24.199  0.00  0.00    +0.015 A 
ATOM     27  C   UNL     1      -0.530   3.159  24.025  0.00  0.00    +0.006 A 
BRANCH  25  28
ATOM     28  N   UNL     1      -1.379   4.818  25.159  0.00  0.00    -0.304 N 
ATOM     29  C   UNL     1      -1.022   5.532  24.949  0.00  0.00    +0.112 C 
ATOM     30  C   UNL     1      -2.110   4.819  25.541  0.00  0.00    +0.112 C 
ENDBRANCH  25  28
ENDBRANCH  20  22
ENDBRANCH  18  19
ENDBRANCH  17  18
TORSDOF 8
ENDMDL
MODEL 5
REMARK VINA RESULT:      -8.7      3.237      4.654
REMARK  Name = 
REMARK  8 active torsions:
REMARK  status: ('A' for Active; 'I' for Inactive)
REMARK    1  A    between atoms: O_2  and  C_3
REMARK    2  A    between atoms: C_3  and  C_4
REMARK    3  A    between atoms: N_8  and  C_9
REMARK    4  A    between atoms: C_9  and  C_10
REMARK    5  A    between atoms: C_17  and  C_18
REMARK    6  A    between atoms: C_18  and  N_19
REMARK    7  A    between atoms: C_20  and  C_22
REMARK    8  A    between atoms: C_25  and  N_28
REMARK                            x       y       z     vdW  Elec       q    Type
REMARK                         _______ _______ _______ _____ _____    ______ ____
ROOT
ATOM     10  C   UNL     1      -3.551   1.946  24.219  0.00  0.00    +0.032 C 
ATOM     11  C   UNL     1      -3.401   1.422  24.775  0.00  0.00    +0.073 C 
ATOM     12  N   UNL     1      -2.916   1.602  24.131  0.00  0.00    -0.272 NA
ATOM     13  C   UNL     1      -3.403   2.345  23.575  0.00  0.00    +0.072 C 
ATOM     14  C   UNL     1      -3.422   2.750  23.063  0.00  0.00    +0.017 C 
ATOM     15  C   UNL     1      -3.070   2.116  23.590  0.00  0.00    +0.005 C 
ATOM     16  C   UNL     1      -2.289   1.799  23.344  0.00  0.00    +0.018 C 
ATOM     17  C   UNL     1      -2.105   1.277  23.869  0.00  0.00    +0.079 C 
ENDROOT
BRANCH  10   9
ATOM      9  C   UNL     1      -4.261   2.364  24.274  0.00  0.00    +0.073 C 
BRANCH   9   8
ATOM      4  C   UNL     1      -5.284   2.618  25.299  0.00  0.00    +0.087 C 
ATOM      5  C   UNL     1      -5.795   2.146  25.743  0.00  0.00    +0.020 C 
ATOM      6  C   UNL     1      -5.667   1.361  25.529  0.00  0.00    +0.019 C 
ATOM      7  C   UNL     1      -5.077   1.345  24.953  0.00  0.00    +0.072 C 
ATOM      8  N   UNL     1      -4.840   2.123  24.811  0.00  0.00    -0.272 NA
BRANCH   4   3
ATOM      3  C   UNL     1      -5.227   3.440  25.337  0.00  0.00    +0.158 C 
BRANCH   3   2
ATOM      1  C   UNL     1      -5.817   4.703  25.648  0.00  0.00    +0.174 C 
ATOM      2  O   UNL     1      -5.829   3.880  25.690  0.00  0.00    -0.350 OA
ENDBRANCH   3   2
ENDBRANCH   4   3
ENDBRANCH   9   8
ENDBRANCH  10   9
BRANCH  17  18
ATOM     18  C   UNL     1      -1.518   0.737  24.077  0.00  0.00    +0.131 C 
BRANCH  18  19
ATOM     19  N   UNL     1      -0.779   0.769  23.712  0.00  0.00    -0.200 NA
ATOM     20  C   UNL     1      -0.191   0.231  23.924  0.00  0.00    +0.265 C 
ATOM     21  O   UNL     1      -0.341  -0.340  24.500  0.00  0.00    -0.268 OA
BRANCH  20  22
ATOM     22  C   UNL     1       0.549   0.264  23.559  0.00  0.00    +0.055 A 
ATOM     23  C   UNL     1       0.754  -0.300  22.992  0.00  0.00    +0.006 A 
ATOM     24  C   UNL     1       1.494  -0.267  22.627  0.00  0.00    +0.015 A 
ATOM     25  C   UNL     1       2.027   0.329  22.829  0.00  0.00    +0.048 A 
ATOM     26  C   UNL     1       1.821   0.893  23.395  0.00  0.00    +0.015 A 
ATOM     27  C   UNL     1       1.083   0.860  23.760  0.00  0.00    +0.006 A 
BRANCH  25  28
ATOM     28  N   UNL     1       2.766   0.362  22.464  0.00  0.00    -0.304 N 
ATOM     29  C   UNL     1       2.880   0.005  21.729  0.00  0.00    +0.112 C 
ATOM     30  C   UNL     1       3.392   0.753  22.834  0.00  0.00    +0.112 C 
ENDBRANCH  25  28
ENDBRANCH  20  22
ENDBRANCH  18  19
ENDBRANCH  17  18
TORSDOF 8
ENDMDL
MODEL 6
REMARK VINA RESULT:      -8.7      2.392      4.573
REMARK  Name = 
REMARK  8 active torsions:
REMARK  status: ('A' for Active; 'I' for Inactive)
REMARK    1  A    between atoms: O_2  and  C_3
REMARK    2  A    between atoms: C_3  and  C_4
REMARK    3  A    between atoms: N_8  and  C_9
REMARK    4  A    between atoms: C_9  and  C_10
REMARK    5  A    between atoms: C_17  and  C_18
REMARK    6  A    between atoms: C_18  and  N_19
REMARK    7  A    between atoms: C_20  and  C_22
REMARK    8  A    between atoms: C_25  and  N_28
REMARK                            x       y       z     vdW  Elec       q    Type
REMARK                         _______ _______ _______ _____ _____    ______ ____
ROOT
ATOM     10  C   UNL     1      -1.176  -0.475  24.472  0.00  0.00    +0.032 C 
ATOM     11  C   UNL     1      -1.613   0.124  24.234  0.00  0.00    +0.073 C 
ATOM     12  N   UNL     1      -1.889  -0.578  24.570  0.00  0.00    -0.272 NA
ATOM     13  C   UNL     1      -1.051  -1.173  24.777  0.00  0.00    +0.072 C 
ATOM     14  C   UNL     1      -0.790  -1.726  25.006  0.00  0.00    +0.017 C 
ATOM     15  C   UNL     1      -1.455  -1.160  24.801  0.00  0.00    +0.005 C 
ATOM     16  C   UNL     1      -2.267  -1.437  24.985  0.00  0.00    +0.018 C 
ATOM     17  C   UNL     1      -2.731  -0.872  24.765  0.00  0.00    +0.079 C 
ENDROOT
BRANCH  10   9
ATOM      9  C   UNL     1      -0.358  -0.406  24.380  0.00  0.00    +0.073 C 
BRANCH   9   8
ATOM      4  C   UNL     1       0.574   0.508  23.703  0.00  0.00    +0.087 C 
ATOM      5  C   UNL     1       0.745   1.313  23.760  0.00  0.00    +0.020 C 
ATOM      6  C   UNL     1       0.259   1.637  24.341  0.00  0.00    +0.019 C 
ATOM      7  C   UNL     1      -0.214   1.034  24.645  0.00  0.00    +0.072 C 
ATOM      8  N   UNL     1      -0.019   0.335  24.250  0.00  0.00    -0.272 NA
BRANCH   4   3
ATOM      3  C   UNL     1       0.932  -0.029  23.190  0.00  0.00    +0.158 C 
BRANCH   3   2
ATOM      1  C   UNL     1       1.895  -0.302  22.172  0.00  0.00    +0.174 C 
ATOM      2  O   UNL     1       1.604   0.190  22.766  0.00  0.00    -0.350 OA
ENDBRANCH   3   2
ENDBRANCH   4   3
ENDBRANCH   9   8
ENDBRANCH  10   9
BRANCH  17  18
ATOM     18  C   UNL     1      -3.525  -0.655  24.726  0.00  0.00    +0.131 C 
BRANCH  18  19
ATOM     19  N   UNL     1      -3.752   0.119  24.902  0.00  0.00    -0.200 NA
ATOM     20  C   UNL     1      -4.523   0.367  24.747  0.00  0.00    +0.265 C 
ATOM     21  O   UNL     1      -5.067  -0.157  24.417  0.00  0.00    -0.268 OA
BRANCH  20  22
ATOM     22  C   UNL     1      -4.749   1.141  24.922  0.00  0.00    +0.055 A 
ATOM     23  C   UNL     1      -4.434   1.771  24.492  0.00  0.00    +0.006 A 
ATOM     24  C   UNL     1      -4.661   2.545  24.667  0.00  0.00    +0.015 A 
ATOM     25  C   UNL     1      -5.202   2.688  25.273  0.00  0.00    +0.048 A 
ATOM     26  C   UNL     1      -5.516   2.059  25.704  0.00  0.00    +0.015 A 
ATOM     27  C   UNL     1      -5.290   1.286  25.528  0.00  0.00    +0.006 A 
BRANCH  25  28
ATOM     28  N   UNL     1      -5.429   3.462  25.450  0.00  0.00    -0.304 N 
ATOM     29  C   UNL     1      -4.888   4.079  25.365  0.00  0.00    +0.112 C 
ATOM     30  C   UNL     1      -6.196   3.618  25.710  0.00  0.00    +0.112 C 
ENDBRANCH  25  28
ENDBRANCH  20  22
ENDBRANCH  18  19
ENDBRANCH  17  18
TORSDOF 8
ENDMDL
MODEL 7
REMARK VINA RESULT:      -8.7      1.749      2.970
REMARK  Name = 
REMARK  8 active torsions:
REMARK  status: ('A' for Active; 'I' for Inactive)
REMARK    1  A    between atoms: O_2  and  C_3
REMARK    2  A    between atoms: C_3  and  C_4
REMARK    3  A    between atoms: N_8  and  C_9
REMARK    4  A    between atoms: C_9  and  C_10
REMARK    5  A    between atoms: C_17  and  C_18
REMARK    6  A    between atoms: C_18  and  N_19
REMARK    7  A    between atoms: C_20  and  C_22
REMARK    8  A    between atoms: C_25  and  N_28
REMARK                            x       y       z     vdW  Elec       q    Type
REMARK                         _______ _______ _______ _____ _____    ______ ____
ROOT
ATOM     10  C   UNL     1      -2.045   2.630  25.070  0.00  0.00    +0.032 C 
ATOM     11  C   UNL     1      -2.335   1.962  24.795  0.00  0.00    +0.073 C 
ATOM     12  N   UNL     1      -1.655   2.045  25.255  0.00  0.00    -0.272 NA
ATOM     13  C   UNL     1      -1.542   3.068  25.458  0.00  0.00    +0.072 C 
ATOM     14  C   UNL     1      -1.213   3.558  25.737  0.00  0.00    +0.017 C 
ATOM     15  C   UNL     1      -1.378   2.704  25.521  0.00  0.00    +0.005 C 
ATOM     16  C   UNL     1      -0.806   2.112  25.827  0.00  0.00    +0.018 C 
ATOM     17  C   UNL     1      -1.057   1.436  25.576  0.00  0.00    +0.079 C 
ENDROOT
BRANCH  10   9
ATOM      9  C   UNL     1      -2.454   3.323  24.885  0.00  0.00    +0.073 C 
BRANCH   9   8
ATOM      4  C   UNL     1      -3.825   3.532  24.396  0.00  0.00    +0.087 C 
ATOM      5  C   UNL     1      -4.204   3.441  23.669  0.00  0.00    +0.020 C 
ATOM      6  C   UNL     1      -3.649   3.169  23.123  0.00  0.00    +0.019 C 
ATOM      7  C   UNL     1      -2.926   3.092  23.512  0.00  0.00    +0.072 C 
ATOM      8  N   UNL     1      -3.035   3.316  24.298  0.00  0.00    -0.272 NA
BRANCH   4   3
ATOM      3  C   UNL     1      -4.173   3.793  25.096  0.00  0.00    +0.158 C 
BRANCH   3   2
ATOM      1  C   UNL     1      -5.365   3.911  25.875  0.00  0.00    +0.174 C 
ATOM      2  O   UNL     1      -4.992   3.885  25.140  0.00  0.00    -0.350 OA
ENDBRANCH   3   2
ENDBRANCH   4   3
ENDBRANCH   9   8
ENDBRANCH  10   9
BRANCH  17  18
ATOM     18  C   UNL     1      -0.886   0.629  25.589  0.00  0.00    +0.131 C 
BRANCH  18  19
ATOM     19  N   UNL     1      -1.448   0.084  25.327  0.00  0.00    -0.200 NA
ATOM     20  C   UNL     1      -1.327  -0.722  25.448  0.00  0.00    +0.265 C 
ATOM     21  O   UNL     1      -0.645  -0.985  25.832  0.00  0.00    -0.268 OA
BRANCH  20  22
ATOM     22  C   UNL     1      -1.888  -1.267  25.186  0.00  0.00    +0.055 A 
ATOM     23  C   UNL     1      -1.701  -1.793  24.579  0.00  0.00    +0.006 A 
ATOM     24  C   UNL     1      -2.262  -2.338  24.317  0.00  0.00    +0.015 A 
ATOM     25  C   UNL     1      -3.011  -2.357  24.662  0.00  0.00    +0.048 A 
ATOM     26  C   UNL     1      -3.198  -1.831  25.270  0.00  0.00    +0.015 A 
ATOM     27  C   UNL     1      -2.637  -1.287  25.532  0.00  0.00    +0.006 A 
BRANCH  25  28
ATOM     28  N   UNL     1      -3.573  -2.902  24.401  0.00  0.00    -0.304 N 
ATOM     29  C   UNL     1      -3.519  -3.692  24.633  0.00  0.00    +0.112 C 
ATOM     30  C   UNL     1      -4.188  -2.657  23.909  0.00  0.00    +0.112 C 
ENDBRANCH  25  28
ENDBRANCH  20  22
ENDBRANCH  18  19
ENDBRANCH  17  18
TORSDOF 8
ENDMDL
MODEL 8
REMARK VINA RESULT:      -8.6      4.310      6.170
REMARK  Name = 
REMARK  8 active torsions:
REMARK  status: ('A' for Active; 'I' for Inactive)
REMARK    1  A    between atoms: O_2  and  C_3
REMARK    2  A    between atoms: C_3  and  C_4
REMARK    3  A    between atoms: N_8  and  C_9
REMARK    4  A    between atoms: C_9  and  C_10
REMARK    5  A    between atoms: C_17  and  C_18
REMARK    6  A    between atoms: C_18  and  N_19
REMARK    7  A    between atoms: C_20  and  C_22
REMARK    8  A    between atoms: C_25  and  N_28
REMARK                            x       y       z     vdW  Elec       q    Type
REMARK                         _______ _______ _______ _____ _____    ______ ____
ROOT
ATOM     10  C   UNL     1      -1.311   0.398  24.527  0.00  0.00    +0.032 C 
ATOM     11  C   UNL     1      -1.249  -0.194  24.026  0.00  0.00    +0.073 C 
ATOM     12  N   UNL     1      -0.698   0.410  24.137  0.00  0.00    -0.272 NA
ATOM     13  C   UNL     1      -1.079   1.045  24.879  0.00  0.00    +0.072 C 
ATOM     14  C   UNL     1      -1.024   1.576  25.256  0.00  0.00    +0.017 C 
ATOM     15  C   UNL     1      -0.766   0.988  24.630  0.00  0.00    +0.005 C 
ATOM     16  C   UNL     1       0.009   1.146  24.249  0.00  0.00    +0.018 C 
ATOM     17  C   UNL     1       0.108   0.581  23.745  0.00  0.00    +0.079 C 
ENDROOT
BRANCH  10   9
ATOM      9  C   UNL     1      -1.992   0.429  24.994  0.00  0.00    +0.073 C 
BRANCH   9   8
ATOM      4  C   UNL     1      -3.344  -0.148  24.989  0.00  0.00    +0.087 C 
ATOM      5  C   UNL     1      -3.652  -0.914  24.989  0.00  0.00    +0.020 C 
ATOM      6  C   UNL     1      -3.019  -1.442  24.992  0.00  0.00    +0.019 C 
ATOM      7  C   UNL     1      -2.320  -1.005  24.994  0.00  0.00    +0.072 C 
ATOM      8  N   UNL     1      -2.521  -0.205  24.993  0.00  0.00    -0.272 NA
BRANCH   4   3
ATOM      3  C   UNL     1      -3.782   0.551  24.987  0.00  0.00    +0.158 C 
BRANCH   3   2
ATOM      1  C   UNL     1      -5.047   1.215  24.979  0.00  0.00    +0.174 C 
ATOM      2  O   UNL     1      -4.605   0.522  25.049  0.00  0.00    -0.350 OA
ENDBRANCH   3   2
ENDBRANCH   4   3
ENDBRANCH   9   8
ENDBRANCH  10   9
BRANCH  17  18
ATOM     18  C   UNL     1       0.635   0.294  23.179  0.00  0.00    +0.131 C 
BRANCH  18  19
ATOM     19  N   UNL     1       1.448   0.318  23.321  0.00  0.00    -0.200 NA
ATOM     20  C   UNL     1       1.976   0.090  22.731  0.00  0.00    +0.265 C 
ATOM     21  O   UNL     1       1.693  -0.163  21.998  0.00  0.00    -0.268 OA
BRANCH  20  22
ATOM     22  C   UNL     1       2.788   0.115  22.872  0.00  0.00    +0.055 A 
ATOM     23  C   UNL     1       3.218   0.797  22.697  0.00  0.00    +0.006 A 
ATOM     24  C   UNL     1       4.030   0.822  22.839  0.00  0.00    +0.015 A 
ATOM     25  C   UNL     1       4.413   0.164  23.156  0.00  0.00    +0.048 A 
ATOM     26  C   UNL     1       3.984  -0.519  23.332  0.00  0.00    +0.015 A 
ATOM     27  C   UNL     1       3.172  -0.543  23.190  0.00  0.00    +0.006 A 
BRANCH  25  28
ATOM     28  N   UNL     1       5.225   0.187  23.299  0.00  0.00    -0.304 N 
ATOM     29  C   UNL     1       5.743  -0.220  22.801  0.00  0.00    +0.112 C 
ATOM     30  C   UNL     1       5.521   0.617  23.938  0.00  0.00    +0.112 C 
ENDBRANCH  25  28
ENDBRANCH  20  22
ENDBRANCH  18  19
ENDBRANCH  17  18
TORSDOF 8
ENDMDL
MODEL 9
REMARK VINA RESULT:      -8.5      1.502      5.373
REMARK  Name = 
REMARK  8 active torsions:
REMARK  status: ('A' for Active; 'I' for Inactive)
REMARK    1  A    between atoms: O_2  and  C_3
REMARK    2  A    between atoms: C_3  and  C_4
REMARK    3  A    between atoms: N_8  and  C_9
REMARK    4  A    between atoms: C_9  and  C_10
REMARK    5  A    between atoms: C_17  and  C_18
REMARK    6  A    between atoms: C_18  and  N_19
REMARK    7  A    between atoms: C_20  and  C_22
REMARK    8  A    between atoms: C_25  and  N_28
REMARK                            x       y       z     vdW  Elec       q    Type
REMARK                         _______ _______ _______ _____ _____    ______ ____
ROOT
ATOM     10  C   UNL     1      -3.534  -0.374  24.954  0.00  0.00    +0.032 C 
ATOM     11  C   UNL     1      -3.134   0.196  25.301  0.00  0.00    +0.073 C 
ATOM     12  N   UNL     1      -3.894   0.256  24.986  0.00  0.00    -0.272 NA
ATOM     13  C   UNL     1      -4.143  -0.683  24.593  0.00  0.00    +0.072 C 
ATOM     14  C   UNL     1      -4.565  -1.078  24.289  0.00  0.00    +0.017 C 
ATOM     15  C   UNL     1      -4.280  -0.307  24.647  0.00  0.00    +0.005 C 
ATOM     16  C   UNL     1      -4.840   0.368  24.605  0.00  0.00    +0.018 C 
ATOM     17  C   UNL     1      -4.482   0.953  24.939  0.00  0.00    +0.079 C 
ENDROOT
BRANCH  10   9
ATOM      9  C   UNL     1      -3.166  -1.111  24.892  0.00  0.00    +0.073 C 
BRANCH   9   8
ATOM      4  C   UNL     1      -1.854  -1.773  24.856  0.00  0.00    +0.087 C 
ATOM      5  C   UNL     1      -1.133  -1.660  25.242  0.00  0.00    +0.020 C 
ATOM      6  C   UNL     1      -1.215  -1.019  25.753  0.00  0.00    +0.019 C 
ATOM      7  C   UNL     1      -1.986  -0.735  25.685  0.00  0.00    +0.072 C 
ATOM      8  N   UNL     1      -2.381  -1.201  25.131  0.00  0.00    -0.272 NA
BRANCH   4   3
ATOM      3  C   UNL     1      -2.019  -2.355  24.296  0.00  0.00    +0.158 C 
BRANCH   3   2
ATOM      1  C   UNL     1      -1.597  -3.471  23.510  0.00  0.00    +0.174 C 
ATOM      2  O   UNL     1      -1.430  -2.886  24.067  0.00  0.00    -0.350 OA
ENDBRANCH   3   2
ENDBRANCH   4   3
ENDBRANCH   9   8
ENDBRANCH  10   9
BRANCH  17  18
ATOM     18  C   UNL     1      -4.573   1.748  25.139  0.00  0.00    +0.131 C 
BRANCH  18  19
ATOM     19  N   UNL     1      -3.932   2.264  25.083  0.00  0.00    -0.200 NA
ATOM     20  C   UNL     1      -4.020   3.055  25.297  0.00  0.00    +0.265 C 
ATOM     21  O   UNL     1      -4.750   3.332  25.566  0.00  0.00    -0.268 OA
BRANCH  20  22
ATOM     22  C   UNL     1      -3.379   3.572  25.241  0.00  0.00    +0.055 A 
ATOM     23  C   UNL     1      -3.132   3.844  24.502  0.00  0.00    +0.006 A 
ATOM     24  C   UNL     1      -2.490   4.360  24.446  0.00  0.00    +0.015 A 
ATOM     25  C   UNL     1      -2.097   4.604  25.129  0.00  0.00    +0.048 A 
ATOM     26  C   UNL     1      -2.344   4.331  25.868  0.00  0.00    +0.015 A 
ATOM     27  C   UNL     1      -2.984   3.816  25.923  0.00  0.00    +0.006 A 
BRANCH  25  28
ATOM     28  N   UNL     1      -1.455   5.120  25.074  0.00  0.00    -0.304 N 
ATOM     29  C   UNL     1      -1.581   5.935  25.085  0.00  0.00    +0.112 C 
ATOM     30  C   UNL     1      -0.689   4.821  25.008  0.00  0.00    +0.112 C 
ENDBRANCH  25  28
ENDBRANCH  20  22
ENDBRANCH  18  19
ENDBRANCH  17  18
TORSDOF 8
ENDMDL
