MODEL 1
REMARK VINA RESULT:      -8.9      0.000      0.000
REMARK  Name = 
REMARK  9 active torsions:
REMARK  status: ('A' for Active; 'I' for Inactive)
REMARK    1  A    between atoms: C_2  and  C_3
REMARK    2  A    between atoms: C_3  and  O_4
REMARK    3  A    between atoms: O_4  and  C_5
REMARK    4  A    between atoms: N_11  and  C_12
REMARK    5  A    between atoms: C_16  and  O_20
REMARK    6  A    between atoms: O_20  and  C_21
REMARK    7  A    between atoms: N_23  and  C_24
REMARK    8  A    between atoms: C_27  and  O_28
REMARK    9  A    between atoms: O_28  and  C_29
REMARK                            x       y       z     vdW  Elec       q    Type
REMARK                         _______ _______ _______ _____ _____    ______ ____
ROOT
ATOM     12  C   UNL     1       0.861  -0.121  23.346  0.00  0.00    +0.154 C 
ATOM     13  C   UNL     1       0.446  -0.334  22.666  0.00  0.00    +0.166 C 
ATOM     14  O   UNL     1      -0.312  -0.568  22.893  0.00  0.00    -0.348 OA
ATOM     15  C   UNL     1      -0.365  -0.499  23.713  0.00  0.00    +0.186 C 
ATOM     16  C   UNL     1      -0.866  -0.601  24.361  0.00  0.00    +0.229 C 
ATOM     17  C   UNL     1      -0.451  -0.387  25.041  0.00  0.00    +0.188 C 
ATOM     18  O   UNL     1       0.307  -0.154  24.813  0.00  0.00    -0.348 OA
ATOM     19  C   UNL     1       0.360  -0.223  23.993  0.00  0.00    +0.168 C 
ENDROOT
BRANCH  12  11
ATOM      1  O   UNL     1       1.857  -0.346  22.050  0.00  0.00    -0.269 OA
ATOM      2  C   UNL     1       2.139   0.035  22.726  0.00  0.00    +0.286 C 
ATOM     11  N   UNL     1       1.641   0.148  23.373  0.00  0.00    -0.199 NA
BRANCH   2   3
ATOM      3  C   UNL     1       2.918   0.304  22.753  0.00  0.00    +0.291 C 
BRANCH   3   4
ATOM      4  O   UNL     1       3.542  -0.236  22.722  0.00  0.00    -0.466 OA
BRANCH   4   5
ATOM      5  C   UNL     1       4.249  -0.072  23.113  0.00  0.00    +0.139 A 
ATOM      6  C   UNL     1       4.617  -0.658  23.562  0.00  0.00    +0.037 A 
ATOM      7  C   UNL     1       5.325  -0.495  23.954  0.00  0.00    +0.003 A 
ATOM      8  C   UNL     1       5.665   0.255  23.896  0.00  0.00    +0.000 A 
ATOM      9  C   UNL     1       5.297   0.841  23.446  0.00  0.00    +0.003 A 
ATOM     10  C   UNL     1       4.589   0.677  23.055  0.00  0.00    +0.037 A 
ENDBRANCH   4   5
ENDBRANCH   3   4
ENDBRANCH   2   3
ENDBRANCH  12  11
BRANCH  16  20
ATOM     20  O   UNL     1      -1.646  -0.869  24.333  0.00  0.00    -0.432 OA
BRANCH  20  21
ATOM     21  C   UNL     1      -2.267  -0.351  24.494  0.00  0.00    +0.425 C 
ATOM     22  O   UNL     1      -2.144   0.300  24.986  0.00  0.00    -0.224 OA
ATOM     23  N   UNL     1      -3.011  -0.482  24.163  0.00  0.00    -0.142 NA
BRANCH  23  24
ATOM     24  C   UNL     1      -3.632   0.037  24.323  0.00  0.00    +0.077 A 
ATOM     25  C   UNL     1      -3.761   0.690  23.837  0.00  0.00    +0.020 A 
ATOM     26  C   UNL     1      -4.382   1.208  23.997  0.00  0.00    +0.039 A 
ATOM     27  C   UNL     1      -4.874   1.074  24.646  0.00  0.00    +0.145 A 
ATOM     35  C   UNL     1      -4.745   0.420  25.133  0.00  0.00    +0.039 A 
ATOM     36  C   UNL     1      -4.124  -0.098  24.972  0.00  0.00    +0.020 A 
BRANCH  27  28
ATOM     28  O   UNL     1      -5.495   1.591  24.807  0.00  0.00    -0.453 OA
BRANCH  28  29
ATOM     29  C   UNL     1      -5.340   2.328  25.146  0.00  0.00    +0.145 A 
ATOM     30  C   UNL     1      -4.970   2.917  24.703  0.00  0.00    +0.037 A 
ATOM     31  C   UNL     1      -4.816   3.653  25.042  0.00  0.00    +0.003 A 
ATOM     32  C   UNL     1      -5.031   3.799  25.825  0.00  0.00    +0.000 A 
ATOM     33  C   UNL     1      -5.401   3.210  26.268  0.00  0.00    +0.003 A 
ATOM     34  C   UNL     1      -5.555   2.475  25.929  0.00  0.00    +0.037 A 
ENDBRANCH  28  29
ENDBRANCH  27  28
ENDBRANCH  23  24
ENDBRANCH  20  21
ENDBRANCH  16  20
TORSDOF 9
ENDMDL
MODEL 2
REMARK VINA RESULT:      -8.0      0.822      7.805
REMARK  Name = 
REMARK  9 active torsions:
REMARK  status: ('A' for Active; 'I' for Inactive)
REMARK    1  A    between atoms: C_2  and  C_3
REMARK    2  A    between atoms: C_3  and  O_4
REMARK    3  A    between atoms: O_4  and  C_5
REMARK    4  A    between atoms: N_11  and  C_12
REMARK    5  A    between atoms: C_16  and  O_20
REMARK    6  A    between atoms: O_20  and  C_21
REMARK    7  A    between atoms: N_23  and  C_24
REMARK    8  A    between atoms: C_27  and  O_28
REMARK    9  A    between atoms: O_28  and  C_29
REMARK                            x       y       z     vdW  Elec       q    Type
REMARK                         _______ _______ _______ _____ _____    ______ ____
ROOT
ATOM     12  C   UNL     1      -2.506   0.061  24.702  0.00  0.00    +0.154 C 
ATOM     13  C   UNL     1      -2.587  -0.751  24.584  0.00  0.00    +0.166 C 
ATOM     14  O   UNL     1      -1.906  -1.022  24.205  0.00  0.00    -0.348 OA
ATOM     15  C   UNL     1      -1.405  -0.378  24.089  0.00  0.00    +0.186 C 
ATOM     16  C   UNL     1      -0.674  -0.146  23.784  0.00  0.00    +0.229 C 
ATOM     17  C   UNL     1      -0.593   0.666  23.902  0.00  0.00    +0.188 C 
ATOM     18  O   UNL     1      -1.274   0.937  24.281  0.00  0.00    -0.348 OA
ATOM     19  C   UNL     1      -1.776   0.292  24.397  0.00  0.00    +0.168 C 
ENDROOT
BRANCH  12  11
ATOM      1  O   UNL     1      -4.085   0.022  24.223  0.00  0.00    -0.269 OA
ATOM      2  C   UNL     1      -3.849   0.537  24.824  0.00  0.00    +0.286 C 
ATOM     11  N   UNL     1      -3.059   0.556  25.063  0.00  0.00    -0.199 NA
BRANCH   2   3
ATOM      3  C   UNL     1      -4.402   1.031  25.184  0.00  0.00    +0.291 C 
BRANCH   3   4
ATOM      4  O   UNL     1      -4.798   1.602  24.739  0.00  0.00    -0.466 OA
BRANCH   4   5
ATOM      5  C   UNL     1      -5.067   2.293  25.099  0.00  0.00    +0.139 A 
ATOM      6  C   UNL     1      -4.647   2.997  25.004  0.00  0.00    +0.037 A 
ATOM      7  C   UNL     1      -4.916   3.689  25.365  0.00  0.00    +0.003 A 
ATOM      8  C   UNL     1      -5.605   3.677  25.819  0.00  0.00    +0.000 A 
ATOM      9  C   UNL     1      -6.024   2.972  25.913  0.00  0.00    +0.003 A 
ATOM     10  C   UNL     1      -5.755   2.281  25.553  0.00  0.00    +0.037 A 
ENDBRANCH   4   5
ENDBRANCH   3   4
ENDBRANCH   2   3
ENDBRANCH  12  11
BRANCH  16  20
ATOM     20  O   UNL     1      -0.121  -0.641  23.423  0.00  0.00    -0.432 OA
BRANCH  20  21
ATOM     21  C   UNL     1       0.675  -0.424  23.401  0.00  0.00    +0.425 C 
ATOM     22  O   UNL     1       1.143  -0.502  24.075  0.00  0.00    -0.224 OA
ATOM     23  N   UNL     1       1.002  -0.128  22.704  0.00  0.00    -0.142 NA
BRANCH  23  24
ATOM     24  C   UNL     1       1.798   0.089  22.682  0.00  0.00    +0.077 A 
ATOM     25  C   UNL     1       2.060   0.740  23.114  0.00  0.00    +0.020 A 
ATOM     26  C   UNL     1       2.855   0.958  23.091  0.00  0.00    +0.039 A 
ATOM     27  C   UNL     1       3.389   0.523  22.636  0.00  0.00    +0.145 A 
ATOM     35  C   UNL     1       3.126  -0.129  22.203  0.00  0.00    +0.039 A 
ATOM     36  C   UNL     1       2.331  -0.345  22.226  0.00  0.00    +0.020 A 
BRANCH  27  28
ATOM     28  O   UNL     1       4.184   0.740  22.612  0.00  0.00    -0.453 OA
BRANCH  28  29
ATOM     29  C   UNL     1       4.713   0.424  23.161  0.00  0.00    +0.145 A 
ATOM     30  C   UNL     1       5.025   0.903  23.756  0.00  0.00    +0.037 A 
ATOM     31  C   UNL     1       5.554   0.588  24.305  0.00  0.00    +0.003 A 
ATOM     32  C   UNL     1       5.772  -0.207  24.259  0.00  0.00    +0.000 A 
ATOM     33  C   UNL     1       5.460  -0.686  23.664  0.00  0.00    +0.003 A 
ATOM     34  C   UNL     1       4.931  -0.370  23.115  0.00  0.00    +0.037 A 
ENDBRANCH  28  29
ENDBRANCH  27  28
ENDBRANCH  23  24
ENDBRANCH  20  21
ENDBRANCH  16  20
TORSDOF 9
ENDMDL
MODEL 3
REMARK VINA RESULT:      -6.6     14.552     18.327
REMARK  Name = 
REMARK  9 active torsions:
REMARK  status: ('A' for Active; 'I' for Inactive)
REMARK    1  A    between atoms: C_2  and  C_3
REMARK    2  A    between atoms: C_3  and  O_4
REMARK    3  A    between atoms: O_4  and  C_5
REMARK    4  A    between atoms: N_11  and  C_12
REMARK    5  A    between atoms: C_16  and  O_20
REMARK    6  A    between atoms: O_20  and  C_21
REMARK    7  A    between atoms: N_23  and  C_24
REMARK    8  A    between atoms: C_27  and  O_28
REMARK    9  A    between atoms: O_28  and  C_29
REMARK                            x       y       z     vdW  Elec       q    Type
REMARK                         _______ _______ _______ _____ _____    ______ ____
ROOT
ATOM     12  C   UNL     1      11.240  -7.840  31.695  0.00  0.00    +0.154 C 
ATOM     13  C   UNL     1      11.714  -8.474  31.926  0.00  0.00    +0.166 C 
ATOM     14  O   UNL     1      12.467  -8.358  31.611  0.00  0.00    -0.348 OA
ATOM     15  C   UNL     1      12.460  -7.652  31.186  0.00  0.00    +0.186 C 
ATOM     16  C   UNL     1      12.920  -7.143  30.727  0.00  0.00    +0.229 C 
ATOM     17  C   UNL     1      12.446  -6.509  30.496  0.00  0.00    +0.188 C 
ATOM     18  O   UNL     1      11.693  -6.625  30.811  0.00  0.00    -0.348 OA
ATOM     19  C   UNL     1      11.701  -7.332  31.237  0.00  0.00    +0.168 C 
ENDROOT
BRANCH  12  11
ATOM      1  O   UNL     1      10.255  -9.149  31.890  0.00  0.00    -0.269 OA
ATOM      2  C   UNL     1       9.952  -8.387  31.985  0.00  0.00    +0.286 C 
ATOM     11  N   UNL     1      10.445  -7.732  31.888  0.00  0.00    -0.199 NA
BRANCH   2   3
ATOM      3  C   UNL     1       9.157  -8.280  32.178  0.00  0.00    +0.291 C 
BRANCH   3   4
ATOM      4  O   UNL     1       8.582  -8.768  31.845  0.00  0.00    -0.466 OA
BRANCH   4   5
ATOM      5  C   UNL     1       7.788  -8.548  31.872  0.00  0.00    +0.139 A 
ATOM      6  C   UNL     1       7.341  -8.530  31.179  0.00  0.00    +0.037 A 
ATOM      7  C   UNL     1       6.546  -8.310  31.206  0.00  0.00    +0.003 A 
ATOM      8  C   UNL     1       6.198  -8.109  31.927  0.00  0.00    +0.000 A 
ATOM      9  C   UNL     1       6.645  -8.127  32.620  0.00  0.00    +0.003 A 
ATOM     10  C   UNL     1       7.440  -8.347  32.593  0.00  0.00    +0.037 A 
ENDBRANCH   4   5
ENDBRANCH   3   4
ENDBRANCH   2   3
ENDBRANCH  12  11
BRANCH  16  20
ATOM     20  O   UNL     1      13.715  -7.251  30.534  0.00  0.00    -0.432 OA
BRANCH  20  21
ATOM     21  C   UNL     1      14.237  -6.612  30.565  0.00  0.00    +0.425 C 
ATOM     22  O   UNL     1      14.019  -5.885  30.242  0.00  0.00    -0.224 OA
ATOM     23  N   UNL     1      14.977  -6.701  30.918  0.00  0.00    -0.142 NA
BRANCH  23  24
ATOM     24  C   UNL     1      15.499  -6.063  30.949  0.00  0.00    +0.077 A 
ATOM     25  C   UNL     1      15.549  -5.603  31.631  0.00  0.00    +0.020 A 
ATOM     26  C   UNL     1      16.071  -4.966  31.662  0.00  0.00    +0.039 A 
ATOM     27  C   UNL     1      16.543  -4.787  31.009  0.00  0.00    +0.145 A 
ATOM     35  C   UNL     1      16.493  -5.247  30.326  0.00  0.00    +0.039 A 
ATOM     36  C   UNL     1      15.971  -5.885  30.296  0.00  0.00    +0.020 A 
BRANCH  27  28
ATOM     28  O   UNL     1      17.065  -4.150  31.039  0.00  0.00    -0.453 OA
BRANCH  28  29
ATOM     29  C   UNL     1      16.816  -3.401  30.798  0.00  0.00    +0.145 A 
ATOM     30  C   UNL     1      16.923  -3.162  30.016  0.00  0.00    +0.037 A 
ATOM     31  C   UNL     1      16.673  -2.413  29.775  0.00  0.00    +0.003 A 
ATOM     32  C   UNL     1      16.317  -1.904  30.318  0.00  0.00    +0.000 A 
ATOM     33  C   UNL     1      16.209  -2.142  31.100  0.00  0.00    +0.003 A 
ATOM     34  C   UNL     1      16.459  -2.891  31.340  0.00  0.00    +0.037 A 
ENDBRANCH  28  29
ENDBRANCH  27  28
ENDBRANCH  23  24
ENDBRANCH  20  21
ENDBRANCH  16  20
TORSDOF 9
ENDMDL
MODEL 4
REMARK VINA RESULT:      -6.4     14.430     18.507
REMARK  Name = 
REMARK  9 active torsions:
REMARK  status: ('A' for Active; 'I' for Inactive)
REMARK    1  A    between atoms: C_2  and  C_3
REMARK    2  A    between atoms: C_3  and  O_4
REMARK    3  A    between atoms: O_4  and  C_5
REMARK    4  A    between atoms: N_11  and  C_12
REMARK    5  A    between atoms: C_16  and  O_20
REMARK    6  A    between atoms: O_20  and  C_21
REMARK    7  A    between atoms: N_23  and  C_24
REMARK    8  A    between atoms: C_27  and  O_28
REMARK    9  A    between atoms: O_28  and  C_29
REMARK                            x       y       z     vdW  Elec       q    Type
REMARK                         _______ _______ _______ _____ _____    ______ ____
ROOT
ATOM     12  C   UNL     1      11.093  -7.789  32.052  0.00  0.00    +0.154 C 
ATOM     13  C   UNL     1      11.532  -8.235  32.588  0.00  0.00    +0.166 C 
ATOM     14  O   UNL     1      12.326  -8.184  32.371  0.00  0.00    -0.348 OA
ATOM     15  C   UNL     1      12.378  -7.706  31.701  0.00  0.00    +0.186 C 
ATOM     16  C   UNL     1      12.900  -7.379  31.153  0.00  0.00    +0.229 C 
ATOM     17  C   UNL     1      12.460  -6.932  30.616  0.00  0.00    +0.188 C 
ATOM     18  O   UNL     1      11.666  -6.984  30.833  0.00  0.00    -0.348 OA
ATOM     19  C   UNL     1      11.615  -7.462  31.504  0.00  0.00    +0.168 C 
ENDROOT
BRANCH  12  11
ATOM      1  O   UNL     1      10.106  -9.072  32.372  0.00  0.00    -0.269 OA
ATOM      2  C   UNL     1       9.780  -8.328  32.222  0.00  0.00    +0.286 C 
ATOM     11  N   UNL     1      10.274  -7.687  32.062  0.00  0.00    -0.199 NA
BRANCH   2   3
ATOM      3  C   UNL     1       8.962  -8.227  32.232  0.00  0.00    +0.291 C 
BRANCH   3   4
ATOM      4  O   UNL     1       8.474  -8.766  31.843  0.00  0.00    -0.466 OA
BRANCH   4   5
ATOM      5  C   UNL     1       7.680  -8.587  31.715  0.00  0.00    +0.139 A 
ATOM      6  C   UNL     1       7.344  -8.710  30.971  0.00  0.00    +0.037 A 
ATOM      7  C   UNL     1       6.549  -8.530  30.843  0.00  0.00    +0.003 A 
ATOM      8  C   UNL     1       6.089  -8.227  31.457  0.00  0.00    +0.000 A 
ATOM      9  C   UNL     1       6.426  -8.104  32.201  0.00  0.00    +0.003 A 
ATOM     10  C   UNL     1       7.220  -8.283  32.329  0.00  0.00    +0.037 A 
ENDBRANCH   4   5
ENDBRANCH   3   4
ENDBRANCH   2   3
ENDBRANCH  12  11
BRANCH  16  20
ATOM     20  O   UNL     1      13.719  -7.481  31.143  0.00  0.00    -0.432 OA
BRANCH  20  21
ATOM     21  C   UNL     1      14.114  -7.582  30.425  0.00  0.00    +0.425 C 
ATOM     22  O   UNL     1      13.829  -8.123  29.871  0.00  0.00    -0.224 OA
ATOM     23  N   UNL     1      14.792  -7.143  30.262  0.00  0.00    -0.142 NA
BRANCH  23  24
ATOM     24  C   UNL     1      15.187  -7.244  29.544  0.00  0.00    +0.077 A 
ATOM     25  C   UNL     1      15.016  -6.751  28.906  0.00  0.00    +0.020 A 
ATOM     26  C   UNL     1      15.410  -6.852  28.189  0.00  0.00    +0.039 A 
ATOM     27  C   UNL     1      15.977  -7.448  28.110  0.00  0.00    +0.145 A 
ATOM     35  C   UNL     1      16.148  -7.941  28.749  0.00  0.00    +0.039 A 
ATOM     36  C   UNL     1      15.753  -7.839  29.465  0.00  0.00    +0.020 A 
BRANCH  27  28
ATOM     28  O   UNL     1      16.371  -7.549  27.393  0.00  0.00    -0.453 OA
BRANCH  28  29
ATOM     29  C   UNL     1      16.083  -8.086  26.837  0.00  0.00    +0.145 A 
ATOM     30  C   UNL     1      16.336  -8.871  26.851  0.00  0.00    +0.037 A 
ATOM     31  C   UNL     1      16.047  -9.408  26.294  0.00  0.00    +0.003 A 
ATOM     32  C   UNL     1      15.507  -9.159  25.723  0.00  0.00    +0.000 A 
ATOM     33  C   UNL     1      15.254  -8.373  25.709  0.00  0.00    +0.003 A 
ATOM     34  C   UNL     1      15.542  -7.838  26.265  0.00  0.00    +0.037 A 
ENDBRANCH  28  29
ENDBRANCH  27  28
ENDBRANCH  23  24
ENDBRANCH  20  21
ENDBRANCH  16  20
TORSDOF 9
ENDMDL
MODEL 5
REMARK VINA RESULT:      -6.1     14.804     18.489
REMARK  Name = 
REMARK  9 active torsions:
REMARK  status: ('A' for Active; 'I' for Inactive)
REMARK    1  A    between atoms: C_2  and  C_3
REMARK    2  A    between atoms: C_3  and  O_4
REMARK    3  A    between atoms: O_4  and  C_5
REMARK    4  A    between atoms: N_11  and  C_12
REMARK    5  A    between atoms: C_16  and  O_20
REMARK    6  A    between atoms: O_20  and  C_21
REMARK    7  A    between atoms: N_23  and  C_24
REMARK    8  A    between atoms: C_27  and  O_28
REMARK    9  A    between atoms: O_28  and  C_29
REMARK                            x       y       z     vdW  Elec       q    Type
REMARK                         _______ _______ _______ _____ _____    ______ ____
ROOT
ATOM     12  C   UNL     1      10.991  -7.551  32.002  0.00  0.00    +0.154 C 
ATOM     13  C   UNL     1      11.161  -7.271  32.759  0.00  0.00    +0.166 C 
ATOM     14  O   UNL     1      11.766  -6.714  32.694  0.00  0.00    -0.348 OA
ATOM     15  C   UNL     1      11.969  -6.648  31.898  0.00  0.00    +0.186 C 
ATOM     16  C   UNL     1      12.468  -6.264  31.365  0.00  0.00    +0.229 C 
ATOM     17  C   UNL     1      12.297  -6.543  30.608  0.00  0.00    +0.188 C 
ATOM     18  O   UNL     1      11.693  -7.100  30.673  0.00  0.00    -0.348 OA
ATOM     19  C   UNL     1      11.490  -7.166  31.470  0.00  0.00    +0.168 C 
ENDROOT
BRANCH  12  11
ATOM      1  O   UNL     1       9.558  -7.588  32.819  0.00  0.00    -0.269 OA
ATOM      2  C   UNL     1       9.705  -8.135  32.219  0.00  0.00    +0.286 C 
ATOM     11  N   UNL     1      10.421  -8.116  31.810  0.00  0.00    -0.199 NA
BRANCH   2   3
ATOM      3  C   UNL     1       9.135  -8.700  32.028  0.00  0.00    +0.291 C 
BRANCH   3   4
ATOM      4  O   UNL     1       8.339  -8.487  31.987  0.00  0.00    -0.466 OA
BRANCH   4   5
ATOM      5  C   UNL     1       7.806  -8.958  31.571  0.00  0.00    +0.139 A 
ATOM      6  C   UNL     1       7.758  -9.766  31.732  0.00  0.00    +0.037 A 
ATOM      7  C   UNL     1       7.224 -10.238  31.315  0.00  0.00    +0.003 A 
ATOM      8  C   UNL     1       6.740  -9.903  30.737  0.00  0.00    +0.000 A 
ATOM      9  C   UNL     1       6.789  -9.095  30.577  0.00  0.00    +0.003 A 
ATOM     10  C   UNL     1       7.322  -8.623  30.993  0.00  0.00    +0.037 A 
ENDBRANCH   4   5
ENDBRANCH   3   4
ENDBRANCH   2   3
ENDBRANCH  12  11
BRANCH  16  20
ATOM     20  O   UNL     1      13.037  -5.698  31.556  0.00  0.00    -0.432 OA
BRANCH  20  21
ATOM     21  C   UNL     1      13.751  -5.674  31.143  0.00  0.00    +0.425 C 
ATOM     22  O   UNL     1      13.759  -5.802  30.328  0.00  0.00    -0.224 OA
ATOM     23  N   UNL     1      14.456  -5.524  31.544  0.00  0.00    -0.142 NA
BRANCH  23  24
ATOM     24  C   UNL     1      15.169  -5.500  31.130  0.00  0.00    +0.077 A 
ATOM     25  C   UNL     1      15.409  -4.804  30.761  0.00  0.00    +0.020 A 
ATOM     26  C   UNL     1      16.122  -4.780  30.348  0.00  0.00    +0.039 A 
ATOM     27  C   UNL     1      16.596  -5.454  30.303  0.00  0.00    +0.145 A 
ATOM     35  C   UNL     1      16.356  -6.152  30.673  0.00  0.00    +0.039 A 
ATOM     36  C   UNL     1      15.643  -6.175  31.086  0.00  0.00    +0.020 A 
BRANCH  27  28
ATOM     28  O   UNL     1      17.309  -5.431  29.891  0.00  0.00    -0.453 OA
BRANCH  28  29
ATOM     29  C   UNL     1      17.316  -5.541  29.073  0.00  0.00    +0.145 A 
ATOM     30  C   UNL     1      17.268  -6.303  28.759  0.00  0.00    +0.037 A 
ATOM     31  C   UNL     1      17.274  -6.413  27.941  0.00  0.00    +0.003 A 
ATOM     32  C   UNL     1      17.329  -5.761  27.438  0.00  0.00    +0.000 A 
ATOM     33  C   UNL     1      17.377  -5.000  27.752  0.00  0.00    +0.003 A 
ATOM     34  C   UNL     1      17.370  -4.890  28.569  0.00  0.00    +0.037 A 
ENDBRANCH  28  29
ENDBRANCH  27  28
ENDBRANCH  23  24
ENDBRANCH  20  21
ENDBRANCH  16  20
TORSDOF 9
ENDMDL
MODEL 6
REMARK VINA RESULT:      -5.7     14.006     14.992
REMARK  Name = 
REMARK  9 active torsions:
REMARK  status: ('A' for Active; 'I' for Inactive)
REMARK    1  A    between atoms: C_2  and  C_3
REMARK    2  A    between atoms: C_3  and  O_4
REMARK    3  A    between atoms: O_4  and  C_5
REMARK    4  A    between atoms: N_11  and  C_12
REMARK    5  A    between atoms: C_16  and  O_20
REMARK    6  A    between atoms: O_20  and  C_21
REMARK    7  A    between atoms: N_23  and  C_24
REMARK    8  A    between atoms: C_27  and  O_28
REMARK    9  A    between atoms: O_28  and  C_29
REMARK                            x       y       z     vdW  Elec       q    Type
REMARK                         _______ _______ _______ _____ _____    ______ ____
ROOT
ATOM     12  C   UNL     1      -3.575 -10.486  12.646  0.00  0.00    +0.154 C 
ATOM     13  C   UNL     1      -4.146 -10.696  12.089  0.00  0.00    +0.166 C 
ATOM     14  O   UNL     1      -4.866 -10.780  12.482  0.00  0.00    -0.348 OA
ATOM     15  C   UNL     1      -4.741 -10.623  13.281  0.00  0.00    +0.186 C 
ATOM     16  C   UNL     1      -5.108 -10.578  14.019  0.00  0.00    +0.229 C 
ATOM     17  C   UNL     1      -4.537 -10.369  14.576  0.00  0.00    +0.188 C 
ATOM     18  O   UNL     1      -3.817 -10.284  14.183  0.00  0.00    -0.348 OA
ATOM     19  C   UNL     1      -3.943 -10.441  13.382  0.00  0.00    +0.168 C 
ENDROOT
BRANCH  12  11
ATOM      1  O   UNL     1      -3.111  -9.861  11.191  0.00  0.00    -0.269 OA
ATOM      2  C   UNL     1      -2.544 -10.033  11.765  0.00  0.00    +0.286 C 
ATOM     11  N   UNL     1      -2.776 -10.346  12.493  0.00  0.00    -0.199 NA
BRANCH   2   3
ATOM      3  C   UNL     1      -1.746  -9.893  11.612  0.00  0.00    +0.291 C 
BRANCH   3   4
ATOM      4  O   UNL     1      -1.518  -9.223  11.188  0.00  0.00    -0.466 OA
BRANCH   4   5
ATOM      5  C   UNL     1      -0.758  -8.917  11.276  0.00  0.00    +0.139 A 
ATOM      6  C   UNL     1      -0.584  -8.422  11.912  0.00  0.00    +0.037 A 
ATOM      7  C   UNL     1       0.177  -8.116  12.001  0.00  0.00    +0.003 A 
ATOM      8  C   UNL     1       0.765  -8.305  11.453  0.00  0.00    +0.000 A 
ATOM      9  C   UNL     1       0.590  -8.801  10.816  0.00  0.00    +0.003 A 
ATOM     10  C   UNL     1      -0.170  -9.107  10.728  0.00  0.00    +0.037 A 
ENDBRANCH   4   5
ENDBRANCH   3   4
ENDBRANCH   2   3
ENDBRANCH  12  11
BRANCH  16  20
ATOM     20  O   UNL     1      -5.906 -10.718  14.172  0.00  0.00    -0.432 OA
BRANCH  20  21
ATOM     21  C   UNL     1      -6.288 -10.310  14.778  0.00  0.00    +0.425 C 
ATOM     22  O   UNL     1      -6.170  -9.498  14.867  0.00  0.00    -0.224 OA
ATOM     23  N   UNL     1      -6.788 -10.712  15.296  0.00  0.00    -0.142 NA
BRANCH  23  24
ATOM     24  C   UNL     1      -7.170 -10.304  15.903  0.00  0.00    +0.077 A 
ATOM     25  C   UNL     1      -7.676  -9.678  15.724  0.00  0.00    +0.020 A 
ATOM     26  C   UNL     1      -8.058  -9.270  16.330  0.00  0.00    +0.039 A 
ATOM     27  C   UNL     1      -7.934  -9.488  17.117  0.00  0.00    +0.145 A 
ATOM     35  C   UNL     1      -7.428 -10.115  17.295  0.00  0.00    +0.039 A 
ATOM     36  C   UNL     1      -7.046 -10.523  16.688  0.00  0.00    +0.020 A 
BRANCH  27  28
ATOM     28  O   UNL     1      -8.315  -9.081  17.723  0.00  0.00    -0.453 OA
BRANCH  28  29
ATOM     29  C   UNL     1      -9.114  -9.221  17.875  0.00  0.00    +0.145 A 
ATOM     30  C   UNL     1      -9.343  -9.901  18.282  0.00  0.00    +0.037 A 
ATOM     31  C   UNL     1     -10.142 -10.041  18.434  0.00  0.00    +0.003 A 
ATOM     32  C   UNL     1     -10.711  -9.501  18.179  0.00  0.00    +0.000 A 
ATOM     33  C   UNL     1     -10.482  -8.820  17.773  0.00  0.00    +0.003 A 
ATOM     34  C   UNL     1      -9.684  -8.680  17.621  0.00  0.00    +0.037 A 
ENDBRANCH  28  29
ENDBRANCH  27  28
ENDBRANCH  23  24
ENDBRANCH  20  21
ENDBRANCH  16  20
TORSDOF 9
ENDMDL
MODEL 7
REMARK VINA RESULT:      -5.7     16.973     18.010
REMARK  Name = 
REMARK  9 active torsions:
REMARK  status: ('A' for Active; 'I' for Inactive)
REMARK    1  A    between atoms: C_2  and  C_3
REMARK    2  A    between atoms: C_3  and  O_4
REMARK    3  A    between atoms: O_4  and  C_5
REMARK    4  A    between atoms: N_11  and  C_12
REMARK    5  A    between atoms: C_16  and  O_20
REMARK    6  A    between atoms: O_20  and  C_21
REMARK    7  A    between atoms: N_23  and  C_24
REMARK    8  A    between atoms: C_27  and  O_28
REMARK    9  A    between atoms: O_28  and  C_29
REMARK                            x       y       z     vdW  Elec       q    Type
REMARK                         _______ _______ _______ _____ _____    ______ ____
ROOT
ATOM     12  C   UNL     1      -5.142 -10.200  10.059  0.00  0.00    +0.154 C 
ATOM     13  C   UNL     1      -5.384 -10.530   9.343  0.00  0.00    +0.166 C 
ATOM     14  O   UNL     1      -6.206 -10.482   9.305  0.00  0.00    -0.348 OA
ATOM     15  C   UNL     1      -6.473 -10.122   9.997  0.00  0.00    +0.186 C 
ATOM     16  C   UNL     1      -7.146  -9.870  10.403  0.00  0.00    +0.229 C 
ATOM     17  C   UNL     1      -6.904  -9.540  11.119  0.00  0.00    +0.188 C 
ATOM     18  O   UNL     1      -6.082  -9.588  11.156  0.00  0.00    -0.348 OA
ATOM     19  C   UNL     1      -5.815  -9.948  10.463  0.00  0.00    +0.168 C 
ENDROOT
BRANCH  12  11
ATOM      1  O   UNL     1      -3.952  -9.736   9.014  0.00  0.00    -0.269 OA
ATOM      2  C   UNL     1      -3.768  -9.902   9.802  0.00  0.00    +0.286 C 
ATOM     11  N   UNL     1      -4.364 -10.134  10.324  0.00  0.00    -0.199 NA
BRANCH   2   3
ATOM      3  C   UNL     1      -2.990  -9.836  10.066  0.00  0.00    +0.291 C 
BRANCH   3   4
ATOM      4  O   UNL     1      -2.810  -9.342  10.702  0.00  0.00    -0.466 OA
BRANCH   4   5
ATOM      5  C   UNL     1      -2.048  -9.333  11.016  0.00  0.00    +0.139 A 
ATOM      6  C   UNL     1      -1.483  -8.816  10.710  0.00  0.00    +0.037 A 
ATOM      7  C   UNL     1      -0.719  -8.806  11.023  0.00  0.00    +0.003 A 
ATOM      8  C   UNL     1      -0.521  -9.314  11.642  0.00  0.00    +0.000 A 
ATOM      9  C   UNL     1      -1.087  -9.832  11.948  0.00  0.00    +0.003 A 
ATOM     10  C   UNL     1      -1.849  -9.841  11.635  0.00  0.00    +0.037 A 
ENDBRANCH   4   5
ENDBRANCH   3   4
ENDBRANCH   2   3
ENDBRANCH  12  11
BRANCH  16  20
ATOM     20  O   UNL     1      -7.925  -9.936  10.138  0.00  0.00    -0.432 OA
BRANCH  20  21
ATOM     21  C   UNL     1      -8.338  -9.263   9.898  0.00  0.00    +0.425 C 
ATOM     22  O   UNL     1      -8.215  -8.545  10.284  0.00  0.00    -0.224 OA
ATOM     23  N   UNL     1      -8.872  -9.308   9.272  0.00  0.00    -0.142 NA
BRANCH  23  24
ATOM     24  C   UNL     1      -9.285  -8.635   9.032  0.00  0.00    +0.077 A 
ATOM     25  C   UNL     1      -9.943  -8.381   9.459  0.00  0.00    +0.020 A 
ATOM     26  C   UNL     1     -10.356  -7.709   9.219  0.00  0.00    +0.039 A 
ATOM     27  C   UNL     1     -10.111  -7.290   8.551  0.00  0.00    +0.145 A 
ATOM     35  C   UNL     1      -9.452  -7.545   8.124  0.00  0.00    +0.039 A 
ATOM     36  C   UNL     1      -9.040  -8.217   8.364  0.00  0.00    +0.020 A 
BRANCH  27  28
ATOM     28  O   UNL     1     -10.523  -6.618   8.311  0.00  0.00    -0.453 OA
BRANCH  28  29
ATOM     29  C   UNL     1     -10.261  -5.870   8.541  0.00  0.00    +0.145 A 
ATOM     30  C   UNL     1     -10.720  -5.411   9.050  0.00  0.00    +0.037 A 
ATOM     31  C   UNL     1     -10.458  -4.662   9.279  0.00  0.00    +0.003 A 
ATOM     32  C   UNL     1      -9.737  -4.374   9.000  0.00  0.00    +0.000 A 
ATOM     33  C   UNL     1      -9.278  -4.833   8.491  0.00  0.00    +0.003 A 
ATOM     34  C   UNL     1      -9.540  -5.581   8.261  0.00  0.00    +0.037 A 
ENDBRANCH  28  29
ENDBRANCH  27  28
ENDBRANCH  23  24
ENDBRANCH  20  21
ENDBRANCH  16  20
TORSDOF 9
ENDMDL
MODEL 8
REMARK VINA RESULT:      -5.5     15.241     16.283
REMARK  Name = 
REMARK  9 active torsions:
REMARK  status: ('A' for Active; 'I' for Inactive)
REMARK    1  A    between atoms: C_2  and  C_3
REMARK    2  A    between atoms: C_3  and  O_4
REMARK    3  A    between atoms: O_4  and  C_5
REMARK    4  A    between atoms: N_11  and  C_12
REMARK    5  A    between atoms: C_16  and  O_20
REMARK    6  A    between atoms: O_20  and  C_21
REMARK    7  A    between atoms: N_23  and  C_24
REMARK    8  A    between atoms: C_27  and  O_28
REMARK    9  A    between atoms: O_28  and  C_29
REMARK                            x       y       z     vdW  Elec       q    Type
REMARK                         _______ _______ _______ _____ _____    ______ ____
ROOT
ATOM     12  C   UNL     1      -5.537  -9.982  10.944  0.00  0.00    +0.154 C 
ATOM     13  C   UNL     1      -5.812 -10.746  10.800  0.00  0.00    +0.166 C 
ATOM     14  O   UNL     1      -6.601 -10.781  11.036  0.00  0.00    -0.348 OA
ATOM     15  C   UNL     1      -6.815 -10.040  11.326  0.00  0.00    +0.186 C 
ATOM     16  C   UNL     1      -7.434  -9.602  11.651  0.00  0.00    +0.229 C 
ATOM     17  C   UNL     1      -7.159  -8.838  11.795  0.00  0.00    +0.188 C 
ATOM     18  O   UNL     1      -6.370  -8.803  11.560  0.00  0.00    -0.348 OA
ATOM     19  C   UNL     1      -6.157  -9.546  11.269  0.00  0.00    +0.168 C 
ENDROOT
BRANCH  12  11
ATOM      1  O   UNL     1      -4.241 -10.661  11.707  0.00  0.00    -0.269 OA
ATOM      2  C   UNL     1      -4.127 -10.042  11.172  0.00  0.00    +0.286 C 
ATOM     11  N   UNL     1      -4.776  -9.703  10.791  0.00  0.00    -0.199 NA
BRANCH   2   3
ATOM      3  C   UNL     1      -3.366  -9.764  11.019  0.00  0.00    +0.291 C 
BRANCH   3   4
ATOM      4  O   UNL     1      -2.731 -10.026  11.475  0.00  0.00    -0.466 OA
BRANCH   4   5
ATOM      5  C   UNL     1      -1.983  -9.697  11.369  0.00  0.00    +0.139 A 
ATOM      6  C   UNL     1      -1.344  -9.973  11.812  0.00  0.00    +0.037 A 
ATOM      7  C   UNL     1      -0.595  -9.643  11.706  0.00  0.00    +0.003 A 
ATOM      8  C   UNL     1      -0.484  -9.037  11.157  0.00  0.00    +0.000 A 
ATOM      9  C   UNL     1      -1.124  -8.760  10.715  0.00  0.00    +0.003 A 
ATOM     10  C   UNL     1      -1.872  -9.090  10.821  0.00  0.00    +0.037 A 
ENDBRANCH   4   5
ENDBRANCH   3   4
ENDBRANCH   2   3
ENDBRANCH  12  11
BRANCH  16  20
ATOM     20  O   UNL     1      -8.196  -9.881  11.805  0.00  0.00    -0.432 OA
BRANCH  20  21
ATOM     21  C   UNL     1      -8.545  -9.744  12.539  0.00  0.00    +0.425 C 
ATOM     22  O   UNL     1      -8.165  -9.265  13.093  0.00  0.00    -0.224 OA
ATOM     23  N   UNL     1      -9.273 -10.086  12.721  0.00  0.00    -0.142 NA
BRANCH  23  24
ATOM     24  C   UNL     1      -9.622  -9.949  13.456  0.00  0.00    +0.077 A 
ATOM     25  C   UNL     1     -10.150  -9.323  13.552  0.00  0.00    +0.020 A 
ATOM     26  C   UNL     1     -10.499  -9.187  14.286  0.00  0.00    +0.039 A 
ATOM     27  C   UNL     1     -10.320  -9.677  14.926  0.00  0.00    +0.145 A 
ATOM     35  C   UNL     1      -9.791 -10.304  14.830  0.00  0.00    +0.039 A 
ATOM     36  C   UNL     1      -9.443 -10.440  14.095  0.00  0.00    +0.020 A 
BRANCH  27  28
ATOM     28  O   UNL     1     -10.668  -9.541  15.660  0.00  0.00    -0.453 OA
BRANCH  28  29
ATOM     29  C   UNL     1     -10.326  -9.005  16.186  0.00  0.00    +0.145 A 
ATOM     30  C   UNL     1      -9.710  -9.247  16.679  0.00  0.00    +0.037 A 
ATOM     31  C   UNL     1      -9.368  -8.711  17.205  0.00  0.00    +0.003 A 
ATOM     32  C   UNL     1      -9.641  -7.933  17.237  0.00  0.00    +0.000 A 
ATOM     33  C   UNL     1     -10.257  -7.691  16.744  0.00  0.00    +0.003 A 
ATOM     34  C   UNL     1     -10.599  -8.227  16.219  0.00  0.00    +0.037 A 
ENDBRANCH  28  29
ENDBRANCH  27  28
ENDBRANCH  23  24
ENDBRANCH  20  21
ENDBRANCH  16  20
TORSDOF 9
ENDMDL
