MODEL 1
REMARK VINA RESULT:     -13.7      0.000      0.000
REMARK  Name = 
REMARK  7 active torsions:
REMARK  status: ('A' for Active; 'I' for Inactive)
REMARK    1  A    between atoms: N_2  and  C_4
REMARK    2  A    between atoms: C_7  and  C_10
REMARK    3  A    between atoms: N_14  and  C_15
REMARK    4  A    between atoms: C_19  and  O_23
REMARK    5  A    between atoms: O_23  and  C_24
REMARK    6  A    between atoms: N_26  and  C_27
REMARK    7  A    between atoms: C_29  and  C_33
REMARK                            x       y       z     vdW  Elec       q    Type
REMARK                         _______ _______ _______ _____ _____    ______ ____
ROOT
ATOM     15  C   UNL     1      -0.973   3.120  25.431  0.00  0.00    +0.167 C 
ATOM     16  C   UNL     1      -1.119   2.824  26.187  0.00  0.00    +0.169 C 
ATOM     17  O   UNL     1      -0.984   2.011  26.173  0.00  0.00    -0.348 OA
ATOM     18  C   UNL     1      -0.754   1.803  25.409  0.00  0.00    +0.187 C 
ATOM     19  C   UNL     1      -0.528   1.173  24.926  0.00  0.00    +0.229 C 
ATOM     20  C   UNL     1      -0.382   1.469  24.171  0.00  0.00    +0.188 C 
ATOM     21  O   UNL     1      -0.517   2.282  24.185  0.00  0.00    -0.348 OA
ATOM     22  C   UNL     1      -0.747   2.489  24.950  0.00  0.00    +0.171 C 
ENDROOT
BRANCH  15  14
ATOM     10  C   UNL     1      -1.745   4.321  25.082  0.00  0.00    +0.184 A 
ATOM     11  N   UNL     1      -1.555   5.090  24.851  0.00  0.00    -0.108 NA
ATOM     12  N   UNL     1      -0.733   5.153  24.825  0.00  0.00    -0.023 NA
ATOM     13  N   UNL     1      -0.415   4.423  25.039  0.00  0.00    -0.043 NA
ATOM     14  N   UNL     1      -1.040   3.908  25.198  0.00  0.00    -0.210 N 
BRANCH  10   7
ATOM      4  C   UNL     1      -4.028   3.411  25.373  0.00  0.00    +0.048 A 
ATOM      5  C   UNL     1      -3.623   3.725  26.020  0.00  0.00    +0.015 A 
ATOM      6  C   UNL     1      -2.862   4.028  25.923  0.00  0.00    +0.004 A 
ATOM      7  C   UNL     1      -2.506   4.017  25.179  0.00  0.00    +0.037 A 
ATOM      8  C   UNL     1      -2.911   3.704  24.532  0.00  0.00    +0.004 A 
ATOM      9  C   UNL     1      -3.672   3.401  24.629  0.00  0.00    +0.015 A 
BRANCH   4   2
ATOM      1  C   UNL     1      -4.927   2.301  25.371  0.00  0.00    +0.112 C 
ATOM      2  N   UNL     1      -4.790   3.108  25.470  0.00  0.00    -0.304 N 
ATOM      3  C   UNL     1      -5.412   3.613  25.666  0.00  0.00    +0.112 C 
ENDBRANCH   4   2
ENDBRANCH  10   7
ENDBRANCH  15  14
BRANCH  19  23
ATOM     23  O   UNL     1      -0.461   0.385  25.160  0.00  0.00    -0.432 OA
BRANCH  23  24
ATOM     24  C   UNL     1      -0.955  -0.188  24.830  0.00  0.00    +0.425 C 
ATOM     25  O   UNL     1      -0.907  -0.358  24.024  0.00  0.00    -0.224 OA
ATOM     26  N   UNL     1      -1.496  -0.589  25.304  0.00  0.00    -0.142 NA
BRANCH  26  27
ATOM     27  C   UNL     1      -1.990  -1.162  24.974  0.00  0.00    +0.077 A 
ATOM     28  C   UNL     1      -2.779  -0.983  24.812  0.00  0.00    +0.021 A 
ATOM     29  C   UNL     1      -3.273  -1.554  24.482  0.00  0.00    +0.073 A 
ATOM     30  C   UNL     1      -2.978  -2.307  24.314  0.00  0.00    +0.004 A 
ATOM     31  C   UNL     1      -2.189  -2.486  24.475  0.00  0.00    +0.001 A 
ATOM     32  C   UNL     1      -1.695  -1.913  24.806  0.00  0.00    +0.017 A 
BRANCH  29  33
ATOM     33  C   UNL     1      -4.062  -1.375  24.321  0.00  0.00    +0.419 C 
ATOM     34  F   UNL     1      -4.850  -1.196  24.159  0.00  0.00    -0.166 F 
ATOM     35  F   UNL     1      -3.890  -1.344  23.514  0.00  0.00    -0.166 F 
ATOM     36  F   UNL     1      -4.234  -1.405  25.126  0.00  0.00    -0.166 F 
ENDBRANCH  29  33
ENDBRANCH  26  27
ENDBRANCH  23  24
ENDBRANCH  19  23
TORSDOF 7
ENDMDL
MODEL 2
REMARK VINA RESULT:     -12.6      2.092      4.790
REMARK  Name = 
REMARK  7 active torsions:
REMARK  status: ('A' for Active; 'I' for Inactive)
REMARK    1  A    between atoms: N_2  and  C_4
REMARK    2  A    between atoms: C_7  and  C_10
REMARK    3  A    between atoms: N_14  and  C_15
REMARK    4  A    between atoms: C_19  and  O_23
REMARK    5  A    between atoms: O_23  and  C_24
REMARK    6  A    between atoms: N_26  and  C_27
REMARK    7  A    between atoms: C_29  and  C_33
REMARK                            x       y       z     vdW  Elec       q    Type
REMARK                         _______ _______ _______ _____ _____    ______ ____
ROOT
ATOM     15  C   UNL     1      -1.433  -0.791  25.070  0.00  0.00    +0.167 C 
ATOM     16  C   UNL     1      -1.468  -0.508  25.844  0.00  0.00    +0.169 C 
ATOM     17  O   UNL     1      -1.043   0.198  25.876  0.00  0.00    -0.348 OA
ATOM     18  C   UNL     1      -0.746   0.352  25.123  0.00  0.00    +0.187 C 
ATOM     19  C   UNL     1      -0.301   0.883  24.676  0.00  0.00    +0.229 C 
ATOM     20  C   UNL     1      -0.266   0.601  23.902  0.00  0.00    +0.188 C 
ATOM     21  O   UNL     1      -0.691  -0.105  23.870  0.00  0.00    -0.348 OA
ATOM     22  C   UNL     1      -0.988  -0.259  24.624  0.00  0.00    +0.171 C 
ENDROOT
BRANCH  15  14
ATOM     10  C   UNL     1      -2.584  -1.589  24.623  0.00  0.00    +0.184 A 
ATOM     11  N   UNL     1      -2.690  -2.364  24.359  0.00  0.00    -0.108 NA
ATOM     12  N   UNL     1      -1.954  -2.737  24.363  0.00  0.00    -0.023 NA
ATOM     13  N   UNL     1      -1.394  -2.194  24.630  0.00  0.00    -0.043 NA
ATOM     14  N   UNL     1      -1.784  -1.484  24.791  0.00  0.00    -0.210 N 
BRANCH  10   7
ATOM      4  C   UNL     1      -4.358   0.118  24.869  0.00  0.00    +0.048 A 
ATOM      5  C   UNL     1      -4.018  -0.019  24.130  0.00  0.00    +0.015 A 
ATOM      6  C   UNL     1      -3.427  -0.588  24.048  0.00  0.00    +0.004 A 
ATOM      7  C   UNL     1      -3.176  -1.020  24.705  0.00  0.00    +0.037 A 
ATOM      8  C   UNL     1      -3.516  -0.882  25.443  0.00  0.00    +0.004 A 
ATOM      9  C   UNL     1      -4.107  -0.312  25.526  0.00  0.00    +0.015 A 
BRANCH   4   2
ATOM      1  C   UNL     1      -5.713   0.532  24.680  0.00  0.00    +0.112 C 
ATOM      2  N   UNL     1      -4.950   0.688  24.951  0.00  0.00    -0.304 N 
ATOM      3  C   UNL     1      -4.778   1.414  25.305  0.00  0.00    +0.112 C 
ENDBRANCH   4   2
ENDBRANCH  10   7
ENDBRANCH  15  14
BRANCH  19  23
ATOM     23  O   UNL     1       0.050   1.577  24.955  0.00  0.00    -0.432 OA
BRANCH  23  24
ATOM     24  C   UNL     1      -0.326   2.303  24.844  0.00  0.00    +0.425 C 
ATOM     25  O   UNL     1      -0.527   2.550  24.083  0.00  0.00    -0.224 OA
ATOM     26  N   UNL     1      -0.499   2.781  25.492  0.00  0.00    -0.142 NA
BRANCH  26  27
ATOM     27  C   UNL     1      -0.875   3.508  25.381  0.00  0.00    +0.077 A 
ATOM     28  C   UNL     1      -1.670   3.596  25.580  0.00  0.00    +0.021 A 
ATOM     29  C   UNL     1      -2.045   4.322  25.469  0.00  0.00    +0.073 A 
ATOM     30  C   UNL     1      -1.625   4.960  25.157  0.00  0.00    +0.004 A 
ATOM     31  C   UNL     1      -0.829   4.872  24.958  0.00  0.00    +0.001 A 
ATOM     32  C   UNL     1      -0.454   4.146  25.070  0.00  0.00    +0.017 A 
BRANCH  29  33
ATOM     33  C   UNL     1      -2.841   4.410  25.668  0.00  0.00    +0.419 C 
ATOM     34  F   UNL     1      -3.636   4.498  25.868  0.00  0.00    -0.166 F 
ATOM     35  F   UNL     1      -2.629   4.548  26.454  0.00  0.00    -0.166 F 
ATOM     36  F   UNL     1      -3.053   4.272  24.883  0.00  0.00    -0.166 F 
ENDBRANCH  29  33
ENDBRANCH  26  27
ENDBRANCH  23  24
ENDBRANCH  19  23
TORSDOF 7
ENDMDL
MODEL 3
REMARK VINA RESULT:     -11.9      1.863      3.234
REMARK  Name = 
REMARK  7 active torsions:
REMARK  status: ('A' for Active; 'I' for Inactive)
REMARK    1  A    between atoms: N_2  and  C_4
REMARK    2  A    between atoms: C_7  and  C_10
REMARK    3  A    between atoms: N_14  and  C_15
REMARK    4  A    between atoms: C_19  and  O_23
REMARK    5  A    between atoms: O_23  and  C_24
REMARK    6  A    between atoms: N_26  and  C_27
REMARK    7  A    between atoms: C_29  and  C_33
REMARK                            x       y       z     vdW  Elec       q    Type
REMARK                         _______ _______ _______ _____ _____    ______ ____
ROOT
ATOM     15  C   UNL     1      -3.723   3.025  24.817  0.00  0.00    +0.167 C 
ATOM     16  C   UNL     1      -3.397   2.930  24.066  0.00  0.00    +0.169 C 
ATOM     17  O   UNL     1      -3.621   2.189  23.783  0.00  0.00    -0.348 OA
ATOM     18  C   UNL     1      -4.086   1.826  24.359  0.00  0.00    +0.187 C 
ATOM     19  C   UNL     1      -4.513   1.143  24.541  0.00  0.00    +0.229 C 
ATOM     20  C   UNL     1      -4.839   1.239  25.293  0.00  0.00    +0.188 C 
ATOM     21  O   UNL     1      -4.614   1.980  25.575  0.00  0.00    -0.348 OA
ATOM     22  C   UNL     1      -4.149   2.343  24.998  0.00  0.00    +0.171 C 
ENDROOT
BRANCH  15  14
ATOM     10  C   UNL     1      -2.936   3.948  25.648  0.00  0.00    +0.184 A 
ATOM     11  N   UNL     1      -3.104   4.627  26.086  0.00  0.00    -0.108 NA
ATOM     12  N   UNL     1      -3.911   4.786  26.011  0.00  0.00    -0.023 NA
ATOM     13  N   UNL     1      -4.241   4.205  25.526  0.00  0.00    -0.043 NA
ATOM     14  N   UNL     1      -3.638   3.688  25.302  0.00  0.00    -0.210 N 
BRANCH  10   7
ATOM      4  C   UNL     1      -0.715   2.883  25.412  0.00  0.00    +0.048 A 
ATOM      5  C   UNL     1      -0.959   3.453  24.867  0.00  0.00    +0.015 A 
ATOM      6  C   UNL     1      -1.699   3.808  24.946  0.00  0.00    +0.004 A 
ATOM      7  C   UNL     1      -2.195   3.593  25.569  0.00  0.00    +0.037 A 
ATOM      8  C   UNL     1      -1.952   3.024  26.113  0.00  0.00    +0.004 A 
ATOM      9  C   UNL     1      -1.211   2.668  26.035  0.00  0.00    +0.015 A 
BRANCH   4   2
ATOM      1  C   UNL     1       0.267   2.235  24.601  0.00  0.00    +0.112 C 
ATOM      2  N   UNL     1       0.026   2.527  25.334  0.00  0.00    -0.304 N 
ATOM      3  C   UNL     1       0.524   2.465  25.988  0.00  0.00    +0.112 C 
ENDBRANCH   4   2
ENDBRANCH  10   7
ENDBRANCH  15  14
BRANCH  19  23
ATOM     23  O   UNL     1      -4.598   0.481  24.056  0.00  0.00    -0.432 OA
BRANCH  23  24
ATOM     24  C   UNL     1      -4.323  -0.255  24.310  0.00  0.00    +0.425 C 
ATOM     25  O   UNL     1      -4.458  -0.499  25.086  0.00  0.00    -0.224 OA
ATOM     26  N   UNL     1      -3.915  -0.745  23.788  0.00  0.00    -0.142 NA
BRANCH  26  27
ATOM     27  C   UNL     1      -3.640  -1.481  24.042  0.00  0.00    +0.077 A 
ATOM     28  C   UNL     1      -2.848  -1.577  24.249  0.00  0.00    +0.021 A 
ATOM     29  C   UNL     1      -2.574  -2.311  24.503  0.00  0.00    +0.073 A 
ATOM     30  C   UNL     1      -3.092  -2.952  24.549  0.00  0.00    +0.004 A 
ATOM     31  C   UNL     1      -3.885  -2.856  24.342  0.00  0.00    +0.001 A 
ATOM     32  C   UNL     1      -4.159  -2.120  24.088  0.00  0.00    +0.017 A 
BRANCH  29  33
ATOM     33  C   UNL     1      -1.781  -2.407  24.710  0.00  0.00    +0.419 C 
ATOM     34  F   UNL     1      -0.988  -2.503  24.917  0.00  0.00    -0.166 F 
ATOM     35  F   UNL     1      -1.617  -2.694  23.954  0.00  0.00    -0.166 F 
ATOM     36  F   UNL     1      -1.943  -2.121  25.466  0.00  0.00    -0.166 F 
ENDBRANCH  29  33
ENDBRANCH  26  27
ENDBRANCH  23  24
ENDBRANCH  19  23
TORSDOF 7
ENDMDL
MODEL 4
REMARK VINA RESULT:     -11.7      1.741      4.432
REMARK  Name = 
REMARK  7 active torsions:
REMARK  status: ('A' for Active; 'I' for Inactive)
REMARK    1  A    between atoms: N_2  and  C_4
REMARK    2  A    between atoms: C_7  and  C_10
REMARK    3  A    between atoms: N_14  and  C_15
REMARK    4  A    between atoms: C_19  and  O_23
REMARK    5  A    between atoms: O_23  and  C_24
REMARK    6  A    between atoms: N_26  and  C_27
REMARK    7  A    between atoms: C_29  and  C_33
REMARK                            x       y       z     vdW  Elec       q    Type
REMARK                         _______ _______ _______ _____ _____    ______ ____
ROOT
ATOM     15  C   UNL     1      -0.583   1.069  24.616  0.00  0.00    +0.167 C 
ATOM     16  C   UNL     1      -0.621   1.127  25.438  0.00  0.00    +0.169 C 
ATOM     17  O   UNL     1      -1.072   1.792  25.625  0.00  0.00    -0.348 OA
ATOM     18  C   UNL     1      -1.312   2.145  24.920  0.00  0.00    +0.187 C 
ATOM     19  C   UNL     1      -1.739   2.773  24.599  0.00  0.00    +0.229 C 
ATOM     20  C   UNL     1      -1.701   2.715  23.777  0.00  0.00    +0.188 C 
ATOM     21  O   UNL     1      -1.250   2.051  23.590  0.00  0.00    -0.348 OA
ATOM     22  C   UNL     1      -1.009   1.698  24.296  0.00  0.00    +0.171 C 
ENDROOT
BRANCH  15  14
ATOM     10  C   UNL     1      -0.422  -0.301  24.110  0.00  0.00    +0.184 A 
ATOM     11  N   UNL     1       0.134  -0.688  23.638  0.00  0.00    -0.108 NA
ATOM     12  N   UNL     1       0.714  -0.141  23.427  0.00  0.00    -0.023 NA
ATOM     13  N   UNL     1       0.517   0.584  23.768  0.00  0.00    -0.043 NA
ATOM     14  N   UNL     1      -0.186   0.485  24.190  0.00  0.00    -0.210 N 
BRANCH  10   7
ATOM      4  C   UNL     1      -2.444  -1.321  25.107  0.00  0.00    +0.048 A 
ATOM      5  C   UNL     1      -2.477  -0.998  24.348  0.00  0.00    +0.015 A 
ATOM      6  C   UNL     1      -1.803  -0.658  24.016  0.00  0.00    +0.004 A 
ATOM      7  C   UNL     1      -1.096  -0.641  24.442  0.00  0.00    +0.037 A 
ATOM      8  C   UNL     1      -1.064  -0.965  25.200  0.00  0.00    +0.004 A 
ATOM      9  C   UNL     1      -1.738  -1.305  25.532  0.00  0.00    +0.015 A 
BRANCH   4   2
ATOM      1  C   UNL     1      -3.624  -1.206  25.905  0.00  0.00    +0.112 C 
ATOM      2  N   UNL     1      -3.119  -1.662  25.440  0.00  0.00    -0.304 N 
ATOM      3  C   UNL     1      -3.287  -2.459  25.306  0.00  0.00    +0.112 C 
ENDBRANCH   4   2
ENDBRANCH  10   7
ENDBRANCH  15  14
BRANCH  19  23
ATOM     23  O   UNL     1      -2.136   3.358  25.026  0.00  0.00    -0.432 OA
BRANCH  23  24
ATOM     24  C   UNL     1      -2.957   3.418  24.978  0.00  0.00    +0.425 C 
ATOM     25  O   UNL     1      -3.308   3.754  24.311  0.00  0.00    -0.224 OA
ATOM     26  N   UNL     1      -3.428   3.143  25.597  0.00  0.00    -0.142 NA
BRANCH  26  27
ATOM     27  C   UNL     1      -4.250   3.204  25.549  0.00  0.00    +0.077 A 
ATOM     28  C   UNL     1      -4.704   2.535  25.391  0.00  0.00    +0.021 A 
ATOM     29  C   UNL     1      -5.525   2.595  25.343  0.00  0.00    +0.073 A 
ATOM     30  C   UNL     1      -5.892   3.326  25.454  0.00  0.00    +0.004 A 
ATOM     31  C   UNL     1      -5.437   3.996  25.612  0.00  0.00    +0.001 A 
ATOM     32  C   UNL     1      -4.616   3.935  25.660  0.00  0.00    +0.017 A 
BRANCH  29  33
ATOM     33  C   UNL     1      -5.980   1.925  25.185  0.00  0.00    +0.419 C 
ATOM     34  F   UNL     1      -6.434   1.256  25.026  0.00  0.00    -0.166 F 
ATOM     35  F   UNL     1      -5.898   2.061  24.375  0.00  0.00    -0.166 F 
ATOM     36  F   UNL     1      -6.062   1.789  25.994  0.00  0.00    -0.166 F 
ENDBRANCH  29  33
ENDBRANCH  26  27
ENDBRANCH  23  24
ENDBRANCH  19  23
TORSDOF 7
ENDMDL
MODEL 5
REMARK VINA RESULT:     -11.3      1.597      3.126
REMARK  Name = 
REMARK  7 active torsions:
REMARK  status: ('A' for Active; 'I' for Inactive)
REMARK    1  A    between atoms: N_2  and  C_4
REMARK    2  A    between atoms: C_7  and  C_10
REMARK    3  A    between atoms: N_14  and  C_15
REMARK    4  A    between atoms: C_19  and  O_23
REMARK    5  A    between atoms: O_23  and  C_24
REMARK    6  A    between atoms: N_26  and  C_27
REMARK    7  A    between atoms: C_29  and  C_33
REMARK                            x       y       z     vdW  Elec       q    Type
REMARK                         _______ _______ _______ _____ _____    ______ ____
ROOT
ATOM     15  C   UNL     1      -2.385   3.496  25.416  0.00  0.00    +0.167 C 
ATOM     16  C   UNL     1      -2.348   3.008  26.080  0.00  0.00    +0.169 C 
ATOM     17  O   UNL     1      -2.933   2.432  26.005  0.00  0.00    -0.348 OA
ATOM     18  C   UNL     1      -3.332   2.563  25.296  0.00  0.00    +0.187 C 
ATOM     19  C   UNL     1      -3.940   2.289  24.810  0.00  0.00    +0.229 C 
ATOM     20  C   UNL     1      -3.977   2.777  24.146  0.00  0.00    +0.188 C 
ATOM     21  O   UNL     1      -3.392   3.353  24.221  0.00  0.00    -0.348 OA
ATOM     22  C   UNL     1      -2.993   3.221  24.931  0.00  0.00    +0.171 C 
ENDROOT
BRANCH  15  14
ATOM     10  C   UNL     1      -1.128   4.116  24.971  0.00  0.00    +0.184 A 
ATOM     11  N   UNL     1      -0.851   4.890  24.903  0.00  0.00    -0.108 NA
ATOM     12  N   UNL     1      -1.451   5.399  25.154  0.00  0.00    -0.023 NA
ATOM     13  N   UNL     1      -2.098   4.938  25.377  0.00  0.00    -0.043 NA
ATOM     14  N   UNL     1      -1.899   4.145  25.263  0.00  0.00    -0.210 N 
BRANCH  10   7
ATOM      4  C   UNL     1       0.132   2.066  24.396  0.00  0.00    +0.048 A 
ATOM      5  C   UNL     1      -0.255   2.491  23.804  0.00  0.00    +0.015 A 
ATOM      6  C   UNL     1      -0.675   3.175  23.996  0.00  0.00    +0.004 A 
ATOM      7  C   UNL     1      -0.708   3.432  24.779  0.00  0.00    +0.037 A 
ATOM      8  C   UNL     1      -0.321   3.007  25.370  0.00  0.00    +0.004 A 
ATOM      9  C   UNL     1       0.099   2.323  25.178  0.00  0.00    +0.015 A 
BRANCH   4   2
ATOM      1  C   UNL     1       1.321   1.438  23.910  0.00  0.00    +0.112 C 
ATOM      2  N   UNL     1       0.553   1.381  24.204  0.00  0.00    -0.304 N 
ATOM      3  C   UNL     1       0.203   0.641  24.307  0.00  0.00    +0.112 C 
ENDBRANCH   4   2
ENDBRANCH  10   7
ENDBRANCH  15  14
BRANCH  19  23
ATOM     23  O   UNL     1      -4.426   1.640  24.963  0.00  0.00    -0.432 OA
BRANCH  23  24
ATOM     24  C   UNL     1      -4.254   0.907  24.625  0.00  0.00    +0.425 C 
ATOM     25  O   UNL     1      -4.030   0.860  23.833  0.00  0.00    -0.224 OA
ATOM     26  N   UNL     1      -4.305   0.221  25.080  0.00  0.00    -0.142 NA
BRANCH  26  27
ATOM     27  C   UNL     1      -4.132  -0.512  24.743  0.00  0.00    +0.077 A 
ATOM     28  C   UNL     1      -3.456  -0.924  24.974  0.00  0.00    +0.021 A 
ATOM     29  C   UNL     1      -3.284  -1.656  24.638  0.00  0.00    +0.073 A 
ATOM     30  C   UNL     1      -3.788  -1.978  24.069  0.00  0.00    +0.004 A 
ATOM     31  C   UNL     1      -4.465  -1.566  23.837  0.00  0.00    +0.001 A 
ATOM     32  C   UNL     1      -4.636  -0.833  24.175  0.00  0.00    +0.017 A 
BRANCH  29  33
ATOM     33  C   UNL     1      -2.607  -2.068  24.869  0.00  0.00    +0.419 C 
ATOM     34  F   UNL     1      -1.932  -2.480  25.101  0.00  0.00    -0.166 F 
ATOM     35  F   UNL     1      -3.052  -2.485  25.426  0.00  0.00    -0.166 F 
ATOM     36  F   UNL     1      -2.163  -1.652  24.313  0.00  0.00    -0.166 F 
ENDBRANCH  29  33
ENDBRANCH  26  27
ENDBRANCH  23  24
ENDBRANCH  19  23
TORSDOF 7
ENDMDL
MODEL 6
REMARK VINA RESULT:     -10.7      2.447      5.331
REMARK  Name = 
REMARK  7 active torsions:
REMARK  status: ('A' for Active; 'I' for Inactive)
REMARK    1  A    between atoms: N_2  and  C_4
REMARK    2  A    between atoms: C_7  and  C_10
REMARK    3  A    between atoms: N_14  and  C_15
REMARK    4  A    between atoms: C_19  and  O_23
REMARK    5  A    between atoms: O_23  and  C_24
REMARK    6  A    between atoms: N_26  and  C_27
REMARK    7  A    between atoms: C_29  and  C_33
REMARK                            x       y       z     vdW  Elec       q    Type
REMARK                         _______ _______ _______ _____ _____    ______ ____
ROOT
ATOM     15  C   UNL     1      -2.962  -1.216  25.082  0.00  0.00    +0.167 C 
ATOM     16  C   UNL     1      -3.076  -1.046  25.880  0.00  0.00    +0.169 C 
ATOM     17  O   UNL     1      -3.724  -0.539  25.942  0.00  0.00    -0.348 OA
ATOM     18  C   UNL     1      -4.011  -0.397  25.182  0.00  0.00    +0.187 C 
ATOM     19  C   UNL     1      -4.588   0.004  24.750  0.00  0.00    +0.229 C 
ATOM     20  C   UNL     1      -4.473  -0.167  23.951  0.00  0.00    +0.188 C 
ATOM     21  O   UNL     1      -3.825  -0.673  23.889  0.00  0.00    -0.348 OA
ATOM     22  C   UNL     1      -3.539  -0.816  24.650  0.00  0.00    +0.171 C 
ENDROOT
BRANCH  15  14
ATOM     10  C   UNL     1      -1.589  -1.488  24.633  0.00  0.00    +0.184 A 
ATOM     11  N   UNL     1      -1.196  -2.142  24.318  0.00  0.00    -0.108 NA
ATOM     12  N   UNL     1      -1.739  -2.762  24.260  0.00  0.00    -0.023 NA
ATOM     13  N   UNL     1      -2.466  -2.490  24.539  0.00  0.00    -0.043 NA
ATOM     14  N   UNL     1      -2.373  -1.703  24.769  0.00  0.00    -0.210 N 
BRANCH  10   7
ATOM      4  C   UNL     1      -0.588   0.728  25.086  0.00  0.00    +0.048 A 
ATOM      5  C   UNL     1      -0.698   0.192  25.704  0.00  0.00    +0.015 A 
ATOM      6  C   UNL     1      -1.032  -0.547  25.552  0.00  0.00    +0.004 A 
ATOM      7  C   UNL     1      -1.255  -0.749  24.784  0.00  0.00    +0.037 A 
ATOM      8  C   UNL     1      -1.145  -0.213  24.168  0.00  0.00    +0.004 A 
ATOM      9  C   UNL     1      -0.811   0.526  24.319  0.00  0.00    +0.015 A 
BRANCH   4   2
ATOM      1  C   UNL     1      -0.507   1.910  25.886  0.00  0.00    +0.112 C 
ATOM      2  N   UNL     1      -0.253   1.468  25.238  0.00  0.00    -0.304 N 
ATOM      3  C   UNL     1       0.334   1.765  24.740  0.00  0.00    +0.112 C 
ENDBRANCH   4   2
ENDBRANCH  10   7
ENDBRANCH  15  14
BRANCH  19  23
ATOM     23  O   UNL     1      -5.176   0.490  25.062  0.00  0.00    -0.432 OA
BRANCH  23  24
ATOM     24  C   UNL     1      -5.113   1.310  24.995  0.00  0.00    +0.425 C 
ATOM     25  O   UNL     1      -5.196   1.671  24.258  0.00  0.00    -0.224 OA
ATOM     26  N   UNL     1      -4.967   1.769  25.665  0.00  0.00    -0.142 NA
BRANCH  26  27
ATOM     27  C   UNL     1      -4.904   2.589  25.598  0.00  0.00    +0.077 A 
ATOM     28  C   UNL     1      -4.161   2.948  25.610  0.00  0.00    +0.021 A 
ATOM     29  C   UNL     1      -4.098   3.767  25.543  0.00  0.00    +0.073 A 
ATOM     30  C   UNL     1      -4.778   4.229  25.464  0.00  0.00    +0.004 A 
ATOM     31  C   UNL     1      -5.521   3.870  25.452  0.00  0.00    +0.001 A 
ATOM     32  C   UNL     1      -5.583   3.050  25.519  0.00  0.00    +0.017 A 
BRANCH  29  33
ATOM     33  C   UNL     1      -3.355   4.126  25.555  0.00  0.00    +0.419 C 
ATOM     34  F   UNL     1      -2.613   4.485  25.568  0.00  0.00    -0.166 F 
ATOM     35  F   UNL     1      -3.381   4.153  26.380  0.00  0.00    -0.166 F 
ATOM     36  F   UNL     1      -3.328   4.099  24.732  0.00  0.00    -0.166 F 
ENDBRANCH  29  33
ENDBRANCH  26  27
ENDBRANCH  23  24
ENDBRANCH  19  23
TORSDOF 7
ENDMDL
