MODEL 1
REMARK VINA RESULT:     -10.6      0.000      0.000
REMARK  Name = 
REMARK  5 active torsions:
REMARK  status: ('A' for Active; 'I' for Inactive)
REMARK    1  A    between atoms: C_5  and  C_8
REMARK    2  A    between atoms: N_10  and  C_11
REMARK    3  A    between atoms: C_15  and  N_19
REMARK    4  A    between atoms: C_21  and  C_22
REMARK    5  A    between atoms: C_22  and  C_23
REMARK                            x       y       z     vdW  Elec       q    Type
REMARK                         _______ _______ _______ _____ _____    ______ ____
ROOT
ATOM     11  C   UNL     1       0.906   0.336  23.511  0.00  0.00    +0.155 C 
ATOM     12  C   UNL     1       0.494  -0.241  23.089  0.00  0.00    +0.166 C 
ATOM     13  O   UNL     1      -0.313  -0.115  23.207  0.00  0.00    -0.350 OA
ATOM     14  C   UNL     1      -0.400   0.540  23.701  0.00  0.00    +0.169 C 
ATOM     15  C   UNL     1      -0.951   1.023  24.079  0.00  0.00    +0.166 C 
ATOM     16  C   UNL     1      -0.539   1.600  24.500  0.00  0.00    +0.169 C 
ATOM     17  O   UNL     1       0.267   1.474  24.383  0.00  0.00    -0.350 OA
ATOM     18  C   UNL     1       0.354   0.818  23.888  0.00  0.00    +0.167 C 
ENDROOT
BRANCH  15  19
ATOM     19  N   UNL     1      -1.772   0.943  24.042  0.00  0.00    -0.227 N 
ATOM     20  C   UNL     1      -2.236   0.471  24.535  0.00  0.00    +0.113 A 
ATOM     21  C   UNL     1      -3.023   0.557  24.303  0.00  0.00    +0.101 A 
ATOM     29  N   UNL     1      -3.045   1.081  23.667  0.00  0.00    -0.133 NA
ATOM     30  N   UNL     1      -2.272   1.319  23.505  0.00  0.00    -0.064 NA
BRANCH  21  22
ATOM     22  C   UNL     1      -3.674   0.184  24.647  0.00  0.00    +0.049 C 
BRANCH  22  23
ATOM     23  C   UNL     1      -3.769  -0.632  24.571  0.00  0.00    +0.006 C 
ATOM     24  C   UNL     1      -3.490  -1.137  25.160  0.00  0.00    +0.000 C 
ATOM     25  C   UNL     1      -3.586  -1.952  25.083  0.00  0.00    +0.000 C 
ATOM     26  C   UNL     1      -3.961  -2.263  24.418  0.00  0.00    +0.000 C 
ATOM     27  C   UNL     1      -4.241  -1.758  23.828  0.00  0.00    +0.000 C 
ATOM     28  C   UNL     1      -4.145  -0.942  23.905  0.00  0.00    +0.000 C 
ENDBRANCH  22  23
ENDBRANCH  21  22
ENDBRANCH  15  19
BRANCH  11  10
ATOM      8  C   UNL     1       2.196   0.145  22.926  0.00  0.00    +0.265 C 
ATOM      9  O   UNL     1       1.845  -0.207  22.267  0.00  0.00    -0.268 OA
ATOM     10  N   UNL     1       1.726   0.416  23.548  0.00  0.00    -0.198 NA
BRANCH   8   5
ATOM      1  C   UNL     1       5.477   0.465  23.074  0.00  0.00    +0.031 C 
ATOM      2  C   UNL     1       4.656   0.385  23.037  0.00  0.00    -0.022 A 
ATOM      3  C   UNL     1       4.195   1.002  22.742  0.00  0.00    -0.004 A 
ATOM      4  C   UNL     1       3.375   0.922  22.705  0.00  0.00    +0.004 A 
ATOM      5  C   UNL     1       3.016   0.225  22.963  0.00  0.00    +0.055 A 
ATOM      6  C   UNL     1       3.477  -0.392  23.259  0.00  0.00    +0.004 A 
ATOM      7  C   UNL     1       4.298  -0.312  23.296  0.00  0.00    -0.004 A 
ENDBRANCH   8   5
ENDBRANCH  11  10
TORSDOF 5
ENDMDL
MODEL 2
REMARK VINA RESULT:     -10.0      1.665      2.139
REMARK  Name = 
REMARK  5 active torsions:
REMARK  status: ('A' for Active; 'I' for Inactive)
REMARK    1  A    between atoms: C_5  and  C_8
REMARK    2  A    between atoms: N_10  and  C_11
REMARK    3  A    between atoms: C_15  and  N_19
REMARK    4  A    between atoms: C_21  and  C_22
REMARK    5  A    between atoms: C_22  and  C_23
REMARK                            x       y       z     vdW  Elec       q    Type
REMARK                         _______ _______ _______ _____ _____    ______ ____
ROOT
ATOM     11  C   UNL     1       0.941   0.565  23.493  0.00  0.00    +0.155 C 
ATOM     12  C   UNL     1       0.487   0.078  23.008  0.00  0.00    +0.166 C 
ATOM     13  O   UNL     1      -0.307   0.266  23.130  0.00  0.00    -0.350 OA
ATOM     14  C   UNL     1      -0.343   0.870  23.690  0.00  0.00    +0.169 C 
ATOM     15  C   UNL     1      -0.855   1.360  24.112  0.00  0.00    +0.166 C 
ATOM     16  C   UNL     1      -0.400   1.847  24.598  0.00  0.00    +0.169 C 
ATOM     17  O   UNL     1       0.393   1.659  24.476  0.00  0.00    -0.350 OA
ATOM     18  C   UNL     1       0.429   1.055  23.915  0.00  0.00    +0.167 C 
ENDROOT
BRANCH  15  19
ATOM     19  N   UNL     1      -1.679   1.361  24.058  0.00  0.00    -0.227 N 
ATOM     20  C   UNL     1      -2.146   1.986  23.789  0.00  0.00    +0.113 A 
ATOM     21  C   UNL     1      -2.935   1.749  23.828  0.00  0.00    +0.101 A 
ATOM     29  N   UNL     1      -2.956   0.979  24.121  0.00  0.00    -0.133 NA
ATOM     30  N   UNL     1      -2.179   0.739  24.264  0.00  0.00    -0.064 NA
BRANCH  21  22
ATOM     22  C   UNL     1      -3.589   2.204  23.612  0.00  0.00    +0.049 C 
BRANCH  22  23
ATOM     23  C   UNL     1      -4.072   2.535  24.193  0.00  0.00    +0.006 C 
ATOM     24  C   UNL     1      -4.719   2.113  24.481  0.00  0.00    +0.000 C 
ATOM     25  C   UNL     1      -5.201   2.444  25.062  0.00  0.00    +0.000 C 
ATOM     26  C   UNL     1      -5.037   3.198  25.355  0.00  0.00    +0.000 C 
ATOM     27  C   UNL     1      -4.389   3.620  25.066  0.00  0.00    +0.000 C 
ATOM     28  C   UNL     1      -3.907   3.289  24.485  0.00  0.00    +0.000 C 
ENDBRANCH  22  23
ENDBRANCH  21  22
ENDBRANCH  15  19
BRANCH  11  10
ATOM      8  C   UNL     1       2.219   0.257  22.930  0.00  0.00    +0.265 C 
ATOM      9  O   UNL     1       1.848  -0.049  22.259  0.00  0.00    -0.268 OA
ATOM     10  N   UNL     1       1.765   0.564  23.547  0.00  0.00    -0.198 NA
BRANCH   8   5
ATOM      1  C   UNL     1       5.511   0.249  23.146  0.00  0.00    +0.031 C 
ATOM      2  C   UNL     1       4.688   0.251  23.092  0.00  0.00    -0.022 A 
ATOM      3  C   UNL     1       4.295   0.916  22.802  0.00  0.00    -0.004 A 
ATOM      4  C   UNL     1       3.472   0.918  22.749  0.00  0.00    +0.004 A 
ATOM      5  C   UNL     1       3.041   0.255  22.984  0.00  0.00    +0.055 A 
ATOM      6  C   UNL     1       3.434  -0.410  23.274  0.00  0.00    +0.004 A 
ATOM      7  C   UNL     1       4.258  -0.412  23.328  0.00  0.00    -0.004 A 
ENDBRANCH   8   5
ENDBRANCH  11  10
TORSDOF 5
ENDMDL
MODEL 3
REMARK VINA RESULT:     -10.0      4.037      6.180
REMARK  Name = 
REMARK  5 active torsions:
REMARK  status: ('A' for Active; 'I' for Inactive)
REMARK    1  A    between atoms: C_5  and  C_8
REMARK    2  A    between atoms: N_10  and  C_11
REMARK    3  A    between atoms: C_15  and  N_19
REMARK    4  A    between atoms: C_21  and  C_22
REMARK    5  A    between atoms: C_22  and  C_23
REMARK                            x       y       z     vdW  Elec       q    Type
REMARK                         _______ _______ _______ _____ _____    ______ ____
ROOT
ATOM     11  C   UNL     1      -3.691   0.461  24.315  0.00  0.00    +0.155 C 
ATOM     12  C   UNL     1      -3.010   0.812  24.009  0.00  0.00    +0.166 C 
ATOM     13  O   UNL     1      -3.015   1.607  24.226  0.00  0.00    -0.350 OA
ATOM     14  C   UNL     1      -3.698   1.749  24.664  0.00  0.00    +0.169 C 
ATOM     15  C   UNL     1      -4.124   2.327  25.070  0.00  0.00    +0.166 C 
ATOM     16  C   UNL     1      -4.805   1.976  25.375  0.00  0.00    +0.169 C 
ATOM     17  O   UNL     1      -4.800   1.180  25.159  0.00  0.00    -0.350 OA
ATOM     18  C   UNL     1      -4.116   1.039  24.720  0.00  0.00    +0.167 C 
ENDROOT
BRANCH  15  19
ATOM     19  N   UNL     1      -3.907   3.119  25.155  0.00  0.00    -0.227 N 
ATOM     20  C   UNL     1      -3.246   3.400  25.561  0.00  0.00    +0.113 A 
ATOM     21  C   UNL     1      -3.243   4.223  25.505  0.00  0.00    +0.101 A 
ATOM     29  N   UNL     1      -3.902   4.450  25.065  0.00  0.00    -0.133 NA
ATOM     30  N   UNL     1      -4.312   3.768  24.848  0.00  0.00    -0.064 NA
BRANCH  21  22
ATOM     22  C   UNL     1      -2.680   4.729  25.833  0.00  0.00    +0.049 C 
BRANCH  22  23
ATOM     23  C   UNL     1      -1.946   4.821  25.468  0.00  0.00    +0.006 C 
ATOM     24  C   UNL     1      -1.776   5.514  25.054  0.00  0.00    +0.000 C 
ATOM     25  C   UNL     1      -1.042   5.606  24.689  0.00  0.00    +0.000 C 
ATOM     26  C   UNL     1      -0.478   5.006  24.738  0.00  0.00    +0.000 C 
ATOM     27  C   UNL     1      -0.649   4.313  25.152  0.00  0.00    +0.000 C 
ATOM     28  C   UNL     1      -1.383   4.221  25.517  0.00  0.00    +0.000 C 
ENDBRANCH  22  23
ENDBRANCH  21  22
ENDBRANCH  15  19
BRANCH  11  10
ATOM      8  C   UNL     1      -3.348  -0.927  24.339  0.00  0.00    +0.265 C 
ATOM      9  O   UNL     1      -2.570  -0.730  24.534  0.00  0.00    -0.268 OA
ATOM     10  N   UNL     1      -3.908  -0.331  24.230  0.00  0.00    -0.198 NA
BRANCH   8   5
ATOM      1  C   UNL     1      -4.216  -4.092  24.000  0.00  0.00    +0.031 C 
ATOM      2  C   UNL     1      -3.999  -3.301  24.085  0.00  0.00    -0.022 A 
ATOM      3  C   UNL     1      -3.399  -3.092  24.611  0.00  0.00    -0.004 A 
ATOM      4  C   UNL     1      -3.182  -2.301  24.696  0.00  0.00    +0.004 A 
ATOM      5  C   UNL     1      -3.565  -1.718  24.255  0.00  0.00    +0.055 A 
ATOM      6  C   UNL     1      -4.165  -1.927  23.729  0.00  0.00    +0.004 A 
ATOM      7  C   UNL     1      -4.382  -2.719  23.644  0.00  0.00    -0.004 A 
ENDBRANCH   8   5
ENDBRANCH  11  10
TORSDOF 5
ENDMDL
MODEL 4
REMARK VINA RESULT:      -9.4      2.222      2.983
REMARK  Name = 
REMARK  5 active torsions:
REMARK  status: ('A' for Active; 'I' for Inactive)
REMARK    1  A    between atoms: C_5  and  C_8
REMARK    2  A    between atoms: N_10  and  C_11
REMARK    3  A    between atoms: C_15  and  N_19
REMARK    4  A    between atoms: C_21  and  C_22
REMARK    5  A    between atoms: C_22  and  C_23
REMARK                            x       y       z     vdW  Elec       q    Type
REMARK                         _______ _______ _______ _____ _____    ______ ____
ROOT
ATOM     11  C   UNL     1      -0.291   1.765  24.377  0.00  0.00    +0.155 C 
ATOM     12  C   UNL     1      -0.847   1.240  24.685  0.00  0.00    +0.166 C 
ATOM     13  O   UNL     1      -1.493   1.681  24.949  0.00  0.00    -0.350 OA
ATOM     14  C   UNL     1      -1.336   2.477  24.804  0.00  0.00    +0.169 C 
ATOM     15  C   UNL     1      -1.636   3.241  24.877  0.00  0.00    +0.166 C 
ATOM     16  C   UNL     1      -1.080   3.766  24.569  0.00  0.00    +0.169 C 
ATOM     17  O   UNL     1      -0.434   3.326  24.305  0.00  0.00    -0.350 OA
ATOM     18  C   UNL     1      -0.592   2.529  24.450  0.00  0.00    +0.167 C 
ENDROOT
BRANCH  15  19
ATOM     19  N   UNL     1      -2.367   3.446  25.202  0.00  0.00    -0.227 N 
ATOM     20  C   UNL     1      -3.095   3.419  24.814  0.00  0.00    +0.113 A 
ATOM     21  C   UNL     1      -3.675   3.669  25.345  0.00  0.00    +0.101 A 
ATOM     29  N   UNL     1      -3.307   3.850  26.060  0.00  0.00    -0.133 NA
ATOM     30  N   UNL     1      -2.498   3.712  25.972  0.00  0.00    -0.064 NA
BRANCH  21  22
ATOM     22  C   UNL     1      -4.483   3.728  25.187  0.00  0.00    +0.049 C 
BRANCH  22  23
ATOM     23  C   UNL     1      -4.970   3.067  25.272  0.00  0.00    +0.006 C 
ATOM     24  C   UNL     1      -5.388   2.951  25.972  0.00  0.00    +0.000 C 
ATOM     25  C   UNL     1      -5.874   2.290  26.057  0.00  0.00    +0.000 C 
ATOM     26  C   UNL     1      -5.942   1.745  25.441  0.00  0.00    +0.000 C 
ATOM     27  C   UNL     1      -5.522   1.862  24.740  0.00  0.00    +0.000 C 
ATOM     28  C   UNL     1      -5.036   2.523  24.655  0.00  0.00    +0.000 C 
ENDBRANCH  22  23
ENDBRANCH  21  22
ENDBRANCH  15  19
BRANCH  11  10
ATOM      8  C   UNL     1       0.515   0.870  23.607  0.00  0.00    +0.265 C 
ATOM      9  O   UNL     1      -0.141   0.382  23.488  0.00  0.00    -0.268 OA
ATOM     10  N   UNL     1       0.440   1.561  24.052  0.00  0.00    -0.198 NA
BRANCH   8   5
ATOM      1  C   UNL     1       3.436   0.053  22.307  0.00  0.00    +0.031 C 
ATOM      2  C   UNL     1       2.705   0.257  22.632  0.00  0.00    -0.022 A 
ATOM      3  C   UNL     1       2.032  -0.178  22.438  0.00  0.00    -0.004 A 
ATOM      4  C   UNL     1       1.302   0.026  22.763  0.00  0.00    +0.004 A 
ATOM      5  C   UNL     1       1.245   0.665  23.282  0.00  0.00    +0.055 A 
ATOM      6  C   UNL     1       1.919   1.100  23.476  0.00  0.00    +0.004 A 
ATOM      7  C   UNL     1       2.649   0.896  23.151  0.00  0.00    -0.004 A 
ENDBRANCH   8   5
ENDBRANCH  11  10
TORSDOF 5
ENDMDL
MODEL 5
REMARK VINA RESULT:      -9.4      1.683      6.612
REMARK  Name = 
REMARK  5 active torsions:
REMARK  status: ('A' for Active; 'I' for Inactive)
REMARK    1  A    between atoms: C_5  and  C_8
REMARK    2  A    between atoms: N_10  and  C_11
REMARK    3  A    between atoms: C_15  and  N_19
REMARK    4  A    between atoms: C_21  and  C_22
REMARK    5  A    between atoms: C_22  and  C_23
REMARK                            x       y       z     vdW  Elec       q    Type
REMARK                         _______ _______ _______ _____ _____    ______ ____
ROOT
ATOM     11  C   UNL     1      -1.881   1.704  24.327  0.00  0.00    +0.155 C 
ATOM     12  C   UNL     1      -1.550   2.354  23.943  0.00  0.00    +0.166 C 
ATOM     13  O   UNL     1      -0.772   2.163  23.746  0.00  0.00    -0.350 OA
ATOM     14  C   UNL     1      -0.622   1.396  24.008  0.00  0.00    +0.169 C 
ATOM     15  C   UNL     1      -0.050   0.804  24.049  0.00  0.00    +0.166 C 
ATOM     16  C   UNL     1      -0.381   0.154  24.433  0.00  0.00    +0.169 C 
ATOM     17  O   UNL     1      -1.159   0.344  24.630  0.00  0.00    -0.350 OA
ATOM     18  C   UNL     1      -1.308   1.112  24.367  0.00  0.00    +0.167 C 
ENDROOT
BRANCH  15  19
ATOM     19  N   UNL     1       0.720   0.853  23.756  0.00  0.00    -0.227 N 
ATOM     20  C   UNL     1       1.075   0.323  23.232  0.00  0.00    +0.113 A 
ATOM     21  C   UNL     1       1.845   0.584  23.088  0.00  0.00    +0.101 A 
ATOM     29  N   UNL     1       1.965   1.274  23.522  0.00  0.00    -0.133 NA
ATOM     30  N   UNL     1       1.270   1.441  23.935  0.00  0.00    -0.064 NA
BRANCH  21  22
ATOM     22  C   UNL     1       2.397   0.217  22.596  0.00  0.00    +0.049 C 
BRANCH  22  23
ATOM     23  C   UNL     1       3.197   0.230  22.793  0.00  0.00    +0.006 C 
ATOM     24  C   UNL     1       3.668   0.867  22.563  0.00  0.00    +0.000 C 
ATOM     25  C   UNL     1       4.469   0.880  22.760  0.00  0.00    +0.000 C 
ATOM     26  C   UNL     1       4.799   0.256  23.187  0.00  0.00    +0.000 C 
ATOM     27  C   UNL     1       4.328  -0.382  23.416  0.00  0.00    +0.000 C 
ATOM     28  C   UNL     1       3.527  -0.394  23.219  0.00  0.00    +0.000 C 
ENDBRANCH  22  23
ENDBRANCH  21  22
ENDBRANCH  15  19
BRANCH  11  10
ATOM      8  C   UNL     1      -3.258   2.083  24.261  0.00  0.00    +0.265 C 
ATOM      9  O   UNL     1      -3.094   2.561  23.608  0.00  0.00    -0.268 OA
ATOM     10  N   UNL     1      -2.651   1.654  24.620  0.00  0.00    -0.198 NA
BRANCH   8   5
ATOM      1  C   UNL     1      -6.337   1.887  25.431  0.00  0.00    +0.031 C 
ATOM      2  C   UNL     1      -5.566   1.936  25.138  0.00  0.00    -0.022 A 
ATOM      3  C   UNL     1      -5.198   1.264  24.832  0.00  0.00    -0.004 A 
ATOM      4  C   UNL     1      -4.429   1.313  24.540  0.00  0.00    +0.004 A 
ATOM      5  C   UNL     1      -4.027   2.034  24.553  0.00  0.00    +0.055 A 
ATOM      6  C   UNL     1      -4.395   2.706  24.860  0.00  0.00    +0.004 A 
ATOM      7  C   UNL     1      -5.165   2.657  25.152  0.00  0.00    -0.004 A 
ENDBRANCH   8   5
ENDBRANCH  11  10
TORSDOF 5
ENDMDL
MODEL 6
REMARK VINA RESULT:      -9.4      1.655      6.461
REMARK  Name = 
REMARK  5 active torsions:
REMARK  status: ('A' for Active; 'I' for Inactive)
REMARK    1  A    between atoms: C_5  and  C_8
REMARK    2  A    between atoms: N_10  and  C_11
REMARK    3  A    between atoms: C_15  and  N_19
REMARK    4  A    between atoms: C_21  and  C_22
REMARK    5  A    between atoms: C_22  and  C_23
REMARK                            x       y       z     vdW  Elec       q    Type
REMARK                         _______ _______ _______ _____ _____    ______ ____
ROOT
ATOM     11  C   UNL     1      -2.014   1.137  24.352  0.00  0.00    +0.155 C 
ATOM     12  C   UNL     1      -2.114   0.409  23.976  0.00  0.00    +0.166 C 
ATOM     13  O   UNL     1      -1.372   0.146  23.732  0.00  0.00    -0.350 OA
ATOM     14  C   UNL     1      -0.814   0.709  23.956  0.00  0.00    +0.169 C 
ATOM     15  C   UNL     1      -0.010   0.895  23.944  0.00  0.00    +0.166 C 
ATOM     16  C   UNL     1       0.090   1.622  24.320  0.00  0.00    +0.169 C 
ATOM     17  O   UNL     1      -0.652   1.886  24.564  0.00  0.00    -0.350 OA
ATOM     18  C   UNL     1      -1.211   1.322  24.340  0.00  0.00    +0.167 C 
ENDROOT
BRANCH  15  19
ATOM     19  N   UNL     1       0.589   0.434  23.614  0.00  0.00    -0.227 N 
ATOM     20  C   UNL     1       1.149   0.687  23.063  0.00  0.00    +0.113 A 
ATOM     21  C   UNL     1       1.639   0.048  22.885  0.00  0.00    +0.101 A 
ATOM     29  N   UNL     1       1.383  -0.600  23.325  0.00  0.00    -0.133 NA
ATOM     30  N   UNL     1       0.734  -0.362  23.776  0.00  0.00    -0.064 NA
BRANCH  21  22
ATOM     22  C   UNL     1       2.275   0.056  22.359  0.00  0.00    +0.049 C 
BRANCH  22  23
ATOM     23  C   UNL     1       3.039   0.194  22.637  0.00  0.00    +0.006 C 
ATOM     24  C   UNL     1       3.481  -0.426  22.951  0.00  0.00    +0.000 C 
ATOM     25  C   UNL     1       4.245  -0.288  23.230  0.00  0.00    +0.000 C 
ATOM     26  C   UNL     1       4.567   0.470  23.193  0.00  0.00    +0.000 C 
ATOM     27  C   UNL     1       4.125   1.091  22.878  0.00  0.00    +0.000 C 
ATOM     28  C   UNL     1       3.360   0.953  22.600  0.00  0.00    +0.000 C 
ENDBRANCH  22  23
ENDBRANCH  21  22
ENDBRANCH  15  19
BRANCH  11  10
ATOM      8  C   UNL     1      -3.352   1.639  24.317  0.00  0.00    +0.265 C 
ATOM      9  O   UNL     1      -3.491   1.218  23.621  0.00  0.00    -0.268 OA
ATOM     10  N   UNL     1      -2.614   1.598  24.683  0.00  0.00    -0.198 NA
BRANCH   8   5
ATOM      1  C   UNL     1      -5.749   3.483  25.638  0.00  0.00    +0.031 C 
ATOM      2  C   UNL     1      -5.149   3.022  25.307  0.00  0.00    -0.022 A 
ATOM      3  C   UNL     1      -4.517   3.383  24.920  0.00  0.00    -0.004 A 
ATOM      4  C   UNL     1      -3.918   2.922  24.590  0.00  0.00    +0.004 A 
ATOM      5  C   UNL     1      -3.951   2.100  24.647  0.00  0.00    +0.055 A 
ATOM      6  C   UNL     1      -4.583   1.738  25.034  0.00  0.00    +0.004 A 
ATOM      7  C   UNL     1      -5.183   2.200  25.365  0.00  0.00    -0.004 A 
ENDBRANCH   8   5
ENDBRANCH  11  10
TORSDOF 5
ENDMDL
