MODEL 1
REMARK VINA RESULT:     -10.8      0.000      0.000
REMARK  Name = 
REMARK  6 active torsions:
REMARK  status: ('A' for Active; 'I' for Inactive)
REMARK    1  A    between atoms: C_2  and  C_5
REMARK    2  A    between atoms: C_7  and  C_8
REMARK    3  A    between atoms: C_8  and  C_9
REMARK    4  A    between atoms: C_9  and  N_13
REMARK    5  A    between atoms: N_13  and  C_14
REMARK    6  A    between atoms: C_14  and  C_15
REMARK                            x       y       z     vdW  Elec       q    Type
REMARK                         _______ _______ _______ _____ _____    ______ ____
ROOT
ATOM      9  C   UNL     1      -4.587   1.872  24.767  0.00  0.00    +0.120 C 
ATOM     10  C   UNL     1      -5.269   1.599  25.143  0.00  0.00    +0.161 C 
ATOM     11  O   UNL     1      -5.636   2.324  25.003  0.00  0.00    -0.351 OA
ATOM     12  C   UNL     1      -4.955   2.597  24.627  0.00  0.00    +0.161 C 
ENDROOT
BRANCH   9   8
ATOM      8  C   UNL     1      -3.905   2.145  24.391  0.00  0.00    +0.070 C 
BRANCH   8   7
ATOM      5  C   UNL     1      -2.347   3.433  25.078  0.00  0.00    +0.181 A 
ATOM      6  C   UNL     1      -2.656   2.909  24.521  0.00  0.00    +0.056 A 
ATOM      7  C   UNL     1      -3.400   2.669  24.781  0.00  0.00    +0.102 A 
ATOM     22  N   UNL     1      -3.553   3.044  25.499  0.00  0.00    -0.082 NA
ATOM     23  O   UNL     1      -2.902   3.516  25.683  0.00  0.00    -0.356 OA
BRANCH   5   2
ATOM      1  C   UNL     1      -0.879   4.181  24.999  0.00  0.00    +0.041 C 
ATOM      2  C   UNL     1      -1.613   3.807  25.039  0.00  0.00    +0.180 C 
ATOM      3  C   UNL     1      -1.945   4.493  25.355  0.00  0.00    +0.041 C 
ATOM      4  O   UNL     1      -1.281   3.121  24.723  0.00  0.00    -0.218 OA
ENDBRANCH   5   2
ENDBRANCH   8   7
ENDBRANCH   9   8
BRANCH   9  13
ATOM     13  N   UNL     1      -4.219   1.147  24.907  0.00  0.00    -0.211 NA
BRANCH  13  14
ATOM     14  C   UNL     1      -4.626   0.444  24.759  0.00  0.00    +0.115 C 
BRANCH  14  15
ATOM     15  C   UNL     1      -4.229  -0.278  24.804  0.00  0.00    -0.005 A 
ATOM     16  C   UNL     1      -4.185  -0.766  24.139  0.00  0.00    -0.002 A 
ATOM     17  C   UNL     1      -3.789  -1.488  24.183  0.00  0.00    +0.011 A 
ATOM     18  C   UNL     1      -3.437  -1.723  24.892  0.00  0.00    +0.058 A 
ATOM     19 CL   UNL     1      -3.040  -2.446  24.937  0.00  0.00    -0.082 Cl
ATOM     20  C   UNL     1      -3.481  -1.235  25.557  0.00  0.00    +0.011 A 
ATOM     21  C   UNL     1      -3.878  -0.513  25.511  0.00  0.00    -0.002 A 
ENDBRANCH  14  15
ENDBRANCH  13  14
ENDBRANCH   9  13
TORSDOF 6
ENDMDL
MODEL 2
REMARK VINA RESULT:     -10.4      2.087      4.335
REMARK  Name = 
REMARK  6 active torsions:
REMARK  status: ('A' for Active; 'I' for Inactive)
REMARK    1  A    between atoms: C_2  and  C_5
REMARK    2  A    between atoms: C_7  and  C_8
REMARK    3  A    between atoms: C_8  and  C_9
REMARK    4  A    between atoms: C_9  and  N_13
REMARK    5  A    between atoms: N_13  and  C_14
REMARK    6  A    between atoms: C_14  and  C_15
REMARK                            x       y       z     vdW  Elec       q    Type
REMARK                         _______ _______ _______ _____ _____    ______ ____
ROOT
ATOM      9  C   UNL     1      -5.024   1.957  25.036  0.00  0.00    +0.120 C 
ATOM     10  C   UNL     1      -5.408   2.478  25.548  0.00  0.00    +0.161 C 
ATOM     11  O   UNL     1      -6.121   2.085  25.413  0.00  0.00    -0.351 OA
ATOM     12  C   UNL     1      -5.737   1.564  24.902  0.00  0.00    +0.161 C 
ENDROOT
BRANCH   9   8
ATOM      8  C   UNL     1      -4.640   1.436  24.525  0.00  0.00    +0.070 C 
BRANCH   8   7
ATOM      5  C   UNL     1      -4.084  -0.610  24.777  0.00  0.00    +0.181 A 
ATOM      6  C   UNL     1      -4.215   0.047  24.296  0.00  0.00    +0.056 A 
ATOM      7  C   UNL     1      -4.452   0.673  24.778  0.00  0.00    +0.102 A 
ATOM     22  N   UNL     1      -4.467   0.404  25.557  0.00  0.00    -0.082 NA
ATOM     23  O   UNL     1      -4.240  -0.389  25.557  0.00  0.00    -0.356 OA
BRANCH   5   2
ATOM      1  C   UNL     1      -3.597  -2.102  24.270  0.00  0.00    +0.041 C 
ATOM      2  C   UNL     1      -3.840  -1.356  24.524  0.00  0.00    +0.180 C 
ATOM      3  C   UNL     1      -3.297  -1.390  25.144  0.00  0.00    +0.041 C 
ATOM      4  O   UNL     1      -4.383  -1.322  23.904  0.00  0.00    -0.218 OA
ENDBRANCH   5   2
ENDBRANCH   8   7
ENDBRANCH   9   8
BRANCH   9  13
ATOM     13  N   UNL     1      -4.311   2.351  25.171  0.00  0.00    -0.211 NA
BRANCH  13  14
ATOM     14  C   UNL     1      -4.278   3.173  25.113  0.00  0.00    +0.115 C 
BRANCH  14  15
ATOM     15  C   UNL     1      -3.553   3.562  25.178  0.00  0.00    -0.005 A 
ATOM     16  C   UNL     1      -3.124   3.748  24.498  0.00  0.00    -0.002 A 
ATOM     17  C   UNL     1      -2.399   4.136  24.562  0.00  0.00    +0.011 A 
ATOM     18  C   UNL     1      -2.103   4.338  25.306  0.00  0.00    +0.058 A 
ATOM     19 CL   UNL     1      -1.378   4.727  25.370  0.00  0.00    -0.082 Cl
ATOM     20  C   UNL     1      -2.533   4.152  25.985  0.00  0.00    +0.011 A 
ATOM     21  C   UNL     1      -3.258   3.763  25.920  0.00  0.00    -0.002 A 
ENDBRANCH  14  15
ENDBRANCH  13  14
ENDBRANCH   9  13
TORSDOF 6
ENDMDL
MODEL 3
REMARK VINA RESULT:      -9.4      2.516      4.624
REMARK  Name = 
REMARK  6 active torsions:
REMARK  status: ('A' for Active; 'I' for Inactive)
REMARK    1  A    between atoms: C_2  and  C_5
REMARK    2  A    between atoms: C_7  and  C_8
REMARK    3  A    between atoms: C_8  and  C_9
REMARK    4  A    between atoms: C_9  and  N_13
REMARK    5  A    between atoms: N_13  and  C_14
REMARK    6  A    between atoms: C_14  and  C_15
REMARK                            x       y       z     vdW  Elec       q    Type
REMARK                         _______ _______ _______ _____ _____    ______ ____
ROOT
ATOM      9  C   UNL     1      -1.417   1.332  24.824  0.00  0.00    +0.120 C 
ATOM     10  C   UNL     1      -0.998   1.918  25.227  0.00  0.00    +0.161 C 
ATOM     11  O   UNL     1      -0.290   1.536  25.045  0.00  0.00    -0.351 OA
ATOM     12  C   UNL     1      -0.709   0.951  24.642  0.00  0.00    +0.161 C 
ENDROOT
BRANCH   9   8
ATOM      8  C   UNL     1      -1.836   0.747  24.421  0.00  0.00    +0.070 C 
BRANCH   8   7
ATOM      5  C   UNL     1      -2.520  -1.175  25.053  0.00  0.00    +0.181 A 
ATOM      6  C   UNL     1      -2.493  -0.567  24.496  0.00  0.00    +0.056 A 
ATOM      7  C   UNL     1      -2.014   0.034  24.797  0.00  0.00    +0.102 A 
ATOM     22  N   UNL     1      -1.745  -0.202  25.540  0.00  0.00    -0.082 NA
ATOM     23  O   UNL     1      -2.057  -0.949  25.698  0.00  0.00    -0.356 OA
BRANCH   5   2
ATOM      1  C   UNL     1      -3.350  -2.592  24.903  0.00  0.00    +0.041 C 
ATOM      2  C   UNL     1      -2.935  -1.883  24.978  0.00  0.00    +0.180 C 
ATOM      3  C   UNL     1      -3.564  -1.561  25.403  0.00  0.00    +0.041 C 
ATOM      4  O   UNL     1      -2.306  -2.206  24.552  0.00  0.00    -0.218 OA
ENDBRANCH   5   2
ENDBRANCH   8   7
ENDBRANCH   9   8
BRANCH   9  13
ATOM     13  N   UNL     1      -2.126   1.714  25.006  0.00  0.00    -0.211 NA
BRANCH  13  14
ATOM     14  C   UNL     1      -2.247   2.494  24.765  0.00  0.00    +0.115 C 
BRANCH  14  15
ATOM     15  C   UNL     1      -2.971   2.862  24.910  0.00  0.00    -0.005 A 
ATOM     16  C   UNL     1      -3.569   2.830  24.342  0.00  0.00    -0.002 A 
ATOM     17  C   UNL     1      -4.294   3.198  24.486  0.00  0.00    +0.011 A 
ATOM     18  C   UNL     1      -4.420   3.597  25.197  0.00  0.00    +0.058 A 
ATOM     19 CL   UNL     1      -5.145   3.965  25.341  0.00  0.00    -0.082 Cl
ATOM     20  C   UNL     1      -3.821   3.629  25.764  0.00  0.00    +0.011 A 
ATOM     21  C   UNL     1      -3.097   3.261  25.620  0.00  0.00    -0.002 A 
ENDBRANCH  14  15
ENDBRANCH  13  14
ENDBRANCH   9  13
TORSDOF 6
ENDMDL
MODEL 4
REMARK VINA RESULT:      -9.3      1.763      2.796
REMARK  Name = 
REMARK  6 active torsions:
REMARK  status: ('A' for Active; 'I' for Inactive)
REMARK    1  A    between atoms: C_2  and  C_5
REMARK    2  A    between atoms: C_7  and  C_8
REMARK    3  A    between atoms: C_8  and  C_9
REMARK    4  A    between atoms: C_9  and  N_13
REMARK    5  A    between atoms: N_13  and  C_14
REMARK    6  A    between atoms: C_14  and  C_15
REMARK                            x       y       z     vdW  Elec       q    Type
REMARK                         _______ _______ _______ _____ _____    ______ ____
ROOT
ATOM      9  C   UNL     1      -1.183   0.706  24.990  0.00  0.00    +0.120 C 
ATOM     10  C   UNL     1      -0.570   0.229  24.708  0.00  0.00    +0.161 C 
ATOM     11  O   UNL     1      -0.030   0.834  24.858  0.00  0.00    -0.351 OA
ATOM     12  C   UNL     1      -0.641   1.310  25.140  0.00  0.00    +0.161 C 
ENDROOT
BRANCH   9   8
ATOM      8  C   UNL     1      -1.794   1.182  25.272  0.00  0.00    +0.070 C 
BRANCH   8   7
ATOM      5  C   UNL     1      -2.903   2.746  24.335  0.00  0.00    +0.181 A 
ATOM      6  C   UNL     1      -2.746   2.264  24.986  0.00  0.00    +0.056 A 
ATOM      7  C   UNL     1      -2.128   1.756  24.784  0.00  0.00    +0.102 A 
ATOM     22  N   UNL     1      -1.903   1.924  24.009  0.00  0.00    -0.082 NA
ATOM     23  O   UNL     1      -2.382   2.535  23.731  0.00  0.00    -0.356 OA
BRANCH   5   2
ATOM      1  C   UNL     1      -4.056   3.923  24.254  0.00  0.00    +0.041 C 
ATOM      2  C   UNL     1      -3.480   3.334  24.294  0.00  0.00    +0.180 C 
ATOM      3  C   UNL     1      -3.989   2.810  23.912  0.00  0.00    +0.041 C 
ATOM      4  O   UNL     1      -2.970   3.858  24.676  0.00  0.00    -0.218 OA
ENDBRANCH   5   2
ENDBRANCH   8   7
ENDBRANCH   9   8
BRANCH   9  13
ATOM     13  N   UNL     1      -1.723   0.100  24.840  0.00  0.00    -0.211 NA
BRANCH  13  14
ATOM     14  C   UNL     1      -1.658  -0.618  25.241  0.00  0.00    +0.115 C 
BRANCH  14  15
ATOM     15  C   UNL     1      -2.193  -1.227  25.084  0.00  0.00    -0.005 A 
ATOM     16  C   UNL     1      -2.922  -1.244  25.470  0.00  0.00    -0.002 A 
ATOM     17  C   UNL     1      -3.458  -1.852  25.314  0.00  0.00    +0.011 A 
ATOM     18  C   UNL     1      -3.264  -2.442  24.772  0.00  0.00    +0.058 A 
ATOM     19 CL   UNL     1      -3.799  -3.051  24.615  0.00  0.00    -0.082 Cl
ATOM     20  C   UNL     1      -2.534  -2.425  24.386  0.00  0.00    +0.011 A 
ATOM     21  C   UNL     1      -2.000  -1.817  24.543  0.00  0.00    -0.002 A 
ENDBRANCH  14  15
ENDBRANCH  13  14
ENDBRANCH   9  13
TORSDOF 6
ENDMDL
