MODEL 1
REMARK VINA RESULT:     -10.4      0.000      0.000
REMARK  Name = 
REMARK  8 active torsions:
REMARK  status: ('A' for Active; 'I' for Inactive)
REMARK    1  A    between atoms: O_2  and  C_3
REMARK    2  A    between atoms: C_6  and  N_7
REMARK    3  A    between atoms: N_7  and  C_8
REMARK    4  A    between atoms: C_8  and  C_9
REMARK    5  A    between atoms: C_13  and  C_14
REMARK    6  A    between atoms: C_14  and  C_15
REMARK    7  A    between atoms: C_18  and  C_20
REMARK    8  A    between atoms: C_27  and  C_28
REMARK                            x       y       z     vdW  Elec       q    Type
REMARK                         _______ _______ _______ _____ _____    ______ ____
ROOT
ATOM      9  C   UNL     1      -4.088   1.027  24.366  0.00  0.00    +0.043 C 
ATOM     10  C   UNL     1      -4.681   1.256  24.893  0.00  0.00    -0.033 C 
ATOM     11  C   UNL     1      -4.747   2.046  25.121  0.00  0.00    -0.048 C 
ATOM     12  C   UNL     1      -5.339   2.275  25.647  0.00  0.00    +0.026 C 
ATOM     13  C   UNL     1      -4.221   2.607  24.823  0.00  0.00    +0.027 C 
ATOM     26  C   UNL     1      -3.629   2.378  24.296  0.00  0.00    +0.005 C 
ATOM     27  C   UNL     1      -3.562   1.589  24.067  0.00  0.00    +0.006 C 
ENDROOT
BRANCH  27  28
ATOM     28  C   UNL     1      -2.969   1.360  23.541  0.00  0.00    +0.000 C 
ATOM     29  C   UNL     1      -3.097   1.415  22.727  0.00  0.00    +0.000 C 
ATOM     30  C   UNL     1      -2.250   1.076  23.827  0.00  0.00    +0.000 C 
ENDBRANCH  27  28
BRANCH   9   8
ATOM      8  C   UNL     1      -4.021   0.237  24.137  0.00  0.00    +0.117 C 
BRANCH   8   7
ATOM      7  N   UNL     1      -4.447  -0.346  24.536  0.00  0.00    -0.236 NA
BRANCH   7   6
ATOM      3  C   UNL     1      -3.697  -2.703  24.448  0.00  0.00    +0.225 A 
ATOM      4  C   UNL     1      -4.136  -2.387  23.826  0.00  0.00    +0.059 A 
ATOM      5  C   UNL     1      -4.386  -1.601  23.855  0.00  0.00    +0.022 A 
ATOM      6  C   UNL     1      -4.197  -1.132  24.506  0.00  0.00    +0.085 A 
ATOM     31  C   UNL     1      -3.758  -1.448  25.129  0.00  0.00    +0.118 A 
ATOM     32  N   UNL     1      -3.507  -2.233  25.101  0.00  0.00    -0.209 NA
BRANCH   3   2
ATOM      1  C   UNL     1      -2.672  -3.667  24.196  0.00  0.00    +0.254 C 
ATOM      2  O   UNL     1      -3.446  -3.488  24.420  0.00  0.00    -0.456 OA
ENDBRANCH   3   2
ENDBRANCH   7   6
ENDBRANCH   8   7
ENDBRANCH   9   8
BRANCH  13  14
ATOM     14  C   UNL     1      -4.287   3.397  25.051  0.00  0.00    +0.091 C 
BRANCH  14  15
ATOM     15  C   UNL     1      -3.629   3.796  25.349  0.00  0.00    +0.227 A 
ATOM     16  N   UNL     1      -3.479   3.955  26.145  0.00  0.00    -0.111 NA
ATOM     17  N   UNL     1      -2.763   4.363  26.193  0.00  0.00    -0.106 NA
ATOM     18  C   UNL     1      -2.472   4.457  25.426  0.00  0.00    +0.267 A 
ATOM     19  O   UNL     1      -3.007   4.106  24.906  0.00  0.00    -0.418 OA
BRANCH  18  20
ATOM     20  C   UNL     1      -1.769   4.834  25.217  0.00  0.00    +0.136 A 
ATOM     21  C   UNL     1      -1.694   5.618  24.971  0.00  0.00    +0.123 A 
ATOM     22  N   UNL     1      -0.896   5.763  24.819  0.00  0.00    -0.222 NA
ATOM     23  C   UNL     1      -0.477   5.069  24.972  0.00  0.00    +0.179 A 
ATOM     24  N   UNL     1      -1.017   4.494  25.218  0.00  0.00    -0.303 N 
ATOM     25  C   UNL     1      -0.836   3.718  25.429  0.00  0.00    +0.132 C 
ENDBRANCH  18  20
ENDBRANCH  14  15
ENDBRANCH  13  14
TORSDOF 8
ENDMDL
MODEL 2
REMARK VINA RESULT:      -9.1      3.250      5.096
REMARK  Name = 
REMARK  8 active torsions:
REMARK  status: ('A' for Active; 'I' for Inactive)
REMARK    1  A    between atoms: O_2  and  C_3
REMARK    2  A    between atoms: C_6  and  N_7
REMARK    3  A    between atoms: N_7  and  C_8
REMARK    4  A    between atoms: C_8  and  C_9
REMARK    5  A    between atoms: C_13  and  C_14
REMARK    6  A    between atoms: C_14  and  C_15
REMARK    7  A    between atoms: C_18  and  C_20
REMARK    8  A    between atoms: C_27  and  C_28
REMARK                            x       y       z     vdW  Elec       q    Type
REMARK                         _______ _______ _______ _____ _____    ______ ____
ROOT
ATOM      9  C   UNL     1      -0.680   0.102  24.185  0.00  0.00    +0.043 C 
ATOM     10  C   UNL     1      -0.924  -0.684  24.238  0.00  0.00    -0.033 C 
ATOM     11  C   UNL     1      -1.645  -0.869  24.594  0.00  0.00    -0.048 C 
ATOM     12  C   UNL     1      -1.889  -1.655  24.647  0.00  0.00    +0.026 C 
ATOM     13  C   UNL     1      -2.122  -0.268  24.897  0.00  0.00    +0.027 C 
ATOM     26  C   UNL     1      -1.877   0.518  24.844  0.00  0.00    +0.005 C 
ATOM     27  C   UNL     1      -1.157   0.704  24.489  0.00  0.00    +0.006 C 
ENDROOT
BRANCH  27  28
ATOM     28  C   UNL     1      -0.912   1.490  24.436  0.00  0.00    +0.000 C 
ATOM     29  C   UNL     1      -1.092   1.933  23.763  0.00  0.00    +0.000 C 
ATOM     30  C   UNL     1      -0.489   1.832  25.055  0.00  0.00    +0.000 C 
ENDBRANCH  27  28
BRANCH   9   8
ATOM      8  C   UNL     1       0.041   0.287  23.830  0.00  0.00    +0.117 C 
BRANCH   8   7
ATOM      7  N   UNL     1       0.473  -0.298  23.442  0.00  0.00    -0.236 NA
BRANCH   7   6
ATOM      3  C   UNL     1       2.636   0.262  22.375  0.00  0.00    +0.225 A 
ATOM      4  C   UNL     1       2.522   0.408  23.179  0.00  0.00    +0.059 A 
ATOM      5  C   UNL     1       1.801   0.221  23.534  0.00  0.00    +0.022 A 
ATOM      6  C   UNL     1       1.194  -0.112  23.087  0.00  0.00    +0.085 A 
ATOM     31  C   UNL     1       1.308  -0.258  22.283  0.00  0.00    +0.118 A 
ATOM     32  N   UNL     1       2.028  -0.072  21.927  0.00  0.00    -0.209 NA
BRANCH   3   2
ATOM      1  C   UNL     1       3.983   0.729  22.477  0.00  0.00    +0.254 C 
ATOM      2  O   UNL     1       3.356   0.448  22.019  0.00  0.00    -0.456 OA
ENDBRANCH   3   2
ENDBRANCH   7   6
ENDBRANCH   8   7
ENDBRANCH   9   8
BRANCH  13  14
ATOM     14  C   UNL     1      -2.843  -0.452  25.253  0.00  0.00    +0.091 C 
BRANCH  14  15
ATOM     15  C   UNL     1      -3.528  -0.053  25.026  0.00  0.00    +0.227 A 
ATOM     16  N   UNL     1      -3.992  -0.222  24.365  0.00  0.00    -0.111 NA
ATOM     17  N   UNL     1      -4.621   0.313  24.351  0.00  0.00    -0.106 NA
ATOM     18  C   UNL     1      -4.545   0.812  25.003  0.00  0.00    +0.267 A 
ATOM     19  O   UNL     1      -3.870   0.586  25.420  0.00  0.00    -0.418 OA
BRANCH  18  20
ATOM     20  C   UNL     1      -5.054   1.429  25.203  0.00  0.00    +0.136 A 
ATOM     21  C   UNL     1      -5.654   1.399  25.770  0.00  0.00    +0.123 A 
ATOM     22  N   UNL     1      -6.024   2.136  25.789  0.00  0.00    -0.222 NA
ATOM     23  C   UNL     1      -5.654   2.622  25.235  0.00  0.00    +0.179 A 
ATOM     24  N   UNL     1      -5.055   2.185  24.873  0.00  0.00    -0.303 N 
ATOM     25  C   UNL     1      -4.545   2.457  24.284  0.00  0.00    +0.132 C 
ENDBRANCH  18  20
ENDBRANCH  14  15
ENDBRANCH  13  14
TORSDOF 8
ENDMDL
MODEL 3
REMARK VINA RESULT:      -8.9      2.659      4.317
REMARK  Name = 
REMARK  8 active torsions:
REMARK  status: ('A' for Active; 'I' for Inactive)
REMARK    1  A    between atoms: O_2  and  C_3
REMARK    2  A    between atoms: C_6  and  N_7
REMARK    3  A    between atoms: N_7  and  C_8
REMARK    4  A    between atoms: C_8  and  C_9
REMARK    5  A    between atoms: C_13  and  C_14
REMARK    6  A    between atoms: C_14  and  C_15
REMARK    7  A    between atoms: C_18  and  C_20
REMARK    8  A    between atoms: C_27  and  C_28
REMARK                            x       y       z     vdW  Elec       q    Type
REMARK                         _______ _______ _______ _____ _____    ______ ____
ROOT
ATOM      9  C   UNL     1      -1.481   2.064  24.147  0.00  0.00    +0.043 C 
ATOM     10  C   UNL     1      -1.240   2.446  24.838  0.00  0.00    -0.033 C 
ATOM     11  C   UNL     1      -1.733   3.005  25.192  0.00  0.00    -0.048 C 
ATOM     12  C   UNL     1      -1.493   3.387  25.883  0.00  0.00    +0.026 C 
ATOM     13  C   UNL     1      -2.464   3.183  24.856  0.00  0.00    +0.027 C 
ATOM     26  C   UNL     1      -2.704   2.802  24.165  0.00  0.00    +0.005 C 
ATOM     27  C   UNL     1      -2.213   2.242  23.810  0.00  0.00    +0.006 C 
ENDROOT
BRANCH  27  28
ATOM     28  C   UNL     1      -2.453   1.861  23.119  0.00  0.00    +0.000 C 
ATOM     29  C   UNL     1      -2.832   1.129  23.163  0.00  0.00    +0.000 C 
ATOM     30  C   UNL     1      -2.315   2.211  22.386  0.00  0.00    +0.000 C 
ENDBRANCH  27  28
BRANCH   9   8
ATOM      8  C   UNL     1      -0.989   1.505  23.792  0.00  0.00    +0.117 C 
BRANCH   8   7
ATOM      7  N   UNL     1      -0.344   1.199  24.206  0.00  0.00    -0.236 NA
BRANCH   7   6
ATOM      3  C   UNL     1       1.520   0.130  22.978  0.00  0.00    +0.225 A 
ATOM      4  C   UNL     1       0.824  -0.291  23.120  0.00  0.00    +0.059 A 
ATOM      5  C   UNL     1       0.203   0.066  23.529  0.00  0.00    +0.022 A 
ATOM      6  C   UNL     1       0.277   0.842  23.797  0.00  0.00    +0.085 A 
ATOM     31  C   UNL     1       0.972   1.263  23.655  0.00  0.00    +0.118 A 
ATOM     32  N   UNL     1       1.594   0.908  23.245  0.00  0.00    -0.209 NA
BRANCH   3   2
ATOM      1  C   UNL     1       2.862   0.169  22.487  0.00  0.00    +0.254 C 
ATOM      2  O   UNL     1       2.141  -0.225  22.568  0.00  0.00    -0.456 OA
ENDBRANCH   3   2
ENDBRANCH   7   6
ENDBRANCH   8   7
ENDBRANCH   9   8
BRANCH  13  14
ATOM     14  C   UNL     1      -2.957   3.743  25.210  0.00  0.00    +0.091 C 
BRANCH  14  15
ATOM     15  C   UNL     1      -3.771   3.612  25.244  0.00  0.00    +0.227 A 
ATOM     16  N   UNL     1      -4.348   4.044  24.843  0.00  0.00    -0.111 NA
ATOM     17  N   UNL     1      -5.085   3.726  25.036  0.00  0.00    -0.106 NA
ATOM     18  C   UNL     1      -4.962   3.098  25.557  0.00  0.00    +0.267 A 
ATOM     19  O   UNL     1      -4.150   3.028  25.685  0.00  0.00    -0.418 OA
BRANCH  18  20
ATOM     20  C   UNL     1      -5.548   2.623  25.890  0.00  0.00    +0.136 A 
ATOM     21  C   UNL     1      -5.818   2.662  26.669  0.00  0.00    +0.123 A 
ATOM     22  N   UNL     1      -6.405   2.088  26.764  0.00  0.00    -0.222 NA
ATOM     23  C   UNL     1      -6.496   1.696  26.045  0.00  0.00    +0.179 A 
ATOM     24  N   UNL     1      -5.967   2.026  25.504  0.00  0.00    -0.303 N 
ATOM     25  C   UNL     1      -5.874   1.799  24.717  0.00  0.00    +0.132 C 
ENDBRANCH  18  20
ENDBRANCH  14  15
ENDBRANCH  13  14
TORSDOF 8
ENDMDL
MODEL 4
REMARK VINA RESULT:      -8.0      3.691      5.570
REMARK  Name = 
REMARK  8 active torsions:
REMARK  status: ('A' for Active; 'I' for Inactive)
REMARK    1  A    between atoms: O_2  and  C_3
REMARK    2  A    between atoms: C_6  and  N_7
REMARK    3  A    between atoms: N_7  and  C_8
REMARK    4  A    between atoms: C_8  and  C_9
REMARK    5  A    between atoms: C_13  and  C_14
REMARK    6  A    between atoms: C_14  and  C_15
REMARK    7  A    between atoms: C_18  and  C_20
REMARK    8  A    between atoms: C_27  and  C_28
REMARK                            x       y       z     vdW  Elec       q    Type
REMARK                         _______ _______ _______ _____ _____    ______ ____
ROOT
ATOM      9  C   UNL     1      -1.327   1.287  24.402  0.00  0.00    +0.043 C 
ATOM     10  C   UNL     1      -1.551   0.515  24.219  0.00  0.00    -0.033 C 
ATOM     11  C   UNL     1      -0.976  -0.048  24.036  0.00  0.00    -0.048 C 
ATOM     12  C   UNL     1      -1.200  -0.821  23.852  0.00  0.00    +0.026 C 
ATOM     13  C   UNL     1      -0.179   0.160  24.036  0.00  0.00    +0.027 C 
ATOM     26  C   UNL     1       0.045   0.933  24.219  0.00  0.00    +0.005 C 
ATOM     27  C   UNL     1      -0.528   1.497  24.402  0.00  0.00    +0.006 C 
ENDROOT
BRANCH  27  28
ATOM     28  C   UNL     1      -0.304   2.269  24.586  0.00  0.00    +0.000 C 
ATOM     29  C   UNL     1      -0.262   2.838  23.990  0.00  0.00    +0.000 C 
ATOM     30  C   UNL     1      -0.124   2.472  25.364  0.00  0.00    +0.000 C 
ENDBRANCH  27  28
BRANCH   9   8
ATOM      8  C   UNL     1      -1.901   1.851  24.585  0.00  0.00    +0.117 C 
BRANCH   8   7
ATOM      7  N   UNL     1      -2.700   1.678  24.475  0.00  0.00    -0.236 NA
BRANCH   7   6
ATOM      3  C   UNL     1      -4.413   3.401  24.948  0.00  0.00    +0.225 A 
ATOM      4  C   UNL     1      -4.169   3.264  24.172  0.00  0.00    +0.059 A 
ATOM      5  C   UNL     1      -3.598   2.690  24.014  0.00  0.00    +0.022 A 
ATOM      6  C   UNL     1      -3.271   2.253  24.632  0.00  0.00    +0.085 A 
ATOM     31  C   UNL     1      -3.515   2.390  25.408  0.00  0.00    +0.118 A 
ATOM     32  N   UNL     1      -4.086   2.963  25.567  0.00  0.00    -0.209 NA
BRANCH   3   2
ATOM      1  C   UNL     1      -5.595   3.814  25.637  0.00  0.00    +0.254 C 
ATOM      2  O   UNL     1      -4.984   3.975  25.106  0.00  0.00    -0.456 OA
ENDBRANCH   3   2
ENDBRANCH   7   6
ENDBRANCH   8   7
ENDBRANCH   9   8
BRANCH  13  14
ATOM     14  C   UNL     1       0.396  -0.403  23.852  0.00  0.00    +0.091 C 
BRANCH  14  15
ATOM     15  C   UNL     1       1.020  -0.206  23.350  0.00  0.00    +0.227 A 
ATOM     16  N   UNL     1       0.996  -0.203  22.524  0.00  0.00    -0.111 NA
ATOM     17  N   UNL     1       1.739   0.027  22.248  0.00  0.00    -0.106 NA
ATOM     18  C   UNL     1       2.221   0.167  22.902  0.00  0.00    +0.267 A 
ATOM     19  O   UNL     1       1.777   0.023  23.583  0.00  0.00    -0.418 OA
BRANCH  18  20
ATOM     20  C   UNL     1       3.010   0.408  22.880  0.00  0.00    +0.136 A 
ATOM     21  C   UNL     1       3.278   1.175  22.733  0.00  0.00    +0.123 A 
ATOM     22  N   UNL     1       4.103   1.166  22.763  0.00  0.00    -0.222 NA
ATOM     23  C   UNL     1       4.344   0.395  22.930  0.00  0.00    +0.179 A 
ATOM     24  N   UNL     1       3.668  -0.074  23.002  0.00  0.00    -0.303 N 
ATOM     25  C   UNL     1       3.654  -0.881  23.168  0.00  0.00    +0.132 C 
ENDBRANCH  18  20
ENDBRANCH  14  15
ENDBRANCH  13  14
TORSDOF 8
ENDMDL
MODEL 5
REMARK VINA RESULT:      -8.0      1.070      5.754
REMARK  Name = 
REMARK  8 active torsions:
REMARK  status: ('A' for Active; 'I' for Inactive)
REMARK    1  A    between atoms: O_2  and  C_3
REMARK    2  A    between atoms: C_6  and  N_7
REMARK    3  A    between atoms: N_7  and  C_8
REMARK    4  A    between atoms: C_8  and  C_9
REMARK    5  A    between atoms: C_13  and  C_14
REMARK    6  A    between atoms: C_14  and  C_15
REMARK    7  A    between atoms: C_18  and  C_20
REMARK    8  A    between atoms: C_27  and  C_28
REMARK                            x       y       z     vdW  Elec       q    Type
REMARK                         _______ _______ _______ _____ _____    ______ ____
ROOT
ATOM      9  C   UNL     1      -3.678   2.224  24.350  0.00  0.00    +0.043 C 
ATOM     10  C   UNL     1      -4.292   2.143  24.895  0.00  0.00    -0.033 C 
ATOM     11  C   UNL     1      -4.647   1.407  25.011  0.00  0.00    -0.048 C 
ATOM     12  C   UNL     1      -5.260   1.326  25.556  0.00  0.00    +0.026 C 
ATOM     13  C   UNL     1      -4.388   0.752  24.582  0.00  0.00    +0.027 C 
ATOM     26  C   UNL     1      -3.774   0.833  24.036  0.00  0.00    +0.005 C 
ATOM     27  C   UNL     1      -3.419   1.568  23.920  0.00  0.00    +0.006 C 
ENDROOT
BRANCH  27  28
ATOM     28  C   UNL     1      -2.805   1.649  23.375  0.00  0.00    +0.000 C 
ATOM     29  C   UNL     1      -2.965   1.915  22.611  0.00  0.00    +0.000 C 
ATOM     30  C   UNL     1      -2.032   1.464  23.594  0.00  0.00    +0.000 C 
ENDBRANCH  27  28
BRANCH   9   8
ATOM      8  C   UNL     1      -3.323   2.959  24.234  0.00  0.00    +0.117 C 
BRANCH   8   7
ATOM      7  N   UNL     1      -3.390   3.546  24.810  0.00  0.00    -0.236 NA
BRANCH   7   6
ATOM      3  C   UNL     1      -1.612   5.251  25.050  0.00  0.00    +0.225 A 
ATOM      4  C   UNL     1      -1.632   4.602  25.559  0.00  0.00    +0.059 A 
ATOM      5  C   UNL     1      -2.225   4.034  25.478  0.00  0.00    +0.022 A 
ATOM      6  C   UNL     1      -2.797   4.114  24.890  0.00  0.00    +0.085 A 
ATOM     31  C   UNL     1      -2.777   4.763  24.382  0.00  0.00    +0.118 A 
ATOM     32  N   UNL     1      -2.185   5.332  24.461  0.00  0.00    -0.209 NA
BRANCH   3   2
ATOM      1  C   UNL     1      -0.301   5.725  24.735  0.00  0.00    +0.254 C 
ATOM      2  O   UNL     1      -1.019   5.820  25.129  0.00  0.00    -0.456 OA
ENDBRANCH   3   2
ENDBRANCH   7   6
ENDBRANCH   8   7
ENDBRANCH   9   8
BRANCH  13  14
ATOM     14  C   UNL     1      -4.742   0.016  24.697  0.00  0.00    +0.091 C 
BRANCH  14  15
ATOM     15  C   UNL     1      -4.282  -0.633  24.913  0.00  0.00    +0.227 A 
ATOM     16  N   UNL     1      -4.054  -0.833  25.680  0.00  0.00    -0.111 NA
ATOM     17  N   UNL     1      -3.599  -1.521  25.641  0.00  0.00    -0.106 NA
ATOM     18  C   UNL     1      -3.546  -1.746  24.849  0.00  0.00    +0.267 A 
ATOM     19  O   UNL     1      -3.968  -1.197  24.399  0.00  0.00    -0.418 OA
BRANCH  18  20
ATOM     20  C   UNL     1      -3.143  -2.403  24.557  0.00  0.00    +0.136 A 
ATOM     21  C   UNL     1      -3.487  -3.096  24.269  0.00  0.00    +0.123 A 
ATOM     22  N   UNL     1      -2.881  -3.605  24.036  0.00  0.00    -0.222 NA
ATOM     23  C   UNL     1      -2.162  -3.228  24.181  0.00  0.00    +0.179 A 
ATOM     24  N   UNL     1      -2.323  -2.485  24.503  0.00  0.00    -0.303 N 
ATOM     25  C   UNL     1      -1.764  -1.923  24.730  0.00  0.00    +0.132 C 
ENDBRANCH  18  20
ENDBRANCH  14  15
ENDBRANCH  13  14
TORSDOF 8
ENDMDL
MODEL 6
REMARK VINA RESULT:      -8.0      2.002      6.314
REMARK  Name = 
REMARK  8 active torsions:
REMARK  status: ('A' for Active; 'I' for Inactive)
REMARK    1  A    between atoms: O_2  and  C_3
REMARK    2  A    between atoms: C_6  and  N_7
REMARK    3  A    between atoms: N_7  and  C_8
REMARK    4  A    between atoms: C_8  and  C_9
REMARK    5  A    between atoms: C_13  and  C_14
REMARK    6  A    between atoms: C_14  and  C_15
REMARK    7  A    between atoms: C_18  and  C_20
REMARK    8  A    between atoms: C_27  and  C_28
REMARK                            x       y       z     vdW  Elec       q    Type
REMARK                         _______ _______ _______ _____ _____    ______ ____
ROOT
ATOM      9  C   UNL     1      -0.675   1.038  25.080  0.00  0.00    +0.043 C 
ATOM     10  C   UNL     1      -0.926   0.727  25.801  0.00  0.00    -0.033 C 
ATOM     11  C   UNL     1      -0.996  -0.089  25.896  0.00  0.00    -0.048 C 
ATOM     12  C   UNL     1      -1.247  -0.400  26.618  0.00  0.00    +0.026 C 
ATOM     13  C   UNL     1      -0.816  -0.595  25.270  0.00  0.00    +0.027 C 
ATOM     26  C   UNL     1      -0.565  -0.284  24.549  0.00  0.00    +0.005 C 
ATOM     27  C   UNL     1      -0.494   0.532  24.453  0.00  0.00    +0.006 C 
ENDROOT
BRANCH  27  28
ATOM     28  C   UNL     1      -0.243   0.843  23.731  0.00  0.00    +0.000 C 
ATOM     29  C   UNL     1      -0.799   1.076  23.167  0.00  0.00    +0.000 C 
ATOM     30  C   UNL     1       0.562   0.921  23.573  0.00  0.00    +0.000 C 
ENDBRANCH  27  28
BRANCH   9   8
ATOM      8  C   UNL     1      -0.604   1.854  24.984  0.00  0.00    +0.117 C 
BRANCH   8   7
ATOM      7  N   UNL     1      -0.757   2.360  25.618  0.00  0.00    -0.236 NA
BRANCH   7   6
ATOM      3  C   UNL     1      -1.218   4.756  25.205  0.00  0.00    +0.225 A 
ATOM      4  C   UNL     1      -1.820   4.261  25.475  0.00  0.00    +0.059 A 
ATOM      5  C   UNL     1      -1.666   3.462  25.612  0.00  0.00    +0.022 A 
ATOM      6  C   UNL     1      -0.911   3.158  25.480  0.00  0.00    +0.085 A 
ATOM     31  C   UNL     1      -0.309   3.654  25.210  0.00  0.00    +0.118 A 
ATOM     32  N   UNL     1      -0.462   4.452  25.072  0.00  0.00    -0.209 NA
BRANCH   3   2
ATOM      1  C   UNL     1      -2.143   5.841  25.111  0.00  0.00    +0.254 C 
ATOM      2  O   UNL     1      -1.371   5.555  25.067  0.00  0.00    -0.456 OA
ENDBRANCH   3   2
ENDBRANCH   7   6
ENDBRANCH   8   7
ENDBRANCH   9   8
BRANCH  13  14
ATOM     14  C   UNL     1      -0.886  -1.412  25.365  0.00  0.00    +0.091 C 
BRANCH  14  15
ATOM     15  C   UNL     1      -1.408  -1.838  24.890  0.00  0.00    +0.227 A 
ATOM     16  N   UNL     1      -1.198  -2.373  24.297  0.00  0.00    -0.111 NA
ATOM     17  N   UNL     1      -1.892  -2.670  23.964  0.00  0.00    -0.106 NA
ATOM     18  C   UNL     1      -2.531  -2.319  24.351  0.00  0.00    +0.267 A 
ATOM     19  O   UNL     1      -2.232  -1.805  24.923  0.00  0.00    -0.418 OA
BRANCH  18  20
ATOM     20  C   UNL     1      -3.329  -2.457  24.193  0.00  0.00    +0.136 A 
ATOM     21  C   UNL     1      -3.727  -3.173  24.299  0.00  0.00    +0.123 A 
ATOM     22  N   UNL     1      -4.513  -3.062  24.074  0.00  0.00    -0.222 NA
ATOM     23  C   UNL     1      -4.601  -2.280  23.829  0.00  0.00    +0.179 A 
ATOM     24  N   UNL     1      -3.869  -1.906  23.903  0.00  0.00    -0.303 N 
ATOM     25  C   UNL     1      -3.706  -1.118  23.719  0.00  0.00    +0.132 C 
ENDBRANCH  18  20
ENDBRANCH  14  15
ENDBRANCH  13  14
TORSDOF 8
ENDMDL
MODEL 7
REMARK VINA RESULT:      -7.8      2.509      4.816
REMARK  Name = 
REMARK  8 active torsions:
REMARK  status: ('A' for Active; 'I' for Inactive)
REMARK    1  A    between atoms: O_2  and  C_3
REMARK    2  A    between atoms: C_6  and  N_7
REMARK    3  A    between atoms: N_7  and  C_8
REMARK    4  A    between atoms: C_8  and  C_9
REMARK    5  A    between atoms: C_13  and  C_14
REMARK    6  A    between atoms: C_14  and  C_15
REMARK    7  A    between atoms: C_18  and  C_20
REMARK    8  A    between atoms: C_27  and  C_28
REMARK                            x       y       z     vdW  Elec       q    Type
REMARK                         _______ _______ _______ _____ _____    ______ ____
ROOT
ATOM      9  C   UNL     1      -2.882   3.087  24.364  0.00  0.00    +0.043 C 
ATOM     10  C   UNL     1      -2.999   2.621  23.694  0.00  0.00    -0.033 C 
ATOM     11  C   UNL     1      -2.358   2.244  23.336  0.00  0.00    -0.048 C 
ATOM     12  C   UNL     1      -2.476   1.778  22.666  0.00  0.00    +0.026 C 
ATOM     13  C   UNL     1      -1.600   2.332  23.649  0.00  0.00    +0.027 C 
ATOM     26  C   UNL     1      -1.483   2.798  24.319  0.00  0.00    +0.005 C 
ATOM     27  C   UNL     1      -2.123   3.176  24.677  0.00  0.00    +0.006 C 
ENDROOT
BRANCH  27  28
ATOM     28  C   UNL     1      -2.005   3.642  25.348  0.00  0.00    +0.000 C 
ATOM     29  C   UNL     1      -1.922   4.459  25.272  0.00  0.00    +0.000 C 
ATOM     30  C   UNL     1      -1.971   3.290  26.093  0.00  0.00    +0.000 C 
ENDBRANCH  27  28
BRANCH   9   8
ATOM      8  C   UNL     1      -3.522   3.464  24.722  0.00  0.00    +0.117 C 
BRANCH   8   7
ATOM      7  N   UNL     1      -4.289   3.321  24.454  0.00  0.00    -0.236 NA
BRANCH   7   6
ATOM      3  C   UNL     1      -6.049   2.629  26.051  0.00  0.00    +0.225 A 
ATOM      4  C   UNL     1      -5.773   2.096  25.485  0.00  0.00    +0.059 A 
ATOM      5  C   UNL     1      -5.186   2.327  24.953  0.00  0.00    +0.022 A 
ATOM      6  C   UNL     1      -4.875   3.090  24.986  0.00  0.00    +0.085 A 
ATOM     31  C   UNL     1      -5.151   3.623  25.552  0.00  0.00    +0.118 A 
ATOM     32  N   UNL     1      -5.738   3.394  26.085  0.00  0.00    -0.209 NA
BRANCH   3   2
ATOM      1  C   UNL     1      -6.623   1.642  26.910  0.00  0.00    +0.254 C 
ATOM      2  O   UNL     1      -6.635   2.400  26.584  0.00  0.00    -0.456 OA
ENDBRANCH   3   2
ENDBRANCH   7   6
ENDBRANCH   8   7
ENDBRANCH   9   8
BRANCH  13  14
ATOM     14  C   UNL     1      -0.959   1.956  23.291  0.00  0.00    +0.091 C 
BRANCH  14  15
ATOM     15  C   UNL     1      -0.577   1.336  23.679  0.00  0.00    +0.227 A 
ATOM     16  N   UNL     1       0.207   1.335  23.937  0.00  0.00    -0.111 NA
ATOM     17  N   UNL     1       0.357   0.606  24.295  0.00  0.00    -0.106 NA
ATOM     18  C   UNL     1      -0.334   0.157  24.258  0.00  0.00    +0.267 A 
ATOM     19  O   UNL     1      -0.912   0.608  23.878  0.00  0.00    -0.418 OA
BRANCH  18  20
ATOM     20  C   UNL     1      -0.432  -0.608  24.551  0.00  0.00    +0.136 A 
ATOM     21  C   UNL     1      -0.232  -1.306  24.158  0.00  0.00    +0.123 A 
ATOM     22  N   UNL     1      -0.423  -1.939  24.652  0.00  0.00    -0.222 NA
ATOM     23  C   UNL     1      -0.741  -1.633  25.348  0.00  0.00    +0.179 A 
ATOM     24  N   UNL     1      -0.747  -0.810  25.286  0.00  0.00    -0.303 N 
ATOM     25  C   UNL     1      -1.019  -0.282  25.858  0.00  0.00    +0.132 C 
ENDBRANCH  18  20
ENDBRANCH  14  15
ENDBRANCH  13  14
TORSDOF 8
ENDMDL
MODEL 8
REMARK VINA RESULT:      -7.7      2.572      4.915
REMARK  Name = 
REMARK  8 active torsions:
REMARK  status: ('A' for Active; 'I' for Inactive)
REMARK    1  A    between atoms: O_2  and  C_3
REMARK    2  A    between atoms: C_6  and  N_7
REMARK    3  A    between atoms: N_7  and  C_8
REMARK    4  A    between atoms: C_8  and  C_9
REMARK    5  A    between atoms: C_13  and  C_14
REMARK    6  A    between atoms: C_14  and  C_15
REMARK    7  A    between atoms: C_18  and  C_20
REMARK    8  A    between atoms: C_27  and  C_28
REMARK                            x       y       z     vdW  Elec       q    Type
REMARK                         _______ _______ _______ _____ _____    ______ ____
ROOT
ATOM      9  C   UNL     1      -3.522   0.942  24.584  0.00  0.00    +0.043 C 
ATOM     10  C   UNL     1      -3.605   0.283  25.074  0.00  0.00    -0.033 C 
ATOM     11  C   UNL     1      -3.081  -0.350  25.004  0.00  0.00    -0.048 C 
ATOM     12  C   UNL     1      -3.164  -1.009  25.493  0.00  0.00    +0.026 C 
ATOM     13  C   UNL     1      -2.475  -0.325  24.445  0.00  0.00    +0.027 C 
ATOM     26  C   UNL     1      -2.392   0.334  23.956  0.00  0.00    +0.005 C 
ATOM     27  C   UNL     1      -2.916   0.968  24.025  0.00  0.00    +0.006 C 
ENDROOT
BRANCH  27  28
ATOM     28  C   UNL     1      -2.833   1.627  23.536  0.00  0.00    +0.000 C 
ATOM     29  C   UNL     1      -3.204   1.643  22.799  0.00  0.00    +0.000 C 
ATOM     30  C   UNL     1      -2.380   2.270  23.783  0.00  0.00    +0.000 C 
ENDBRANCH  27  28
BRANCH   9   8
ATOM      8  C   UNL     1      -4.046   1.576  24.654  0.00  0.00    +0.117 C 
BRANCH   8   7
ATOM      7  N   UNL     1      -4.590   1.597  25.273  0.00  0.00    -0.236 NA
BRANCH   7   6
ATOM      3  C   UNL     1      -5.864   3.669  25.731  0.00  0.00    +0.225 A 
ATOM      4  C   UNL     1      -6.209   3.062  25.292  0.00  0.00    +0.059 A 
ATOM      5  C   UNL     1      -5.784   2.371  25.139  0.00  0.00    +0.022 A 
ATOM      6  C   UNL     1      -5.015   2.288  25.425  0.00  0.00    +0.085 A 
ATOM     31  C   UNL     1      -4.670   2.895  25.864  0.00  0.00    +0.118 A 
ATOM     32  N   UNL     1      -5.094   3.586  26.017  0.00  0.00    -0.209 NA
BRANCH   3   2
ATOM      1  C   UNL     1      -6.115   5.051  25.467  0.00  0.00    +0.254 C 
ATOM      2  O   UNL     1      -6.287   4.360  25.884  0.00  0.00    -0.456 OA
ENDBRANCH   3   2
ENDBRANCH   7   6
ENDBRANCH   8   7
ENDBRANCH   9   8
BRANCH  13  14
ATOM     14  C   UNL     1      -1.951  -0.958  24.375  0.00  0.00    +0.091 C 
BRANCH  14  15
ATOM     15  C   UNL     1      -1.138  -0.819  24.344  0.00  0.00    +0.227 A 
ATOM     16  N   UNL     1      -0.605  -0.921  24.966  0.00  0.00    -0.111 NA
ATOM     17  N   UNL     1       0.147  -0.718  24.692  0.00  0.00    -0.106 NA
ATOM     18  C   UNL     1       0.078  -0.492  23.902  0.00  0.00    +0.267 A 
ATOM     19  O   UNL     1      -0.716  -0.554  23.687  0.00  0.00    -0.418 OA
BRANCH  18  20
ATOM     20  C   UNL     1       0.695  -0.246  23.412  0.00  0.00    +0.136 A 
ATOM     21  C   UNL     1       1.030  -0.683  22.798  0.00  0.00    +0.123 A 
ATOM     22  N   UNL     1       1.627  -0.227  22.456  0.00  0.00    -0.222 NA
ATOM     23  C   UNL     1       1.660   0.492  22.859  0.00  0.00    +0.179 A 
ATOM     24  N   UNL     1       1.084   0.480  23.450  0.00  0.00    -0.303 N 
ATOM     25  C   UNL     1       0.926   1.088  23.984  0.00  0.00    +0.132 C 
ENDBRANCH  18  20
ENDBRANCH  14  15
ENDBRANCH  13  14
TORSDOF 8
ENDMDL
