MODEL 1
REMARK VINA RESULT:     -10.7      0.000      0.000
REMARK  Name = 
REMARK  5 active torsions:
REMARK  status: ('A' for Active; 'I' for Inactive)
REMARK    1  A    between atoms: C_3  and  N_17
REMARK    2  A    between atoms: C_6  and  C_7
REMARK    3  A    between atoms: C_7  and  N_8
REMARK    4  A    between atoms: C_9  and  C_11
REMARK    5  A    between atoms: N_17  and  C_18
REMARK                            x       y       z     vdW  Elec       q    Type
REMARK                         _______ _______ _______ _____ _____    ______ ____
ROOT
ATOM      1  O   UNL     1      -4.925   1.176  25.402  0.00  0.00    -0.219 OA
ATOM      2  C   UNL     1      -4.267   1.035  24.925  0.00  0.00    +0.199 C 
ATOM      3  C   UNL     1      -4.087   0.326  24.544  0.00  0.00    +0.135 C 
ATOM      4  C   UNL     1      -3.382   0.431  24.129  0.00  0.00    +0.162 C 
ATOM      5  O   UNL     1      -3.125   1.205  24.254  0.00  0.00    -0.350 OA
ATOM      6  C   UNL     1      -3.672   1.579  24.747  0.00  0.00    +0.169 C 
ENDROOT
BRANCH   6   7
ATOM      7  C   UNL     1      -3.632   2.358  25.013  0.00  0.00    +0.148 C 
BRANCH   7   8
ATOM      8  N   UNL     1      -2.932   2.786  24.930  0.00  0.00    -0.199 NA
ATOM      9  C   UNL     1      -2.852   3.521  25.297  0.00  0.00    +0.265 C 
ATOM     10  O   UNL     1      -3.472   3.828  25.747  0.00  0.00    -0.268 OA
BRANCH   9  11
ATOM     11  C   UNL     1      -2.152   3.950  25.214  0.00  0.00    +0.055 A 
ATOM     12  C   UNL     1      -1.427   3.557  25.198  0.00  0.00    +0.005 A 
ATOM     13  C   UNL     1      -0.727   3.985  25.115  0.00  0.00    +0.000 A 
ATOM     14  C   UNL     1      -0.752   4.807  25.047  0.00  0.00    +0.000 A 
ATOM     15  C   UNL     1      -1.477   5.200  25.062  0.00  0.00    +0.000 A 
ATOM     16  C   UNL     1      -2.177   4.772  25.146  0.00  0.00    +0.005 A 
ENDBRANCH   9  11
ENDBRANCH   7   8
ENDBRANCH   6   7
BRANCH   3  17
ATOM     17  N   UNL     1      -4.535  -0.367  24.572  0.00  0.00    -0.216 NA
BRANCH  17  18
ATOM     18  C   UNL     1      -4.158  -1.101  24.581  0.00  0.00    +0.076 C 
ATOM     19  C   UNL     1      -3.777  -1.360  25.264  0.00  0.00    +0.036 C 
ATOM     20  C   UNL     1      -3.400  -2.095  25.272  0.00  0.00    +0.090 C 
ATOM     21  N   UNL     1      -3.406  -2.569  24.597  0.00  0.00    -0.218 NA
ATOM     22  C   UNL     1      -3.788  -2.309  23.913  0.00  0.00    +0.090 C 
ATOM     23  C   UNL     1      -4.164  -1.575  23.905  0.00  0.00    +0.036 C 
ENDBRANCH  17  18
ENDBRANCH   3  17
TORSDOF 5
ENDMDL
MODEL 2
REMARK VINA RESULT:     -10.2      0.941      5.221
REMARK  Name = 
REMARK  5 active torsions:
REMARK  status: ('A' for Active; 'I' for Inactive)
REMARK    1  A    between atoms: C_3  and  N_17
REMARK    2  A    between atoms: C_6  and  C_7
REMARK    3  A    between atoms: C_7  and  N_8
REMARK    4  A    between atoms: C_9  and  C_11
REMARK    5  A    between atoms: N_17  and  C_18
REMARK                            x       y       z     vdW  Elec       q    Type
REMARK                         _______ _______ _______ _____ _____    ______ ____
ROOT
ATOM      1  O   UNL     1      -4.259   2.405  25.579  0.00  0.00    -0.219 OA
ATOM      2  C   UNL     1      -3.690   2.303  24.991  0.00  0.00    +0.199 C 
ATOM      3  C   UNL     1      -3.069   2.818  24.822  0.00  0.00    +0.135 C 
ATOM      4  C   UNL     1      -2.637   2.501  24.194  0.00  0.00    +0.162 C 
ATOM      5  O   UNL     1      -2.992   1.789  23.975  0.00  0.00    -0.350 OA
ATOM      6  C   UNL     1      -3.643   1.666  24.467  0.00  0.00    +0.169 C 
ENDROOT
BRANCH   6   7
ATOM      7  C   UNL     1      -4.156   1.021  24.441  0.00  0.00    +0.148 C 
BRANCH   7   8
ATOM      8  N   UNL     1      -3.857   0.254  24.495  0.00  0.00    -0.199 NA
ATOM      9  C   UNL     1      -4.366  -0.393  24.431  0.00  0.00    +0.265 C 
ATOM     10  O   UNL     1      -5.173  -0.272  24.313  0.00  0.00    -0.268 OA
BRANCH   9  11
ATOM     11  C   UNL     1      -4.067  -1.159  24.485  0.00  0.00    +0.055 A 
ATOM     12  C   UNL     1      -3.649  -1.393  25.157  0.00  0.00    +0.005 A 
ATOM     13  C   UNL     1      -3.351  -2.160  25.212  0.00  0.00    +0.000 A 
ATOM     14  C   UNL     1      -3.469  -2.693  24.594  0.00  0.00    +0.000 A 
ATOM     15  C   UNL     1      -3.886  -2.460  23.921  0.00  0.00    +0.000 A 
ATOM     16  C   UNL     1      -4.185  -1.693  23.867  0.00  0.00    +0.005 A 
ENDBRANCH   9  11
ENDBRANCH   7   8
ENDBRANCH   6   7
BRANCH   3  17
ATOM     17  N   UNL     1      -2.907   3.527  25.212  0.00  0.00    -0.216 NA
BRANCH  17  18
ATOM     18  C   UNL     1      -2.140   3.831  25.215  0.00  0.00    +0.076 C 
ATOM     19  C   UNL     1      -1.979   4.546  24.838  0.00  0.00    +0.036 C 
ATOM     20  C   UNL     1      -1.212   4.851  24.840  0.00  0.00    +0.090 C 
ATOM     21  N   UNL     1      -0.606   4.439  25.220  0.00  0.00    -0.218 NA
ATOM     22  C   UNL     1      -0.768   3.722  25.596  0.00  0.00    +0.090 C 
ATOM     23  C   UNL     1      -1.535   3.418  25.594  0.00  0.00    +0.036 C 
ENDBRANCH  17  18
ENDBRANCH   3  17
TORSDOF 5
ENDMDL
MODEL 3
REMARK VINA RESULT:     -10.2      1.451      1.997
REMARK  Name = 
REMARK  5 active torsions:
REMARK  status: ('A' for Active; 'I' for Inactive)
REMARK    1  A    between atoms: C_3  and  N_17
REMARK    2  A    between atoms: C_6  and  C_7
REMARK    3  A    between atoms: C_7  and  N_8
REMARK    4  A    between atoms: C_9  and  C_11
REMARK    5  A    between atoms: N_17  and  C_18
REMARK                            x       y       z     vdW  Elec       q    Type
REMARK                         _______ _______ _______ _____ _____    ______ ____
ROOT
ATOM      1  O   UNL     1      -0.647  -0.124  24.835  0.00  0.00    -0.219 OA
ATOM      2  C   UNL     1      -1.432   0.127  24.866  0.00  0.00    +0.199 C 
ATOM      3  C   UNL     1      -2.091  -0.310  24.632  0.00  0.00    +0.135 C 
ATOM      4  C   UNL     1      -2.763   0.153  24.758  0.00  0.00    +0.162 C 
ATOM      5  O   UNL     1      -2.519   0.876  25.071  0.00  0.00    -0.350 OA
ATOM      6  C   UNL     1      -1.696   0.861  25.138  0.00  0.00    +0.169 C 
ENDROOT
BRANCH   6   7
ATOM      7  C   UNL     1      -1.222   1.470  25.426  0.00  0.00    +0.148 C 
BRANCH   7   8
ATOM      8  N   UNL     1      -1.413   2.255  25.259  0.00  0.00    -0.199 NA
ATOM      9  C   UNL     1      -0.990   2.868  25.616  0.00  0.00    +0.265 C 
ATOM     10  O   UNL     1      -0.377   2.696  26.140  0.00  0.00    -0.268 OA
BRANCH   9  11
ATOM     11  C   UNL     1      -1.182   3.653  25.449  0.00  0.00    +0.055 A 
ATOM     12  C   UNL     1      -1.885   3.976  25.734  0.00  0.00    +0.005 A 
ATOM     13  C   UNL     1      -2.076   4.761  25.567  0.00  0.00    +0.000 A 
ATOM     14  C   UNL     1      -1.564   5.223  25.115  0.00  0.00    +0.000 A 
ATOM     15  C   UNL     1      -0.861   4.900  24.829  0.00  0.00    +0.000 A 
ATOM     16  C   UNL     1      -0.669   4.115  24.996  0.00  0.00    +0.005 A 
ENDBRANCH   9  11
ENDBRANCH   7   8
ENDBRANCH   6   7
BRANCH   3  17
ATOM     17  N   UNL     1      -2.081  -1.076  24.325  0.00  0.00    -0.216 NA
BRANCH  17  18
ATOM     18  C   UNL     1      -2.738  -1.566  24.415  0.00  0.00    +0.076 C 
ATOM     19  C   UNL     1      -3.368  -1.511  23.886  0.00  0.00    +0.036 C 
ATOM     20  C   UNL     1      -4.027  -2.001  23.976  0.00  0.00    +0.090 C 
ATOM     21  N   UNL     1      -4.054  -2.545  24.596  0.00  0.00    -0.218 NA
ATOM     22  C   UNL     1      -3.423  -2.599  25.125  0.00  0.00    +0.090 C 
ATOM     23  C   UNL     1      -2.765  -2.110  25.035  0.00  0.00    +0.036 C 
ENDBRANCH  17  18
ENDBRANCH   3  17
TORSDOF 5
ENDMDL
MODEL 4
REMARK VINA RESULT:     -10.1      1.771      5.554
REMARK  Name = 
REMARK  5 active torsions:
REMARK  status: ('A' for Active; 'I' for Inactive)
REMARK    1  A    between atoms: C_3  and  N_17
REMARK    2  A    between atoms: C_6  and  C_7
REMARK    3  A    between atoms: C_7  and  N_8
REMARK    4  A    between atoms: C_9  and  C_11
REMARK    5  A    between atoms: N_17  and  C_18
REMARK                            x       y       z     vdW  Elec       q    Type
REMARK                         _______ _______ _______ _____ _____    ______ ____
ROOT
ATOM      1  O   UNL     1      -0.586   1.016  26.097  0.00  0.00    -0.219 OA
ATOM      2  C   UNL     1      -0.970   1.289  25.419  0.00  0.00    +0.199 C 
ATOM      3  C   UNL     1      -1.069   2.078  25.202  0.00  0.00    +0.135 C 
ATOM      4  C   UNL     1      -1.483   2.097  24.488  0.00  0.00    +0.162 C 
ATOM      5  O   UNL     1      -1.639   1.318  24.264  0.00  0.00    -0.350 OA
ATOM      6  C   UNL     1      -1.322   0.819  24.840  0.00  0.00    +0.169 C 
ENDROOT
BRANCH   6   7
ATOM      7  C   UNL     1      -1.352  -0.005  24.836  0.00  0.00    +0.148 C 
BRANCH   7   8
ATOM      8  N   UNL     1      -2.068  -0.391  24.695  0.00  0.00    -0.199 NA
ATOM      9  C   UNL     1      -2.082  -1.209  24.590  0.00  0.00    +0.265 C 
ATOM     10  O   UNL     1      -1.380  -1.642  24.626  0.00  0.00    -0.268 OA
BRANCH   9  11
ATOM     11  C   UNL     1      -2.797  -1.595  24.449  0.00  0.00    +0.055 A 
ATOM     12  C   UNL     1      -2.901  -2.375  24.696  0.00  0.00    +0.005 A 
ATOM     13  C   UNL     1      -3.617  -2.761  24.554  0.00  0.00    +0.000 A 
ATOM     14  C   UNL     1      -4.228  -2.366  24.166  0.00  0.00    +0.000 A 
ATOM     15  C   UNL     1      -4.125  -1.586  23.919  0.00  0.00    +0.000 A 
ATOM     16  C   UNL     1      -3.409  -1.200  24.060  0.00  0.00    +0.005 A 
ENDBRANCH   9  11
ENDBRANCH   7   8
ENDBRANCH   6   7
BRANCH   3  17
ATOM     17  N   UNL     1      -0.801   2.735  25.625  0.00  0.00    -0.216 NA
BRANCH  17  18
ATOM     18  C   UNL     1      -1.151   3.472  25.507  0.00  0.00    +0.076 C 
ATOM     19  C   UNL     1      -1.893   3.632  25.830  0.00  0.00    +0.036 C 
ATOM     20  C   UNL     1      -2.244   4.370  25.712  0.00  0.00    +0.090 C 
ATOM     21  N   UNL     1      -1.852   4.947  25.271  0.00  0.00    -0.218 NA
ATOM     22  C   UNL     1      -1.110   4.786  24.948  0.00  0.00    +0.090 C 
ATOM     23  C   UNL     1      -0.760   4.049  25.066  0.00  0.00    +0.036 C 
ENDBRANCH  17  18
ENDBRANCH   3  17
TORSDOF 5
ENDMDL
MODEL 5
REMARK VINA RESULT:      -8.5     16.137     18.566
REMARK  Name = 
REMARK  5 active torsions:
REMARK  status: ('A' for Active; 'I' for Inactive)
REMARK    1  A    between atoms: C_3  and  N_17
REMARK    2  A    between atoms: C_6  and  C_7
REMARK    3  A    between atoms: C_7  and  N_8
REMARK    4  A    between atoms: C_9  and  C_11
REMARK    5  A    between atoms: N_17  and  C_18
REMARK                            x       y       z     vdW  Elec       q    Type
REMARK                         _______ _______ _______ _____ _____    ______ ____
ROOT
ATOM      1  O   UNL     1      12.282   8.169  19.030  0.00  0.00    -0.219 OA
ATOM      2  C   UNL     1      12.420   7.609  19.620  0.00  0.00    +0.199 C 
ATOM      3  C   UNL     1      11.902   7.410  20.230  0.00  0.00    +0.135 C 
ATOM      4  C   UNL     1      12.262   6.827  20.691  0.00  0.00    +0.162 C 
ATOM      5  O   UNL     1      13.002   6.666  20.365  0.00  0.00    -0.350 OA
ATOM      6  C   UNL     1      13.100   7.149  19.703  0.00  0.00    +0.169 C 
ENDROOT
BRANCH   6   7
ATOM      7  C   UNL     1      13.761   7.168  19.211  0.00  0.00    +0.148 C 
BRANCH   7   8
ATOM      8  N   UNL     1      14.506   6.984  19.514  0.00  0.00    -0.199 NA
ATOM      9  C   UNL     1      15.171   7.020  19.025  0.00  0.00    +0.265 C 
ATOM     10  O   UNL     1      15.090   7.239  18.234  0.00  0.00    -0.268 OA
BRANCH   9  11
ATOM     11  C   UNL     1      15.916   6.836  19.328  0.00  0.00    +0.055 A 
ATOM     12  C   UNL     1      16.280   7.344  19.866  0.00  0.00    +0.005 A 
ATOM     13  C   UNL     1      17.025   7.161  20.169  0.00  0.00    +0.000 A 
ATOM     14  C   UNL     1      17.405   6.468  19.934  0.00  0.00    +0.000 A 
ATOM     15  C   UNL     1      17.042   5.959  19.396  0.00  0.00    +0.000 A 
ATOM     16  C   UNL     1      16.297   6.143  19.093  0.00  0.00    +0.005 A 
ENDBRANCH   9  11
ENDBRANCH   7   8
ENDBRANCH   6   7
BRANCH   3  17
ATOM     17  N   UNL     1      11.155   7.737  20.358  0.00  0.00    -0.216 NA
BRANCH  17  18
ATOM     18  C   UNL     1      10.923   7.950  21.121  0.00  0.00    +0.076 C 
ATOM     19  C   UNL     1      11.052   8.718  21.391  0.00  0.00    +0.036 C 
ATOM     20  C   UNL     1      10.820   8.932  22.154  0.00  0.00    +0.090 C 
ATOM     21  N   UNL     1      10.459   8.376  22.646  0.00  0.00    -0.218 NA
ATOM     22  C   UNL     1      10.330   7.607  22.374  0.00  0.00    +0.090 C 
ATOM     23  C   UNL     1      10.562   7.394  21.612  0.00  0.00    +0.036 C 
ENDBRANCH  17  18
ENDBRANCH   3  17
TORSDOF 5
ENDMDL
MODEL 6
REMARK VINA RESULT:      -7.6     17.568     19.286
REMARK  Name = 
REMARK  5 active torsions:
REMARK  status: ('A' for Active; 'I' for Inactive)
REMARK    1  A    between atoms: C_3  and  N_17
REMARK    2  A    between atoms: C_6  and  C_7
REMARK    3  A    between atoms: C_7  and  N_8
REMARK    4  A    between atoms: C_9  and  C_11
REMARK    5  A    between atoms: N_17  and  C_18
REMARK                            x       y       z     vdW  Elec       q    Type
REMARK                         _______ _______ _______ _____ _____    ______ ____
ROOT
ATOM      1  O   UNL     1      13.249   6.502  20.041  0.00  0.00    -0.219 OA
ATOM      2  C   UNL     1      13.751   6.983  19.597  0.00  0.00    +0.199 C 
ATOM      3  C   UNL     1      14.570   6.907  19.540  0.00  0.00    +0.135 C 
ATOM      4  C   UNL     1      14.848   7.501  19.039  0.00  0.00    +0.162 C 
ATOM      5  O   UNL     1      14.200   7.945  18.787  0.00  0.00    -0.350 OA
ATOM      6  C   UNL     1      13.522   7.625  19.131  0.00  0.00    +0.169 C 
ENDROOT
BRANCH   6   7
ATOM      7  C   UNL     1      12.751   7.898  19.029  0.00  0.00    +0.148 C 
BRANCH   7   8
ATOM      8  N   UNL     1      12.478   8.088  18.274  0.00  0.00    -0.199 NA
ATOM      9  C   UNL     1      11.706   8.361  18.171  0.00  0.00    +0.265 C 
ATOM     10  O   UNL     1      11.207   8.445  18.822  0.00  0.00    -0.268 OA
BRANCH   9  11
ATOM     11  C   UNL     1      11.433   8.551  17.416  0.00  0.00    +0.055 A 
ATOM     12  C   UNL     1      11.941   8.903  16.869  0.00  0.00    +0.005 A 
ATOM     13  C   UNL     1      11.667   9.093  16.114  0.00  0.00    +0.000 A 
ATOM     14  C   UNL     1      10.887   8.930  15.906  0.00  0.00    +0.000 A 
ATOM     15  C   UNL     1      10.378   8.578  16.452  0.00  0.00    +0.000 A 
ATOM     16  C   UNL     1      10.651   8.388  17.206  0.00  0.00    +0.005 A 
ENDBRANCH   9  11
ENDBRANCH   7   8
ENDBRANCH   6   7
BRANCH   3  17
ATOM     17  N   UNL     1      15.032   6.336  19.917  0.00  0.00    -0.216 NA
BRANCH  17  18
ATOM     18  C   UNL     1      15.823   6.493  20.091  0.00  0.00    +0.076 C 
ATOM     19  C   UNL     1      16.029   6.802  20.827  0.00  0.00    +0.036 C 
ATOM     20  C   UNL     1      16.820   6.960  21.002  0.00  0.00    +0.090 C 
ATOM     21  N   UNL     1      17.404   6.809  20.439  0.00  0.00    -0.218 NA
ATOM     22  C   UNL     1      17.197   6.501  19.702  0.00  0.00    +0.090 C 
ATOM     23  C   UNL     1      16.406   6.343  19.528  0.00  0.00    +0.036 C 
ENDBRANCH  17  18
ENDBRANCH   3  17
TORSDOF 5
ENDMDL
MODEL 7
REMARK VINA RESULT:      -7.0     16.382     18.814
REMARK  Name = 
REMARK  5 active torsions:
REMARK  status: ('A' for Active; 'I' for Inactive)
REMARK    1  A    between atoms: C_3  and  N_17
REMARK    2  A    between atoms: C_6  and  C_7
REMARK    3  A    between atoms: C_7  and  N_8
REMARK    4  A    between atoms: C_9  and  C_11
REMARK    5  A    between atoms: N_17  and  C_18
REMARK                            x       y       z     vdW  Elec       q    Type
REMARK                         _______ _______ _______ _____ _____    ______ ____
ROOT
ATOM      1  O   UNL     1      14.092   8.289  18.795  0.00  0.00    -0.219 OA
ATOM      2  C   UNL     1      14.168   7.708  19.376  0.00  0.00    +0.199 C 
ATOM      3  C   UNL     1      14.868   7.332  19.597  0.00  0.00    +0.135 C 
ATOM      4  C   UNL     1      14.690   6.792  20.196  0.00  0.00    +0.162 C 
ATOM      5  O   UNL     1      13.879   6.835  20.345  0.00  0.00    -0.350 OA
ATOM      6  C   UNL     1      13.556   7.401  19.838  0.00  0.00    +0.169 C 
ENDROOT
BRANCH   6   7
ATOM      7  C   UNL     1      12.763   7.622  19.800  0.00  0.00    +0.148 C 
BRANCH   7   8
ATOM      8  N   UNL     1      12.347   7.786  20.494  0.00  0.00    -0.199 NA
ATOM      9  C   UNL     1      11.532   7.915  20.465  0.00  0.00    +0.265 C 
ATOM     10  O   UNL     1      11.133   7.880  19.744  0.00  0.00    -0.268 OA
BRANCH   9  11
ATOM     11  C   UNL     1      11.117   8.079  21.159  0.00  0.00    +0.055 A 
ATOM     12  C   UNL     1      10.735   7.471  21.565  0.00  0.00    +0.005 A 
ATOM     13  C   UNL     1      10.319   7.635  22.258  0.00  0.00    +0.000 A 
ATOM     14  C   UNL     1      10.285   8.407  22.545  0.00  0.00    +0.000 A 
ATOM     15  C   UNL     1      10.667   9.015  22.140  0.00  0.00    +0.000 A 
ATOM     16  C   UNL     1      11.082   8.851  21.447  0.00  0.00    +0.005 A 
ENDBRANCH   9  11
ENDBRANCH   7   8
ENDBRANCH   6   7
BRANCH   3  17
ATOM     17  N   UNL     1      15.615   7.470  19.276  0.00  0.00    -0.216 NA
BRANCH  17  18
ATOM     18  C   UNL     1      16.212   6.907  19.361  0.00  0.00    +0.076 C 
ATOM     19  C   UNL     1      16.735   6.955  19.996  0.00  0.00    +0.036 C 
ATOM     20  C   UNL     1      17.333   6.392  20.083  0.00  0.00    +0.090 C 
ATOM     21  N   UNL     1      17.405   5.781  19.533  0.00  0.00    -0.218 NA
ATOM     22  C   UNL     1      16.881   5.734  18.897  0.00  0.00    +0.090 C 
ATOM     23  C   UNL     1      16.284   6.297  18.811  0.00  0.00    +0.036 C 
ENDBRANCH  17  18
ENDBRANCH   3  17
TORSDOF 5
ENDMDL
MODEL 8
REMARK VINA RESULT:      -7.0     17.915     19.804
REMARK  Name = 
REMARK  5 active torsions:
REMARK  status: ('A' for Active; 'I' for Inactive)
REMARK    1  A    between atoms: C_3  and  N_17
REMARK    2  A    between atoms: C_6  and  C_7
REMARK    3  A    between atoms: C_7  and  N_8
REMARK    4  A    between atoms: C_9  and  C_11
REMARK    5  A    between atoms: N_17  and  C_18
REMARK                            x       y       z     vdW  Elec       q    Type
REMARK                         _______ _______ _______ _____ _____    ______ ____
ROOT
ATOM      1  O   UNL     1      14.414   8.571  17.133  0.00  0.00    -0.219 OA
ATOM      2  C   UNL     1      13.851   8.229  17.630  0.00  0.00    +0.199 C 
ATOM      3  C   UNL     1      13.066   8.469  17.711  0.00  0.00    +0.135 C 
ATOM      4  C   UNL     1      12.704   7.975  18.265  0.00  0.00    +0.162 C 
ATOM      5  O   UNL     1      13.266   7.429  18.525  0.00  0.00    -0.350 OA
ATOM      6  C   UNL     1      13.975   7.586  18.133  0.00  0.00    +0.169 C 
ENDROOT
BRANCH   6   7
ATOM      7  C   UNL     1      14.682   7.174  18.227  0.00  0.00    +0.148 C 
BRANCH   7   8
ATOM      8  N   UNL     1      15.076   7.189  18.952  0.00  0.00    -0.199 NA
ATOM      9  C   UNL     1      15.683   6.651  19.103  0.00  0.00    +0.265 C 
ATOM     10  O   UNL     1      15.897   6.097  18.530  0.00  0.00    -0.268 OA
BRANCH   9  11
ATOM     11  C   UNL     1      16.076   6.666  19.828  0.00  0.00    +0.055 A 
ATOM     12  C   UNL     1      16.864   6.909  19.866  0.00  0.00    +0.005 A 
ATOM     13  C   UNL     1      17.257   6.924  20.591  0.00  0.00    +0.000 A 
ATOM     14  C   UNL     1      16.862   6.697  21.278  0.00  0.00    +0.000 A 
ATOM     15  C   UNL     1      16.075   6.455  21.242  0.00  0.00    +0.000 A 
ATOM     16  C   UNL     1      15.681   6.439  20.517  0.00  0.00    +0.005 A 
ENDBRANCH   9  11
ENDBRANCH   7   8
ENDBRANCH   6   7
BRANCH   3  17
ATOM     17  N   UNL     1      12.706   9.094  17.310  0.00  0.00    -0.216 NA
BRANCH  17  18
ATOM     18  C   UNL     1      12.018   8.962  16.875  0.00  0.00    +0.076 C 
ATOM     19  C   UNL     1      12.014   9.093  16.061  0.00  0.00    +0.036 C 
ATOM     20  C   UNL     1      11.325   8.961  15.625  0.00  0.00    +0.090 C 
ATOM     21  N   UNL     1      10.641   8.699  16.004  0.00  0.00    -0.218 NA
ATOM     22  C   UNL     1      10.646   8.568  16.819  0.00  0.00    +0.090 C 
ATOM     23  C   UNL     1      11.334   8.700  17.255  0.00  0.00    +0.036 C 
ENDBRANCH  17  18
ENDBRANCH   3  17
TORSDOF 5
ENDMDL
