MODEL 1
REMARK VINA RESULT:     -11.5      0.000      0.000
REMARK  Name = 
REMARK  5 active torsions:
REMARK  status: ('A' for Active; 'I' for Inactive)
REMARK    1  A    between atoms: C_2  and  C_4
REMARK    2  A    between atoms: C_4  and  N_5
REMARK    3  A    between atoms: C_6  and  C_8
REMARK    4  A    between atoms: C_10  and  N_11
REMARK    5  A    between atoms: N_14  and  C_15
REMARK                            x       y       z     vdW  Elec       q    Type
REMARK                         _______ _______ _______ _____ _____    ______ ____
ROOT
ATOM      8  C   UNL     1      -4.154   3.010  24.809  0.00  0.00    +0.033 C 
ATOM      9  C   UNL     1      -4.251   2.221  24.592  0.00  0.00    -0.002 C 
ATOM     10  C   UNL     1      -4.883   1.784  24.893  0.00  0.00    +0.152 C 
ATOM     22  C   UNL     1      -5.418   2.137  25.412  0.00  0.00    +0.206 C 
ATOM     23  O   UNL     1      -6.050   1.701  25.714  0.00  0.00    -0.218 OA
ATOM     24  C   UNL     1      -5.321   2.928  25.630  0.00  0.00    +0.189 C 
ATOM     25  O   UNL     1      -5.856   3.281  26.148  0.00  0.00    -0.220 OA
ATOM     26  C   UNL     1      -4.690   3.364  25.328  0.00  0.00    +0.066 C 
ENDROOT
BRANCH  10  11
ATOM     11  N   UNL     1      -4.980   0.994  24.676  0.00  0.00    -0.181 NA
ATOM     12  C   UNL     1      -4.426   0.430  24.912  0.00  0.00    +0.344 C 
ATOM     13  O   UNL     1      -3.775   0.656  25.365  0.00  0.00    -0.249 OA
ATOM     14  N   UNL     1      -4.523  -0.360  24.695  0.00  0.00    -0.160 NA
BRANCH  14  15
ATOM     15  C   UNL     1      -3.969  -0.924  24.931  0.00  0.00    +0.081 A 
ATOM     16  C   UNL     1      -3.541  -0.817  25.627  0.00  0.00    +0.017 A 
ATOM     17  C   UNL     1      -2.988  -1.381  25.862  0.00  0.00    +0.001 A 
ATOM     18  C   UNL     1      -2.862  -2.053  25.401  0.00  0.00    +0.001 A 
ATOM     19  C   UNL     1      -3.290  -2.161  24.704  0.00  0.00    +0.008 A 
ATOM     20  C   UNL     1      -3.844  -1.596  24.469  0.00  0.00    +0.050 A 
ATOM     21 BR   UNL     1      -4.272  -1.704  23.772  0.00  0.00    -0.048 Br
ENDBRANCH  14  15
ENDBRANCH  10  11
BRANCH   8   6
ATOM      5  N   UNL     1      -2.882   3.634  24.991  0.00  0.00    -0.192 NA
ATOM      6  C   UNL     1      -3.523   3.447  24.508  0.00  0.00    +0.261 C 
ATOM      7  O   UNL     1      -3.532   3.697  23.720  0.00  0.00    -0.269 OA
BRANCH   5   4
ATOM      4  C   UNL     1      -2.250   4.071  24.690  0.00  0.00    +0.203 C 
BRANCH   4   2
ATOM      1  N   UNL     1      -1.079   3.762  25.449  0.00  0.00    -0.086 NA
ATOM      2  C   UNL     1      -1.638   4.310  25.188  0.00  0.00    +0.283 C 
ATOM      3  O   UNL     1      -1.585   5.098  25.427  0.00  0.00    -0.270 OA
ENDBRANCH   4   2
ENDBRANCH   5   4
ENDBRANCH   8   6
TORSDOF 5
ENDMDL
MODEL 2
REMARK VINA RESULT:     -10.6      2.122      3.249
REMARK  Name = 
REMARK  5 active torsions:
REMARK  status: ('A' for Active; 'I' for Inactive)
REMARK    1  A    between atoms: C_2  and  C_4
REMARK    2  A    between atoms: C_4  and  N_5
REMARK    3  A    between atoms: C_6  and  C_8
REMARK    4  A    between atoms: C_10  and  N_11
REMARK    5  A    between atoms: N_14  and  C_15
REMARK                            x       y       z     vdW  Elec       q    Type
REMARK                         _______ _______ _______ _____ _____    ______ ____
ROOT
ATOM      8  C   UNL     1      -1.413   2.313  25.195  0.00  0.00    +0.033 C 
ATOM      9  C   UNL     1      -1.629   1.534  25.356  0.00  0.00    -0.002 C 
ATOM     10  C   UNL     1      -1.145   0.912  25.110  0.00  0.00    +0.152 C 
ATOM     22  C   UNL     1      -0.446   1.070  24.702  0.00  0.00    +0.206 C 
ATOM     23  O   UNL     1       0.038   0.450  24.456  0.00  0.00    -0.218 OA
ATOM     24  C   UNL     1      -0.229   1.851  24.541  0.00  0.00    +0.189 C 
ATOM     25  O   UNL     1       0.470   2.009  24.134  0.00  0.00    -0.220 OA
ATOM     26  C   UNL     1      -0.713   2.472  24.787  0.00  0.00    +0.066 C 
ENDROOT
BRANCH  10  11
ATOM     11  N   UNL     1      -1.361   0.133  25.271  0.00  0.00    -0.181 NA
ATOM     12  C   UNL     1      -2.026  -0.195  24.908  0.00  0.00    +0.344 C 
ATOM     13  O   UNL     1      -2.475   0.257  24.384  0.00  0.00    -0.249 OA
ATOM     14  N   UNL     1      -2.242  -0.974  25.069  0.00  0.00    -0.160 NA
BRANCH  14  15
ATOM     15  C   UNL     1      -2.907  -1.302  24.707  0.00  0.00    +0.081 A 
ATOM     16  C   UNL     1      -3.575  -0.839  24.573  0.00  0.00    +0.017 A 
ATOM     17  C   UNL     1      -4.239  -1.167  24.211  0.00  0.00    +0.001 A 
ATOM     18  C   UNL     1      -4.234  -1.960  23.982  0.00  0.00    +0.001 A 
ATOM     19  C   UNL     1      -3.565  -2.424  24.115  0.00  0.00    +0.008 A 
ATOM     20  C   UNL     1      -2.902  -2.095  24.478  0.00  0.00    +0.050 A 
ATOM     21 BR   UNL     1      -2.232  -2.559  24.611  0.00  0.00    -0.048 Br
ENDBRANCH  14  15
ENDBRANCH  10  11
BRANCH   8   6
ATOM      5  N   UNL     1      -2.604   3.089  25.047  0.00  0.00    -0.192 NA
ATOM      6  C   UNL     1      -1.896   2.936  25.441  0.00  0.00    +0.261 C 
ATOM      7  O   UNL     1      -1.670   3.404  26.082  0.00  0.00    -0.269 OA
BRANCH   5   4
ATOM      4  C   UNL     1      -3.087   3.711  25.293  0.00  0.00    +0.203 C 
BRANCH   4   2
ATOM      1  N   UNL     1      -4.511   3.765  25.396  0.00  0.00    -0.086 NA
ATOM      2  C   UNL     1      -3.824   3.825  24.942  0.00  0.00    +0.283 C 
ATOM      3  O   UNL     1      -3.876   3.999  24.138  0.00  0.00    -0.270 OA
ENDBRANCH   4   2
ENDBRANCH   5   4
ENDBRANCH   8   6
TORSDOF 5
ENDMDL
MODEL 3
REMARK VINA RESULT:     -10.5      1.793      2.914
REMARK  Name = 
REMARK  5 active torsions:
REMARK  status: ('A' for Active; 'I' for Inactive)
REMARK    1  A    between atoms: C_2  and  C_4
REMARK    2  A    between atoms: C_4  and  N_5
REMARK    3  A    between atoms: C_6  and  C_8
REMARK    4  A    between atoms: C_10  and  N_11
REMARK    5  A    between atoms: N_14  and  C_15
REMARK                            x       y       z     vdW  Elec       q    Type
REMARK                         _______ _______ _______ _____ _____    ______ ____
ROOT
ATOM      8  C   UNL     1      -2.634   2.668  24.978  0.00  0.00    +0.033 C 
ATOM      9  C   UNL     1      -2.495   1.921  24.658  0.00  0.00    -0.002 C 
ATOM     10  C   UNL     1      -1.802   1.514  24.845  0.00  0.00    +0.152 C 
ATOM     22  C   UNL     1      -1.248   1.856  25.351  0.00  0.00    +0.206 C 
ATOM     23  O   UNL     1      -0.554   1.450  25.539  0.00  0.00    -0.218 OA
ATOM     24  C   UNL     1      -1.387   2.604  25.672  0.00  0.00    +0.189 C 
ATOM     25  O   UNL     1      -0.833   2.945  26.178  0.00  0.00    -0.220 OA
ATOM     26  C   UNL     1      -2.080   3.009  25.485  0.00  0.00    +0.066 C 
ENDROOT
BRANCH  10  11
ATOM     11  N   UNL     1      -1.662   0.767  24.525  0.00  0.00    -0.181 NA
ATOM     12  C   UNL     1      -2.211   0.161  24.637  0.00  0.00    +0.344 C 
ATOM     13  O   UNL     1      -2.899   0.303  25.069  0.00  0.00    -0.249 OA
ATOM     14  N   UNL     1      -2.072  -0.586  24.317  0.00  0.00    -0.160 NA
BRANCH  14  15
ATOM     15  C   UNL     1      -2.620  -1.192  24.429  0.00  0.00    +0.081 A 
ATOM     16  C   UNL     1      -3.427  -1.038  24.358  0.00  0.00    +0.017 A 
ATOM     17  C   UNL     1      -3.975  -1.643  24.470  0.00  0.00    +0.001 A 
ATOM     18  C   UNL     1      -3.715  -2.405  24.652  0.00  0.00    +0.001 A 
ATOM     19  C   UNL     1      -2.908  -2.561  24.723  0.00  0.00    +0.008 A 
ATOM     20  C   UNL     1      -2.361  -1.954  24.611  0.00  0.00    +0.050 A 
ATOM     21 BR   UNL     1      -1.553  -2.109  24.682  0.00  0.00    -0.048 Br
ENDBRANCH  14  15
ENDBRANCH  10  11
BRANCH   8   6
ATOM      5  N   UNL     1      -3.978   3.035  25.296  0.00  0.00    -0.192 NA
ATOM      6  C   UNL     1      -3.328   3.075  24.791  0.00  0.00    +0.261 C 
ATOM      7  O   UNL     1      -3.369   3.522  24.098  0.00  0.00    -0.269 OA
BRANCH   5   4
ATOM      4  C   UNL     1      -4.672   3.441  25.109  0.00  0.00    +0.203 C 
BRANCH   4   2
ATOM      1  N   UNL     1      -5.771   4.057  25.783  0.00  0.00    -0.086 NA
ATOM      2  C   UNL     1      -5.330   3.383  25.602  0.00  0.00    +0.283 C 
ATOM      3  O   UNL     1      -5.548   2.652  25.914  0.00  0.00    -0.270 OA
ENDBRANCH   4   2
ENDBRANCH   5   4
ENDBRANCH   8   6
TORSDOF 5
ENDMDL
MODEL 4
REMARK VINA RESULT:     -10.4      2.596      4.573
REMARK  Name = 
REMARK  5 active torsions:
REMARK  status: ('A' for Active; 'I' for Inactive)
REMARK    1  A    between atoms: C_2  and  C_4
REMARK    2  A    between atoms: C_4  and  N_5
REMARK    3  A    between atoms: C_6  and  C_8
REMARK    4  A    between atoms: C_10  and  N_11
REMARK    5  A    between atoms: N_14  and  C_15
REMARK                            x       y       z     vdW  Elec       q    Type
REMARK                         _______ _______ _______ _____ _____    ______ ____
ROOT
ATOM      8  C   UNL     1      -0.672   1.354  24.801  0.00  0.00    +0.033 C 
ATOM      9  C   UNL     1      -1.370   1.747  24.607  0.00  0.00    -0.002 C 
ATOM     10  C   UNL     1      -1.548   2.471  24.960  0.00  0.00    +0.152 C 
ATOM     22  C   UNL     1      -1.027   2.801  25.509  0.00  0.00    +0.206 C 
ATOM     23  O   UNL     1      -1.204   3.525  25.863  0.00  0.00    -0.218 OA
ATOM     24  C   UNL     1      -0.328   2.407  25.703  0.00  0.00    +0.189 C 
ATOM     25  O   UNL     1       0.192   2.737  26.251  0.00  0.00    -0.220 OA
ATOM     26  C   UNL     1      -0.151   1.683  25.349  0.00  0.00    +0.066 C 
ENDROOT
BRANCH  10  11
ATOM     11  N   UNL     1      -2.246   2.865  24.766  0.00  0.00    -0.181 NA
ATOM     12  C   UNL     1      -2.976   2.514  24.924  0.00  0.00    +0.344 C 
ATOM     13  O   UNL     1      -3.007   1.769  25.277  0.00  0.00    -0.249 OA
ATOM     14  N   UNL     1      -3.674   2.908  24.730  0.00  0.00    -0.160 NA
BRANCH  14  15
ATOM     15  C   UNL     1      -4.404   2.557  24.888  0.00  0.00    +0.081 A 
ATOM     16  C   UNL     1      -4.536   1.769  24.686  0.00  0.00    +0.017 A 
ATOM     17  C   UNL     1      -5.265   1.419  24.844  0.00  0.00    +0.001 A 
ATOM     18  C   UNL     1      -5.863   1.858  25.204  0.00  0.00    +0.001 A 
ATOM     19  C   UNL     1      -5.732   2.647  25.407  0.00  0.00    +0.008 A 
ATOM     20  C   UNL     1      -5.002   2.996  25.249  0.00  0.00    +0.050 A 
ATOM     21 BR   UNL     1      -4.870   3.786  25.452  0.00  0.00    -0.048 Br
ENDBRANCH  14  15
ENDBRANCH  10  11
BRANCH   8   6
ATOM      5  N   UNL     1      -0.697  -0.075  24.823  0.00  0.00    -0.192 NA
ATOM      6  C   UNL     1      -0.494   0.630  24.447  0.00  0.00    +0.261 C 
ATOM      7  O   UNL     1      -0.111   0.611  23.715  0.00  0.00    -0.269 OA
BRANCH   5   4
ATOM      4  C   UNL     1      -0.519  -0.799  24.470  0.00  0.00    +0.203 C 
BRANCH   4   2
ATOM      1  N   UNL     1      -1.422  -1.904  24.553  0.00  0.00    -0.086 NA
ATOM      2  C   UNL     1      -0.755  -1.503  24.828  0.00  0.00    +0.283 C 
ATOM      3  O   UNL     1      -0.324  -1.807  25.463  0.00  0.00    -0.270 OA
ENDBRANCH   4   2
ENDBRANCH   5   4
ENDBRANCH   8   6
TORSDOF 5
ENDMDL
MODEL 5
REMARK VINA RESULT:     -10.2      2.307      4.476
REMARK  Name = 
REMARK  5 active torsions:
REMARK  status: ('A' for Active; 'I' for Inactive)
REMARK    1  A    between atoms: C_2  and  C_4
REMARK    2  A    between atoms: C_4  and  N_5
REMARK    3  A    between atoms: C_6  and  C_8
REMARK    4  A    between atoms: C_10  and  N_11
REMARK    5  A    between atoms: N_14  and  C_15
REMARK                            x       y       z     vdW  Elec       q    Type
REMARK                         _______ _______ _______ _____ _____    ______ ____
ROOT
ATOM      8  C   UNL     1      -2.443  -1.073  24.734  0.00  0.00    +0.033 C 
ATOM      9  C   UNL     1      -2.968  -0.473  24.945  0.00  0.00    -0.002 C 
ATOM     10  C   UNL     1      -3.775  -0.558  24.797  0.00  0.00    +0.152 C 
ATOM     22  C   UNL     1      -4.057  -1.244  24.437  0.00  0.00    +0.206 C 
ATOM     23  O   UNL     1      -4.864  -1.331  24.288  0.00  0.00    -0.218 OA
ATOM     24  C   UNL     1      -3.533  -1.846  24.225  0.00  0.00    +0.189 C 
ATOM     25  O   UNL     1      -3.815  -2.532  23.866  0.00  0.00    -0.220 OA
ATOM     26  C   UNL     1      -2.726  -1.760  24.374  0.00  0.00    +0.066 C 
ENDROOT
BRANCH  10  11
ATOM     11  N   UNL     1      -4.299   0.042  25.008  0.00  0.00    -0.181 NA
ATOM     12  C   UNL     1      -4.158   0.818  24.765  0.00  0.00    +0.344 C 
ATOM     13  O   UNL     1      -3.492   0.993  24.311  0.00  0.00    -0.249 OA
ATOM     14  N   UNL     1      -4.682   1.419  24.976  0.00  0.00    -0.160 NA
BRANCH  14  15
ATOM     15  C   UNL     1      -4.541   2.195  24.733  0.00  0.00    +0.081 A 
ATOM     16  C   UNL     1      -4.039   2.344  24.097  0.00  0.00    +0.017 A 
ATOM     17  C   UNL     1      -3.898   3.119  23.855  0.00  0.00    +0.001 A 
ATOM     18  C   UNL     1      -4.261   3.746  24.249  0.00  0.00    +0.001 A 
ATOM     19  C   UNL     1      -4.764   3.598  24.886  0.00  0.00    +0.008 A 
ATOM     20  C   UNL     1      -4.904   2.822  25.128  0.00  0.00    +0.050 A 
ATOM     21 BR   UNL     1      -5.408   2.673  25.765  0.00  0.00    -0.048 Br
ENDBRANCH  14  15
ENDBRANCH  10  11
BRANCH   8   6
ATOM      5  N   UNL     1      -1.143  -0.659  24.309  0.00  0.00    -0.192 NA
ATOM      6  C   UNL     1      -1.636  -0.988  24.882  0.00  0.00    +0.261 C 
ATOM      7  O   UNL     1      -1.322  -1.233  25.606  0.00  0.00    -0.269 OA
BRANCH   5   4
ATOM      4  C   UNL     1      -0.336  -0.574  24.458  0.00  0.00    +0.203 C 
BRANCH   4   2
ATOM      1  N   UNL     1       0.223   0.615  23.897  0.00  0.00    -0.086 NA
ATOM      2  C   UNL     1       0.150  -0.207  23.902  0.00  0.00    +0.283 C 
ATOM      3  O   UNL     1       0.562  -0.661  23.350  0.00  0.00    -0.270 OA
ENDBRANCH   4   2
ENDBRANCH   5   4
ENDBRANCH   8   6
TORSDOF 5
ENDMDL
MODEL 6
REMARK VINA RESULT:     -10.1      1.931      3.448
REMARK  Name = 
REMARK  5 active torsions:
REMARK  status: ('A' for Active; 'I' for Inactive)
REMARK    1  A    between atoms: C_2  and  C_4
REMARK    2  A    between atoms: C_4  and  N_5
REMARK    3  A    between atoms: C_6  and  C_8
REMARK    4  A    between atoms: C_10  and  N_11
REMARK    5  A    between atoms: N_14  and  C_15
REMARK                            x       y       z     vdW  Elec       q    Type
REMARK                         _______ _______ _______ _____ _____    ______ ____
ROOT
ATOM      8  C   UNL     1      -2.948   3.400  24.704  0.00  0.00    +0.033 C 
ATOM      9  C   UNL     1      -2.412   2.810  24.492  0.00  0.00    -0.002 C 
ATOM     10  C   UNL     1      -1.605   2.917  24.627  0.00  0.00    +0.152 C 
ATOM     22  C   UNL     1      -1.334   3.615  24.974  0.00  0.00    +0.206 C 
ATOM     23  O   UNL     1      -0.527   3.722  25.109  0.00  0.00    -0.218 OA
ATOM     24  C   UNL     1      -1.870   4.206  25.187  0.00  0.00    +0.189 C 
ATOM     25  O   UNL     1      -1.599   4.902  25.533  0.00  0.00    -0.220 OA
ATOM     26  C   UNL     1      -2.676   4.098  25.052  0.00  0.00    +0.066 C 
ENDROOT
BRANCH  10  11
ATOM     11  N   UNL     1      -1.070   2.327  24.415  0.00  0.00    -0.181 NA
ATOM     12  C   UNL     1      -1.161   1.561  24.707  0.00  0.00    +0.344 C 
ATOM     13  O   UNL     1      -1.789   1.385  25.212  0.00  0.00    -0.249 OA
ATOM     14  N   UNL     1      -0.626   0.971  24.495  0.00  0.00    -0.160 NA
BRANCH  14  15
ATOM     15  C   UNL     1      -0.717   0.205  24.787  0.00  0.00    +0.081 A 
ATOM     16  C   UNL     1      -1.129   0.078  25.490  0.00  0.00    +0.017 A 
ATOM     17  C   UNL     1      -1.220  -0.688  25.782  0.00  0.00    +0.001 A 
ATOM     18  C   UNL     1      -0.900  -1.327  25.370  0.00  0.00    +0.001 A 
ATOM     19  C   UNL     1      -0.488  -1.200  24.667  0.00  0.00    +0.008 A 
ATOM     20  C   UNL     1      -0.397  -0.434  24.376  0.00  0.00    +0.050 A 
ATOM     21 BR   UNL     1       0.015  -0.307  23.671  0.00  0.00    -0.048 Br
ENDBRANCH  14  15
ENDBRANCH  10  11
BRANCH   8   6
ATOM      5  N   UNL     1      -4.242   3.021  25.176  0.00  0.00    -0.192 NA
ATOM      6  C   UNL     1      -3.755   3.294  24.570  0.00  0.00    +0.261 C 
ATOM      7  O   UNL     1      -4.074   3.460  23.827  0.00  0.00    -0.269 OA
BRANCH   5   4
ATOM      4  C   UNL     1      -5.049   2.915  25.042  0.00  0.00    +0.203 C 
BRANCH   4   2
ATOM      1  N   UNL     1      -5.790   1.801  25.546  0.00  0.00    -0.086 NA
ATOM      2  C   UNL     1      -5.524   2.579  25.625  0.00  0.00    +0.283 C 
ATOM      3  O   UNL     1      -5.735   3.020  26.290  0.00  0.00    -0.270 OA
ENDBRANCH   4   2
ENDBRANCH   5   4
ENDBRANCH   8   6
TORSDOF 5
ENDMDL
MODEL 7
REMARK VINA RESULT:      -9.9      2.918      5.544
REMARK  Name = 
REMARK  5 active torsions:
REMARK  status: ('A' for Active; 'I' for Inactive)
REMARK    1  A    between atoms: C_2  and  C_4
REMARK    2  A    between atoms: C_4  and  N_5
REMARK    3  A    between atoms: C_6  and  C_8
REMARK    4  A    between atoms: C_10  and  N_11
REMARK    5  A    between atoms: N_14  and  C_15
REMARK                            x       y       z     vdW  Elec       q    Type
REMARK                         _______ _______ _______ _____ _____    ______ ____
ROOT
ATOM      8  C   UNL     1      -0.781  -0.602  24.657  0.00  0.00    +0.033 C 
ATOM      9  C   UNL     1      -1.015   0.110  25.001  0.00  0.00    -0.002 C 
ATOM     10  C   UNL     1      -0.687   0.821  24.742  0.00  0.00    +0.152 C 
ATOM     22  C   UNL     1      -0.125   0.820  24.138  0.00  0.00    +0.206 C 
ATOM     23  O   UNL     1       0.203   1.531  23.878  0.00  0.00    -0.218 OA
ATOM     24  C   UNL     1       0.109   0.107  23.793  0.00  0.00    +0.189 C 
ATOM     25  O   UNL     1       0.671   0.106  23.190  0.00  0.00    -0.220 OA
ATOM     26  C   UNL     1      -0.219  -0.603  24.053  0.00  0.00    +0.066 C 
ENDROOT
BRANCH  10  11
ATOM     11  N   UNL     1      -0.921   1.533  25.086  0.00  0.00    -0.181 NA
ATOM     12  C   UNL     1      -1.675   1.834  24.940  0.00  0.00    +0.344 C 
ATOM     13  O   UNL     1      -2.196   1.423  24.450  0.00  0.00    -0.249 OA
ATOM     14  N   UNL     1      -1.909   2.546  25.284  0.00  0.00    -0.160 NA
BRANCH  14  15
ATOM     15  C   UNL     1      -2.663   2.848  25.139  0.00  0.00    +0.081 A 
ATOM     16  C   UNL     1      -3.271   2.343  24.903  0.00  0.00    +0.017 A 
ATOM     17  C   UNL     1      -4.024   2.645  24.758  0.00  0.00    +0.001 A 
ATOM     18  C   UNL     1      -4.170   3.452  24.848  0.00  0.00    +0.001 A 
ATOM     19  C   UNL     1      -3.562   3.957  25.084  0.00  0.00    +0.008 A 
ATOM     20  C   UNL     1      -2.808   3.655  25.229  0.00  0.00    +0.050 A 
ATOM     21 BR   UNL     1      -2.200   4.160  25.465  0.00  0.00    -0.048 Br
ENDBRANCH  14  15
ENDBRANCH  10  11
BRANCH   8   6
ATOM      5  N   UNL     1      -1.851  -1.549  24.645  0.00  0.00    -0.192 NA
ATOM      6  C   UNL     1      -1.109  -1.314  24.916  0.00  0.00    +0.261 C 
ATOM      7  O   UNL     1      -0.693  -1.790  25.447  0.00  0.00    -0.269 OA
BRANCH   5   4
ATOM      4  C   UNL     1      -2.179  -2.261  24.904  0.00  0.00    +0.203 C 
BRANCH   4   2
ATOM      1  N   UNL     1      -3.568  -2.326  25.235  0.00  0.00    -0.086 NA
ATOM      2  C   UNL     1      -2.953  -2.458  24.700  0.00  0.00    +0.283 C 
ATOM      3  O   UNL     1      -3.113  -2.787  23.961  0.00  0.00    -0.270 OA
ENDBRANCH   4   2
ENDBRANCH   5   4
ENDBRANCH   8   6
TORSDOF 5
ENDMDL
