MODEL 1
REMARK VINA RESULT:     -11.9      0.000      0.000
REMARK  Name = 
REMARK  5 active torsions:
REMARK  status: ('A' for Active; 'I' for Inactive)
REMARK    1  A    between atoms: O_2  and  C_3
REMARK    2  A    between atoms: C_6  and  C_9
REMARK    3  A    between atoms: C_15  and  N_16
REMARK    4  A    between atoms: C_17  and  C_19
REMARK    5  A    between atoms: C_22  and  C_25
REMARK                            x       y       z     vdW  Elec       q    Type
REMARK                         _______ _______ _______ _____ _____    ______ ____
ROOT
ATOM      9  C   UNL     1      -3.691   2.657  24.809  0.00  0.00    +0.048 C 
ATOM     10  C   UNL     1      -4.116   3.340  24.992  0.00  0.00    +0.042 C 
ATOM     11  C   UNL     1      -4.909   3.132  25.074  0.00  0.00    +0.184 C 
ATOM     12  O   UNL     1      -5.529   3.646  25.256  0.00  0.00    -0.220 OA
ATOM     13  C   UNL     1      -4.976   2.321  24.941  0.00  0.00    +0.202 C 
ATOM     14  O   UNL     1      -5.674   1.881  24.968  0.00  0.00    -0.219 OA
ATOM     15  C   UNL     1      -4.223   2.026  24.777  0.00  0.00    +0.132 C 
ENDROOT
BRANCH   9   6
ATOM      3  C   UNL     1      -1.251   2.520  24.421  0.00  0.00    +0.139 A 
ATOM      4  C   UNL     1      -1.771   2.493  23.783  0.00  0.00    +0.037 A 
ATOM      5  C   UNL     1      -2.586   2.539  23.912  0.00  0.00    -0.001 A 
ATOM      6  C   UNL     1      -2.878   2.611  24.680  0.00  0.00    -0.020 A 
ATOM      7  C   UNL     1      -2.357   2.637  25.318  0.00  0.00    -0.001 A 
ATOM      8  C   UNL     1      -1.542   2.591  25.189  0.00  0.00    +0.037 A 
BRANCH   3   2
ATOM      1  C   UNL     1      -0.038   1.764  24.422  0.00  0.00    +0.252 C 
ATOM      2  O   UNL     1      -0.437   2.474  24.292  0.00  0.00    -0.471 OA
ENDBRANCH   3   2
ENDBRANCH   9   6
BRANCH  15  16
ATOM     16  N   UNL     1      -4.035   1.241  24.611  0.00  0.00    -0.200 NA
ATOM     17  C   UNL     1      -4.336   0.636  25.085  0.00  0.00    +0.265 C 
ATOM     18  O   UNL     1      -4.825   0.817  25.724  0.00  0.00    -0.268 OA
BRANCH  17  19
ATOM     19  C   UNL     1      -4.148  -0.150  24.919  0.00  0.00    +0.055 A 
ATOM     20  C   UNL     1      -4.353  -0.479  24.191  0.00  0.00    +0.005 A 
ATOM     21  C   UNL     1      -4.165  -1.265  24.025  0.00  0.00    +0.010 A 
ATOM     22  C   UNL     1      -3.771  -1.722  24.588  0.00  0.00    +0.068 A 
ATOM     23  C   UNL     1      -3.566  -1.393  25.316  0.00  0.00    +0.010 A 
ATOM     24  C   UNL     1      -3.754  -0.607  25.482  0.00  0.00    +0.005 A 
BRANCH  22  25
ATOM     25  C   UNL     1      -3.583  -2.508  24.422  0.00  0.00    +0.100 C 
ATOM     26  N   UNL     1      -3.395  -3.293  24.256  0.00  0.00    -0.191 NA
ENDBRANCH  22  25
ENDBRANCH  17  19
ENDBRANCH  15  16
TORSDOF 5
ENDMDL
MODEL 2
REMARK VINA RESULT:     -11.1      1.541      3.822
REMARK  Name = 
REMARK  5 active torsions:
REMARK  status: ('A' for Active; 'I' for Inactive)
REMARK    1  A    between atoms: O_2  and  C_3
REMARK    2  A    between atoms: C_6  and  C_9
REMARK    3  A    between atoms: C_15  and  N_16
REMARK    4  A    between atoms: C_17  and  C_19
REMARK    5  A    between atoms: C_22  and  C_25
REMARK                            x       y       z     vdW  Elec       q    Type
REMARK                         _______ _______ _______ _____ _____    ______ ____
ROOT
ATOM      9  C   UNL     1      -4.543   0.594  24.901  0.00  0.00    +0.048 C 
ATOM     10  C   UNL     1      -5.332   0.831  24.946  0.00  0.00    +0.042 C 
ATOM     11  C   UNL     1      -5.349   1.654  24.988  0.00  0.00    +0.184 C 
ATOM     12  O   UNL     1      -6.026   2.123  25.039  0.00  0.00    -0.220 OA
ATOM     13  C   UNL     1      -4.570   1.927  24.969  0.00  0.00    +0.202 C 
ATOM     14  O   UNL     1      -4.332   2.717  24.999  0.00  0.00    -0.219 OA
ATOM     15  C   UNL     1      -4.072   1.272  24.916  0.00  0.00    +0.132 C 
ENDROOT
BRANCH   9   6
ATOM      3  C   UNL     1      -3.729  -1.738  24.750  0.00  0.00    +0.139 A 
ATOM      4  C   UNL     1      -4.062  -1.375  24.089  0.00  0.00    +0.037 A 
ATOM      5  C   UNL     1      -4.334  -0.596  24.140  0.00  0.00    -0.001 A 
ATOM      6  C   UNL     1      -4.271  -0.183  24.851  0.00  0.00    -0.020 A 
ATOM      7  C   UNL     1      -3.938  -0.547  25.511  0.00  0.00    -0.001 A 
ATOM      8  C   UNL     1      -3.666  -1.325  25.460  0.00  0.00    +0.037 A 
BRANCH   3   2
ATOM      1  C   UNL     1      -2.683  -2.668  24.459  0.00  0.00    +0.252 C 
ATOM      2  O   UNL     1      -3.458  -2.516  24.699  0.00  0.00    -0.471 OA
ENDBRANCH   3   2
ENDBRANCH   9   6
BRANCH  15  16
ATOM     16  N   UNL     1      -3.248   1.291  24.883  0.00  0.00    -0.200 NA
ATOM     17  C   UNL     1      -2.869   1.760  24.320  0.00  0.00    +0.265 C 
ATOM     18  O   UNL     1      -3.313   2.209  23.790  0.00  0.00    -0.268 OA
BRANCH  17  19
ATOM     19  C   UNL     1      -2.045   1.779  24.286  0.00  0.00    +0.055 A 
ATOM     20  C   UNL     1      -1.613   2.076  24.923  0.00  0.00    +0.005 A 
ATOM     21  C   UNL     1      -0.788   2.095  24.890  0.00  0.00    +0.010 A 
ATOM     22  C   UNL     1      -0.397   1.817  24.219  0.00  0.00    +0.068 A 
ATOM     23  C   UNL     1      -0.828   1.520  23.582  0.00  0.00    +0.010 A 
ATOM     24  C   UNL     1      -1.653   1.501  23.616  0.00  0.00    +0.005 A 
BRANCH  22  25
ATOM     25  C   UNL     1       0.428   1.836  24.186  0.00  0.00    +0.100 C 
ATOM     26  N   UNL     1       1.251   1.855  24.153  0.00  0.00    -0.191 NA
ENDBRANCH  22  25
ENDBRANCH  17  19
ENDBRANCH  15  16
TORSDOF 5
ENDMDL
MODEL 3
REMARK VINA RESULT:     -10.6      1.801      3.457
REMARK  Name = 
REMARK  5 active torsions:
REMARK  status: ('A' for Active; 'I' for Inactive)
REMARK    1  A    between atoms: O_2  and  C_3
REMARK    2  A    between atoms: C_6  and  C_9
REMARK    3  A    between atoms: C_15  and  N_16
REMARK    4  A    between atoms: C_17  and  C_19
REMARK    5  A    between atoms: C_22  and  C_25
REMARK                            x       y       z     vdW  Elec       q    Type
REMARK                         _______ _______ _______ _____ _____    ______ ____
ROOT
ATOM      9  C   UNL     1      -2.350   3.747  25.006  0.00  0.00    +0.048 C 
ATOM     10  C   UNL     1      -2.079   4.521  25.092  0.00  0.00    +0.042 C 
ATOM     11  C   UNL     1      -1.257   4.511  25.035  0.00  0.00    +0.184 C 
ATOM     12  O   UNL     1      -0.759   5.167  25.089  0.00  0.00    -0.220 OA
ATOM     13  C   UNL     1      -1.019   3.731  24.914  0.00  0.00    +0.202 C 
ATOM     14  O   UNL     1      -0.241   3.469  24.826  0.00  0.00    -0.219 OA
ATOM     15  C   UNL     1      -1.694   3.258  24.896  0.00  0.00    +0.132 C 
ENDROOT
BRANCH   9   6
ATOM      3  C   UNL     1      -4.714   3.016  25.068  0.00  0.00    +0.139 A 
ATOM      4  C   UNL     1      -4.330   3.230  25.766  0.00  0.00    +0.037 A 
ATOM      5  C   UNL     1      -3.541   3.474  25.745  0.00  0.00    -0.001 A 
ATOM      6  C   UNL     1      -3.138   3.503  25.027  0.00  0.00    -0.020 A 
ATOM      7  C   UNL     1      -3.521   3.288  24.329  0.00  0.00    -0.001 A 
ATOM      8  C   UNL     1      -4.310   3.044  24.350  0.00  0.00    +0.037 A 
BRANCH   3   2
ATOM      1  C   UNL     1      -5.686   1.968  25.060  0.00  0.00    +0.252 C 
ATOM      2  O   UNL     1      -5.501   2.772  25.089  0.00  0.00    -0.471 OA
ENDBRANCH   3   2
ENDBRANCH   9   6
BRANCH  15  16
ATOM     16  N   UNL     1      -1.711   2.441  24.787  0.00  0.00    -0.200 NA
ATOM     17  C   UNL     1      -1.230   1.954  25.248  0.00  0.00    +0.265 C 
ATOM     18  O   UNL     1      -0.731   2.284  25.816  0.00  0.00    -0.268 OA
BRANCH  17  19
ATOM     19  C   UNL     1      -1.247   1.136  25.139  0.00  0.00    +0.055 A 
ATOM     20  C   UNL     1      -1.113   0.816  24.390  0.00  0.00    +0.005 A 
ATOM     21  C   UNL     1      -1.130  -0.002  24.282  0.00  0.00    +0.010 A 
ATOM     22  C   UNL     1      -1.281  -0.500  24.922  0.00  0.00    +0.068 A 
ATOM     23  C   UNL     1      -1.414  -0.180  25.671  0.00  0.00    +0.010 A 
ATOM     24  C   UNL     1      -1.397   0.638  25.780  0.00  0.00    +0.005 A 
BRANCH  22  25
ATOM     25  C   UNL     1      -1.298  -1.318  24.814  0.00  0.00    +0.100 C 
ATOM     26  N   UNL     1      -1.314  -2.135  24.705  0.00  0.00    -0.191 NA
ENDBRANCH  22  25
ENDBRANCH  17  19
ENDBRANCH  15  16
TORSDOF 5
ENDMDL
MODEL 4
REMARK VINA RESULT:     -10.6      1.725      3.765
REMARK  Name = 
REMARK  5 active torsions:
REMARK  status: ('A' for Active; 'I' for Inactive)
REMARK    1  A    between atoms: O_2  and  C_3
REMARK    2  A    between atoms: C_6  and  C_9
REMARK    3  A    between atoms: C_15  and  N_16
REMARK    4  A    between atoms: C_17  and  C_19
REMARK    5  A    between atoms: C_22  and  C_25
REMARK                            x       y       z     vdW  Elec       q    Type
REMARK                         _______ _______ _______ _____ _____    ______ ____
ROOT
ATOM      9  C   UNL     1      -2.252  -0.752  24.754  0.00  0.00    +0.048 C 
ATOM     10  C   UNL     1      -2.132  -1.540  24.543  0.00  0.00    +0.042 C 
ATOM     11  C   UNL     1      -2.868  -1.908  24.500  0.00  0.00    +0.184 C 
ATOM     12  O   UNL     1      -3.006  -2.698  24.305  0.00  0.00    -0.220 OA
ATOM     13  C   UNL     1      -3.445  -1.347  24.684  0.00  0.00    +0.202 C 
ATOM     14  O   UNL     1      -4.259  -1.478  24.707  0.00  0.00    -0.219 OA
ATOM     15  C   UNL     1      -3.064  -0.633  24.842  0.00  0.00    +0.132 C 
ENDROOT
BRANCH   9   6
ATOM      3  C   UNL     1      -0.489   0.955  25.071  0.00  0.00    +0.139 A 
ATOM      4  C   UNL     1      -0.839   0.599  25.726  0.00  0.00    +0.037 A 
ATOM      5  C   UNL     1      -1.427   0.029  25.620  0.00  0.00    -0.001 A 
ATOM      6  C   UNL     1      -1.664  -0.183  24.860  0.00  0.00    -0.020 A 
ATOM      7  C   UNL     1      -1.314   0.174  24.204  0.00  0.00    -0.001 A 
ATOM      8  C   UNL     1      -0.725   0.744  24.310  0.00  0.00    +0.037 A 
BRANCH   3   2
ATOM      1  C   UNL     1      -0.099   2.277  25.450  0.00  0.00    +0.252 C 
ATOM      2  O   UNL     1       0.099   1.525  25.176  0.00  0.00    -0.471 OA
ENDBRANCH   3   2
ENDBRANCH   9   6
BRANCH  15  16
ATOM     16  N   UNL     1      -3.430   0.076  25.050  0.00  0.00    -0.200 NA
ATOM     17  C   UNL     1      -4.033   0.383  24.577  0.00  0.00    +0.265 C 
ATOM     18  O   UNL     1      -4.269  -0.018  23.897  0.00  0.00    -0.268 OA
BRANCH  17  19
ATOM     19  C   UNL     1      -4.399   1.093  24.786  0.00  0.00    +0.055 A 
ATOM     20  C   UNL     1      -4.206   1.789  24.388  0.00  0.00    +0.005 A 
ATOM     21  C   UNL     1      -4.572   2.499  24.596  0.00  0.00    +0.010 A 
ATOM     22  C   UNL     1      -5.132   2.511  25.202  0.00  0.00    +0.068 A 
ATOM     23  C   UNL     1      -5.325   1.815  25.600  0.00  0.00    +0.010 A 
ATOM     24  C   UNL     1      -4.959   1.105  25.391  0.00  0.00    +0.005 A 
BRANCH  22  25
ATOM     25  C   UNL     1      -5.498   3.221  25.410  0.00  0.00    +0.100 C 
ATOM     26  N   UNL     1      -5.864   3.930  25.618  0.00  0.00    -0.191 NA
ENDBRANCH  22  25
ENDBRANCH  17  19
ENDBRANCH  15  16
TORSDOF 5
ENDMDL
MODEL 5
REMARK VINA RESULT:     -10.5      1.931      3.984
REMARK  Name = 
REMARK  5 active torsions:
REMARK  status: ('A' for Active; 'I' for Inactive)
REMARK    1  A    between atoms: O_2  and  C_3
REMARK    2  A    between atoms: C_6  and  C_9
REMARK    3  A    between atoms: C_15  and  N_16
REMARK    4  A    between atoms: C_17  and  C_19
REMARK    5  A    between atoms: C_22  and  C_25
REMARK                            x       y       z     vdW  Elec       q    Type
REMARK                         _______ _______ _______ _____ _____    ______ ____
ROOT
ATOM      9  C   UNL     1      -4.827   1.192  24.910  0.00  0.00    +0.048 C 
ATOM     10  C   UNL     1      -5.622   1.003  25.022  0.00  0.00    +0.042 C 
ATOM     11  C   UNL     1      -6.040   1.707  25.116  0.00  0.00    +0.184 C 
ATOM     12  O   UNL     1      -6.853   1.775  25.242  0.00  0.00    -0.220 OA
ATOM     13  C   UNL     1      -5.504   2.332  25.062  0.00  0.00    +0.202 C 
ATOM     14  O   UNL     1      -5.687   3.135  25.125  0.00  0.00    -0.219 OA
ATOM     15  C   UNL     1      -4.754   2.014  24.935  0.00  0.00    +0.132 C 
ENDROOT
BRANCH   9   6
ATOM      3  C   UNL     1      -2.982  -0.420  24.561  0.00  0.00    +0.139 A 
ATOM      4  C   UNL     1      -3.260   0.031  23.930  0.00  0.00    +0.037 A 
ATOM      5  C   UNL     1      -3.876   0.569  24.046  0.00  0.00    -0.001 A 
ATOM      6  C   UNL     1      -4.212   0.655  24.794  0.00  0.00    -0.020 A 
ATOM      7  C   UNL     1      -3.934   0.204  25.425  0.00  0.00    -0.001 A 
ATOM      8  C   UNL     1      -3.318  -0.334  25.309  0.00  0.00    +0.037 A 
BRANCH   3   2
ATOM      1  C   UNL     1      -1.588  -0.734  24.600  0.00  0.00    +0.252 C 
ATOM      2  O   UNL     1      -2.367  -0.957  24.445  0.00  0.00    -0.471 OA
ENDBRANCH   3   2
ENDBRANCH   9   6
BRANCH  15  16
ATOM     16  N   UNL     1      -4.055   2.442  24.847  0.00  0.00    -0.200 NA
ATOM     17  C   UNL     1      -3.874   3.048  25.377  0.00  0.00    +0.265 C 
ATOM     18  O   UNL     1      -4.391   3.226  25.994  0.00  0.00    -0.268 OA
BRANCH  17  19
ATOM     19  C   UNL     1      -3.173   3.477  25.290  0.00  0.00    +0.055 A 
ATOM     20  C   UNL     1      -3.057   3.945  24.620  0.00  0.00    +0.005 A 
ATOM     21  C   UNL     1      -2.357   4.373  24.533  0.00  0.00    +0.010 A 
ATOM     22  C   UNL     1      -1.774   4.333  25.116  0.00  0.00    +0.068 A 
ATOM     23  C   UNL     1      -1.890   3.865  25.785  0.00  0.00    +0.010 A 
ATOM     24  C   UNL     1      -2.591   3.436  25.872  0.00  0.00    +0.005 A 
BRANCH  22  25
ATOM     25  C   UNL     1      -1.074   4.761  25.028  0.00  0.00    +0.100 C 
ATOM     26  N   UNL     1      -0.375   5.189  24.941  0.00  0.00    -0.191 NA
ENDBRANCH  22  25
ENDBRANCH  17  19
ENDBRANCH  15  16
TORSDOF 5
ENDMDL
MODEL 6
REMARK VINA RESULT:     -10.5      1.671      1.979
REMARK  Name = 
REMARK  5 active torsions:
REMARK  status: ('A' for Active; 'I' for Inactive)
REMARK    1  A    between atoms: O_2  and  C_3
REMARK    2  A    between atoms: C_6  and  C_9
REMARK    3  A    between atoms: C_15  and  N_16
REMARK    4  A    between atoms: C_17  and  C_19
REMARK    5  A    between atoms: C_22  and  C_25
REMARK                            x       y       z     vdW  Elec       q    Type
REMARK                         _______ _______ _______ _____ _____    ______ ____
ROOT
ATOM      9  C   UNL     1      -4.324   2.751  25.138  0.00  0.00    +0.048 C 
ATOM     10  C   UNL     1      -5.102   3.004  25.035  0.00  0.00    +0.042 C 
ATOM     11  C   UNL     1      -5.584   2.336  24.996  0.00  0.00    +0.184 C 
ATOM     12  O   UNL     1      -6.403   2.333  24.896  0.00  0.00    -0.220 OA
ATOM     13  C   UNL     1      -5.103   1.670  25.076  0.00  0.00    +0.202 C 
ATOM     14  O   UNL     1      -5.358   0.884  25.070  0.00  0.00    -0.219 OA
ATOM     15  C   UNL     1      -4.325   1.926  25.164  0.00  0.00    +0.132 C 
ENDROOT
BRANCH   9   6
ATOM      3  C   UNL     1      -2.334   4.210  25.337  0.00  0.00    +0.139 A 
ATOM      4  C   UNL     1      -2.681   3.891  26.014  0.00  0.00    +0.037 A 
ATOM      5  C   UNL     1      -3.345   3.404  25.948  0.00  0.00    -0.001 A 
ATOM      6  C   UNL     1      -3.660   3.237  25.205  0.00  0.00    -0.020 A 
ATOM      7  C   UNL     1      -3.314   3.556  24.528  0.00  0.00    -0.001 A 
ATOM      8  C   UNL     1      -2.650   4.043  24.594  0.00  0.00    +0.037 A 
BRANCH   3   2
ATOM      1  C   UNL     1      -0.959   4.474  25.050  0.00  0.00    +0.252 C 
ATOM      2  O   UNL     1      -1.671   4.696  25.404  0.00  0.00    -0.471 OA
ENDBRANCH   3   2
ENDBRANCH   9   6
BRANCH  15  16
ATOM     16  N   UNL     1      -3.663   1.443  25.261  0.00  0.00    -0.200 NA
ATOM     17  C   UNL     1      -3.536   0.810  24.747  0.00  0.00    +0.265 C 
ATOM     18  O   UNL     1      -4.071   0.660  24.137  0.00  0.00    -0.268 OA
BRANCH  17  19
ATOM     19  C   UNL     1      -2.874   0.327  24.844  0.00  0.00    +0.055 A 
ATOM     20  C   UNL     1      -2.237   0.392  24.324  0.00  0.00    +0.005 A 
ATOM     21  C   UNL     1      -1.575  -0.091  24.420  0.00  0.00    +0.010 A 
ATOM     22  C   UNL     1      -1.551  -0.639  25.037  0.00  0.00    +0.068 A 
ATOM     23  C   UNL     1      -2.188  -0.704  25.556  0.00  0.00    +0.010 A 
ATOM     24  C   UNL     1      -2.850  -0.221  25.460  0.00  0.00    +0.005 A 
BRANCH  22  25
ATOM     25  C   UNL     1      -0.889  -1.123  25.133  0.00  0.00    +0.100 C 
ATOM     26  N   UNL     1      -0.228  -1.606  25.229  0.00  0.00    -0.191 NA
ENDBRANCH  22  25
ENDBRANCH  17  19
ENDBRANCH  15  16
TORSDOF 5
ENDMDL
MODEL 7
REMARK VINA RESULT:     -10.5      2.451      3.637
REMARK  Name = 
REMARK  5 active torsions:
REMARK  status: ('A' for Active; 'I' for Inactive)
REMARK    1  A    between atoms: O_2  and  C_3
REMARK    2  A    between atoms: C_6  and  C_9
REMARK    3  A    between atoms: C_15  and  N_16
REMARK    4  A    between atoms: C_17  and  C_19
REMARK    5  A    between atoms: C_22  and  C_25
REMARK                            x       y       z     vdW  Elec       q    Type
REMARK                         _______ _______ _______ _____ _____    ______ ____
ROOT
ATOM      9  C   UNL     1      -1.078   3.379  25.031  0.00  0.00    +0.048 C 
ATOM     10  C   UNL     1      -0.516   3.976  24.944  0.00  0.00    +0.042 C 
ATOM     11  C   UNL     1      -0.905   4.702  24.997  0.00  0.00    +0.184 C 
ATOM     12  O   UNL     1      -0.553   5.446  24.939  0.00  0.00    -0.220 OA
ATOM     13  C   UNL     1      -1.708   4.553  25.116  0.00  0.00    +0.202 C 
ATOM     14  O   UNL     1      -2.299   5.122  25.200  0.00  0.00    -0.219 OA
ATOM     15  C   UNL     1      -1.815   3.736  25.138  0.00  0.00    +0.132 C 
ENDROOT
BRANCH   9   6
ATOM      3  C   UNL     1      -0.634   0.945  24.983  0.00  0.00    +0.139 A 
ATOM      4  C   UNL     1      -0.744   1.329  25.704  0.00  0.00    +0.037 A 
ATOM      5  C   UNL     1      -0.892   2.142  25.720  0.00  0.00    -0.001 A 
ATOM      6  C   UNL     1      -0.930   2.568  25.015  0.00  0.00    -0.020 A 
ATOM      7  C   UNL     1      -0.820   2.183  24.294  0.00  0.00    -0.001 A 
ATOM      8  C   UNL     1      -0.672   1.371  24.278  0.00  0.00    +0.037 A 
BRANCH   3   2
ATOM      1  C   UNL     1      -1.112  -0.399  24.894  0.00  0.00    +0.252 C 
ATOM      2  O   UNL     1      -0.486   0.133  24.966  0.00  0.00    -0.471 OA
ENDBRANCH   3   2
ENDBRANCH   9   6
BRANCH  15  16
ATOM     16  N   UNL     1      -2.532   3.343  25.246  0.00  0.00    -0.200 NA
ATOM     17  C   UNL     1      -3.189   3.551  24.792  0.00  0.00    +0.265 C 
ATOM     18  O   UNL     1      -3.128   4.151  24.229  0.00  0.00    -0.268 OA
BRANCH  17  19
ATOM     19  C   UNL     1      -3.906   3.158  24.901  0.00  0.00    +0.055 A 
ATOM     20  C   UNL     1      -4.357   3.302  25.577  0.00  0.00    +0.005 A 
ATOM     21  C   UNL     1      -5.075   2.910  25.685  0.00  0.00    +0.010 A 
ATOM     22  C   UNL     1      -5.341   2.374  25.118  0.00  0.00    +0.068 A 
ATOM     23  C   UNL     1      -4.891   2.230  24.442  0.00  0.00    +0.010 A 
ATOM     24  C   UNL     1      -4.173   2.622  24.333  0.00  0.00    +0.005 A 
BRANCH  22  25
ATOM     25  C   UNL     1      -6.059   1.981  25.226  0.00  0.00    +0.100 C 
ATOM     26  N   UNL     1      -6.776   1.590  25.335  0.00  0.00    -0.191 NA
ENDBRANCH  22  25
ENDBRANCH  17  19
ENDBRANCH  15  16
TORSDOF 5
ENDMDL
MODEL 8
REMARK VINA RESULT:     -10.4      2.014      4.927
REMARK  Name = 
REMARK  5 active torsions:
REMARK  status: ('A' for Active; 'I' for Inactive)
REMARK    1  A    between atoms: O_2  and  C_3
REMARK    2  A    between atoms: C_6  and  C_9
REMARK    3  A    between atoms: C_15  and  N_16
REMARK    4  A    between atoms: C_17  and  C_19
REMARK    5  A    between atoms: C_22  and  C_25
REMARK                            x       y       z     vdW  Elec       q    Type
REMARK                         _______ _______ _______ _____ _____    ______ ____
ROOT
ATOM      9  C   UNL     1      -2.372  -0.381  24.742  0.00  0.00    +0.048 C 
ATOM     10  C   UNL     1      -2.184  -1.183  24.789  0.00  0.00    +0.042 C 
ATOM     11  C   UNL     1      -1.363  -1.253  24.773  0.00  0.00    +0.184 C 
ATOM     12  O   UNL     1      -0.936  -1.959  24.807  0.00  0.00    -0.220 OA
ATOM     13  C   UNL     1      -1.043  -0.495  24.716  0.00  0.00    +0.202 C 
ATOM     14  O   UNL     1      -0.239  -0.309  24.684  0.00  0.00    -0.219 OA
ATOM     15  C   UNL     1      -1.666   0.044  24.697  0.00  0.00    +0.132 C 
ENDROOT
BRANCH   9   6
ATOM      3  C   UNL     1      -4.653   0.582  24.738  0.00  0.00    +0.139 A 
ATOM      4  C   UNL     1      -4.210   0.567  24.043  0.00  0.00    +0.037 A 
ATOM      5  C   UNL     1      -3.449   0.246  24.044  0.00  0.00    -0.001 A 
ATOM      6  C   UNL     1      -3.132  -0.060  24.741  0.00  0.00    -0.020 A 
ATOM      7  C   UNL     1      -3.575  -0.045  25.437  0.00  0.00    -0.001 A 
ATOM      8  C   UNL     1      -4.336   0.276  25.435  0.00  0.00    +0.037 A 
BRANCH   3   2
ATOM      1  C   UNL     1      -5.534   1.678  24.991  0.00  0.00    +0.252 C 
ATOM      2  O   UNL     1      -5.413   0.902  24.737  0.00  0.00    -0.471 OA
ENDBRANCH   3   2
ENDBRANCH   9   6
BRANCH  15  16
ATOM     16  N   UNL     1      -1.597   0.864  24.643  0.00  0.00    -0.200 NA
ATOM     17  C   UNL     1      -1.141   1.276  25.193  0.00  0.00    +0.265 C 
ATOM     18  O   UNL     1      -0.754   0.869  25.797  0.00  0.00    -0.268 OA
BRANCH  17  19
ATOM     19  C   UNL     1      -1.071   2.097  25.139  0.00  0.00    +0.055 A 
ATOM     20  C   UNL     1      -0.753   2.440  24.460  0.00  0.00    +0.005 A 
ATOM     21  C   UNL     1      -0.683   3.261  24.406  0.00  0.00    +0.010 A 
ATOM     22  C   UNL     1      -0.932   3.737  25.031  0.00  0.00    +0.068 A 
ATOM     23  C   UNL     1      -1.251   3.394  25.710  0.00  0.00    +0.010 A 
ATOM     24  C   UNL     1      -1.321   2.574  25.764  0.00  0.00    +0.005 A 
BRANCH  22  25
ATOM     25  C   UNL     1      -0.863   4.558  24.977  0.00  0.00    +0.100 C 
ATOM     26  N   UNL     1      -0.793   5.378  24.923  0.00  0.00    -0.191 NA
ENDBRANCH  22  25
ENDBRANCH  17  19
ENDBRANCH  15  16
TORSDOF 5
ENDMDL
MODEL 9
REMARK VINA RESULT:     -10.3      1.867      4.554
REMARK  Name = 
REMARK  5 active torsions:
REMARK  status: ('A' for Active; 'I' for Inactive)
REMARK    1  A    between atoms: O_2  and  C_3
REMARK    2  A    between atoms: C_6  and  C_9
REMARK    3  A    between atoms: C_15  and  N_16
REMARK    4  A    between atoms: C_17  and  C_19
REMARK    5  A    between atoms: C_22  and  C_25
REMARK                            x       y       z     vdW  Elec       q    Type
REMARK                         _______ _______ _______ _____ _____    ______ ____
ROOT
ATOM      9  C   UNL     1      -1.334   0.369  24.565  0.00  0.00    +0.048 C 
ATOM     10  C   UNL     1      -0.578   0.228  24.268  0.00  0.00    +0.042 C 
ATOM     11  C   UNL     1      -0.222   0.957  24.121  0.00  0.00    +0.184 C 
ATOM     12  O   UNL     1       0.538   1.074  23.820  0.00  0.00    -0.220 OA
ATOM     13  C   UNL     1      -0.758   1.549  24.327  0.00  0.00    +0.202 C 
ATOM     14  O   UNL     1      -0.629   2.362  24.269  0.00  0.00    -0.219 OA
ATOM     15  C   UNL     1      -1.446   1.186  24.602  0.00  0.00    +0.132 C 
ENDROOT
BRANCH   9   6
ATOM      3  C   UNL     1      -2.981  -1.355  25.231  0.00  0.00    +0.139 A 
ATOM      4  C   UNL     1      -2.524  -0.978  25.804  0.00  0.00    +0.037 A 
ATOM      5  C   UNL     1      -1.975  -0.403  25.582  0.00  0.00    -0.001 A 
ATOM      6  C   UNL     1      -1.883  -0.206  24.787  0.00  0.00    -0.020 A 
ATOM      7  C   UNL     1      -2.341  -0.582  24.214  0.00  0.00    -0.001 A 
ATOM      8  C   UNL     1      -2.890  -1.157  24.436  0.00  0.00    +0.037 A 
BRANCH   3   2
ATOM      1  C   UNL     1      -3.523  -2.670  25.089  0.00  0.00    +0.252 C 
ATOM      2  O   UNL     1      -3.530  -1.929  25.453  0.00  0.00    -0.471 OA
ENDBRANCH   3   2
ENDBRANCH   9   6
BRANCH  15  16
ATOM     16  N   UNL     1      -2.125   1.571  24.866  0.00  0.00    -0.200 NA
ATOM     17  C   UNL     1      -2.478   2.151  24.399  0.00  0.00    +0.265 C 
ATOM     18  O   UNL     1      -2.153   2.346  23.666  0.00  0.00    -0.268 OA
BRANCH  17  19
ATOM     19  C   UNL     1      -3.158   2.537  24.663  0.00  0.00    +0.055 A 
ATOM     20  C   UNL     1      -3.115   3.057  25.302  0.00  0.00    +0.005 A 
ATOM     21  C   UNL     1      -3.795   3.443  25.567  0.00  0.00    +0.010 A 
ATOM     22  C   UNL     1      -4.518   3.308  25.192  0.00  0.00    +0.068 A 
ATOM     23  C   UNL     1      -4.561   2.788  24.553  0.00  0.00    +0.010 A 
ATOM     24  C   UNL     1      -3.881   2.402  24.288  0.00  0.00    +0.005 A 
BRANCH  22  25
ATOM     25  C   UNL     1      -5.198   3.694  25.457  0.00  0.00    +0.100 C 
ATOM     26  N   UNL     1      -5.877   4.079  25.721  0.00  0.00    -0.191 NA
ENDBRANCH  22  25
ENDBRANCH  17  19
ENDBRANCH  15  16
TORSDOF 5
ENDMDL
