MODEL 1
REMARK VINA RESULT:      -9.6      0.000      0.000
REMARK  Name = 
REMARK  5 active torsions:
REMARK  status: ('A' for Active; 'I' for Inactive)
REMARK    1  A    between atoms: O_2  and  C_3
REMARK    2  A    between atoms: C_6  and  C_7
REMARK    3  A    between atoms: C_7  and  N_8
REMARK    4  A    between atoms: N_20  and  C_21
REMARK    5  A    between atoms: C_21  and  C_22
REMARK                            x       y       z     vdW  Elec       q    Type
REMARK                         _______ _______ _______ _____ _____    ______ ____
ROOT
ATOM      8  N   UNL     1      -1.805   0.995  24.554  0.00  0.00    -0.258 N 
ATOM      9  C   UNL     1      -1.491   0.480  23.991  0.00  0.00    +0.117 C 
ATOM     10  C   UNL     1      -0.684   0.635  23.926  0.00  0.00    +0.117 C 
ATOM     11  C   UNL     1      -0.093   0.299  23.458  0.00  0.00    +0.117 C 
ATOM     12  N   UNL     1       0.682   0.573  23.513  0.00  0.00    -0.259 N 
ATOM     13  C   UNL     1       0.868   1.184  24.035  0.00  0.00    +0.117 C 
ATOM     14  C   UNL     1       0.278   1.520  24.503  0.00  0.00    +0.117 C 
ATOM     15  N   UNL     1      -0.499   1.246  24.448  0.00  0.00    -0.261 N 
ATOM     16  C   UNL     1      -1.191   1.468  24.837  0.00  0.00    +0.308 C 
ATOM     17  O   UNL     1      -1.258   2.060  25.408  0.00  0.00    -0.252 OA
ATOM     18  C   UNL     1       1.274   0.237  23.045  0.00  0.00    +0.324 C 
ATOM     19  O   UNL     1       1.088  -0.374  22.523  0.00  0.00    -0.251 OA
ATOM     20  N   UNL     1       2.049   0.511  23.100  0.00  0.00    -0.184 NA
ENDROOT
BRANCH   8   7
ATOM      7  C   UNL     1      -2.594   1.031  24.793  0.00  0.00    +0.122 C 
BRANCH   7   6
ATOM      3  C   UNL     1      -4.092  -0.902  24.412  0.00  0.00    +0.139 A 
ATOM      4  C   UNL     1      -3.640  -0.859  25.101  0.00  0.00    +0.037 A 
ATOM      5  C   UNL     1      -3.141  -0.215  25.228  0.00  0.00    +0.001 A 
ATOM      6  C   UNL     1      -3.093   0.387  24.666  0.00  0.00    -0.002 A 
ATOM     28  C   UNL     1      -3.545   0.345  23.977  0.00  0.00    +0.001 A 
ATOM     29  C   UNL     1      -4.045  -0.299  23.850  0.00  0.00    +0.037 A 
BRANCH   3   2
ATOM      1  C   UNL     1      -4.324  -2.198  23.858  0.00  0.00    +0.252 C 
ATOM      2  O   UNL     1      -4.592  -1.546  24.285  0.00  0.00    -0.471 OA
ENDBRANCH   3   2
ENDBRANCH   7   6
ENDBRANCH   8   7
BRANCH  20  21
ATOM     21  C   UNL     1       2.640   0.175  22.632  0.00  0.00    +0.143 C 
BRANCH  21  22
ATOM     22  C   UNL     1       3.432   0.258  22.847  0.00  0.00    -0.001 A 
ATOM     23  C   UNL     1       3.829  -0.368  23.212  0.00  0.00    -0.003 A 
ATOM     24  C   UNL     1       4.621  -0.286  23.427  0.00  0.00    -0.000 A 
ATOM     25  C   UNL     1       5.017   0.423  23.278  0.00  0.00    -0.000 A 
ATOM     26  C   UNL     1       4.621   1.048  22.914  0.00  0.00    -0.000 A 
ATOM     27  C   UNL     1       3.829   0.965  22.699  0.00  0.00    -0.003 A 
ENDBRANCH  21  22
ENDBRANCH  20  21
TORSDOF 5
ENDMDL
MODEL 2
REMARK VINA RESULT:      -8.2      2.182      2.789
REMARK  Name = 
REMARK  5 active torsions:
REMARK  status: ('A' for Active; 'I' for Inactive)
REMARK    1  A    between atoms: O_2  and  C_3
REMARK    2  A    between atoms: C_6  and  C_7
REMARK    3  A    between atoms: C_7  and  N_8
REMARK    4  A    between atoms: N_20  and  C_21
REMARK    5  A    between atoms: C_21  and  C_22
REMARK                            x       y       z     vdW  Elec       q    Type
REMARK                         _______ _______ _______ _____ _____    ______ ____
ROOT
ATOM      8  N   UNL     1      -2.291   3.438  25.183  0.00  0.00    -0.258 N 
ATOM      9  C   UNL     1      -2.291   2.626  25.035  0.00  0.00    +0.117 C 
ATOM     10  C   UNL     1      -1.556   2.426  24.719  0.00  0.00    +0.117 C 
ATOM     11  C   UNL     1      -1.240   1.706  24.468  0.00  0.00    +0.117 C 
ATOM     12  N   UNL     1      -0.472   1.673  24.170  0.00  0.00    -0.259 N 
ATOM     13  C   UNL     1      -0.019   2.361  24.123  0.00  0.00    +0.117 C 
ATOM     14  C   UNL     1      -0.333   3.081  24.373  0.00  0.00    +0.117 C 
ATOM     15  N   UNL     1      -1.102   3.113  24.672  0.00  0.00    -0.261 N 
ATOM     16  C   UNL     1      -1.557   3.739  24.959  0.00  0.00    +0.308 C 
ATOM     17  O   UNL     1      -1.319   4.527  25.012  0.00  0.00    -0.252 OA
ATOM     18  C   UNL     1      -0.156   0.954  23.919  0.00  0.00    +0.324 C 
ATOM     19  O   UNL     1      -0.610   0.266  23.966  0.00  0.00    -0.251 OA
ATOM     20  N   UNL     1       0.611   0.921  23.621  0.00  0.00    -0.184 NA
ENDROOT
BRANCH   8   7
ATOM      7  C   UNL     1      -2.917   3.873  25.500  0.00  0.00    +0.122 C 
BRANCH   7   6
ATOM      3  C   UNL     1      -5.235   3.026  25.310  0.00  0.00    +0.139 A 
ATOM      4  C   UNL     1      -4.845   3.001  26.036  0.00  0.00    +0.037 A 
ATOM      5  C   UNL     1      -4.072   3.283  26.100  0.00  0.00    +0.001 A 
ATOM      6  C   UNL     1      -3.689   3.590  25.437  0.00  0.00    -0.002 A 
ATOM     28  C   UNL     1      -4.079   3.615  24.710  0.00  0.00    +0.001 A 
ATOM     29  C   UNL     1      -4.852   3.333  24.647  0.00  0.00    +0.037 A 
BRANCH   3   2
ATOM      1  C   UNL     1      -6.145   1.970  24.997  0.00  0.00    +0.252 C 
ATOM      2  O   UNL     1      -6.008   2.744  25.246  0.00  0.00    -0.471 OA
ENDBRANCH   3   2
ENDBRANCH   7   6
ENDBRANCH   8   7
BRANCH  20  21
ATOM     21  C   UNL     1       0.927   0.201  23.370  0.00  0.00    +0.143 C 
BRANCH  21  22
ATOM     22  C   UNL     1       1.633   0.187  22.943  0.00  0.00    -0.001 A 
ATOM     23  C   UNL     1       1.661  -0.173  22.201  0.00  0.00    -0.003 A 
ATOM     24  C   UNL     1       2.367  -0.186  21.775  0.00  0.00    -0.000 A 
ATOM     25  C   UNL     1       3.046   0.160  22.091  0.00  0.00    -0.000 A 
ATOM     26  C   UNL     1       3.019   0.520  22.832  0.00  0.00    -0.000 A 
ATOM     27  C   UNL     1       2.313   0.534  23.258  0.00  0.00    -0.003 A 
ENDBRANCH  21  22
ENDBRANCH  20  21
TORSDOF 5
ENDMDL
MODEL 3
REMARK VINA RESULT:      -8.2      1.902      6.328
REMARK  Name = 
REMARK  5 active torsions:
REMARK  status: ('A' for Active; 'I' for Inactive)
REMARK    1  A    between atoms: O_2  and  C_3
REMARK    2  A    between atoms: C_6  and  C_7
REMARK    3  A    between atoms: C_7  and  N_8
REMARK    4  A    between atoms: N_20  and  C_21
REMARK    5  A    between atoms: C_21  and  C_22
REMARK                            x       y       z     vdW  Elec       q    Type
REMARK                         _______ _______ _______ _____ _____    ______ ____
ROOT
ATOM      8  N   UNL     1       0.084  -0.220  23.636  0.00  0.00    -0.258 N 
ATOM      9  C   UNL     1      -0.215   0.437  23.236  0.00  0.00    +0.117 C 
ATOM     10  C   UNL     1      -0.890   0.691  23.635  0.00  0.00    +0.117 C 
ATOM     11  C   UNL     1      -1.414   1.314  23.494  0.00  0.00    +0.117 C 
ATOM     12  N   UNL     1      -2.054   1.437  23.998  0.00  0.00    -0.259 N 
ATOM     13  C   UNL     1      -2.172   0.938  24.644  0.00  0.00    +0.117 C 
ATOM     14  C   UNL     1      -1.650   0.316  24.786  0.00  0.00    +0.117 C 
ATOM     15  N   UNL     1      -1.008   0.192  24.281  0.00  0.00    -0.261 N 
ATOM     16  C   UNL     1      -0.406  -0.371  24.282  0.00  0.00    +0.308 C 
ATOM     17  O   UNL     1      -0.311  -0.979  24.832  0.00  0.00    -0.252 OA
ATOM     18  C   UNL     1      -2.578   2.059  23.857  0.00  0.00    +0.324 C 
ATOM     19  O   UNL     1      -2.460   2.558  23.210  0.00  0.00    -0.251 OA
ATOM     20  N   UNL     1      -3.218   2.182  24.361  0.00  0.00    -0.184 NA
ENDROOT
BRANCH   8   7
ATOM      7  C   UNL     1       0.756  -0.651  23.426  0.00  0.00    +0.122 C 
BRANCH   7   6
ATOM      3  C   UNL     1       2.738   0.514  22.510  0.00  0.00    +0.139 A 
ATOM      4  C   UNL     1       2.521   0.627  23.297  0.00  0.00    +0.037 A 
ATOM      5  C   UNL     1       1.860   0.239  23.603  0.00  0.00    +0.001 A 
ATOM      6  C   UNL     1       1.417  -0.262  23.121  0.00  0.00    -0.002 A 
ATOM     28  C   UNL     1       1.634  -0.376  22.333  0.00  0.00    +0.001 A 
ATOM     29  C   UNL     1       2.295   0.012  22.028  0.00  0.00    +0.037 A 
BRANCH   3   2
ATOM      1  C   UNL     1       4.102   0.922  22.633  0.00  0.00    +0.252 C 
ATOM      2  O   UNL     1       3.399   0.902  22.203  0.00  0.00    -0.471 OA
ENDBRANCH   3   2
ENDBRANCH   7   6
ENDBRANCH   8   7
BRANCH  20  21
ATOM     21  C   UNL     1      -3.742   2.804  24.220  0.00  0.00    +0.143 C 
BRANCH  21  22
ATOM     22  C   UNL     1      -4.403   2.904  24.703  0.00  0.00    -0.001 A 
ATOM     23  C   UNL     1      -5.021   2.357  24.676  0.00  0.00    -0.003 A 
ATOM     24  C   UNL     1      -5.682   2.457  25.159  0.00  0.00    -0.000 A 
ATOM     25  C   UNL     1      -5.725   3.104  25.670  0.00  0.00    -0.000 A 
ATOM     26  C   UNL     1      -5.108   3.650  25.698  0.00  0.00    -0.000 A 
ATOM     27  C   UNL     1      -4.447   3.550  25.214  0.00  0.00    -0.003 A 
ENDBRANCH  21  22
ENDBRANCH  20  21
TORSDOF 5
ENDMDL
MODEL 4
REMARK VINA RESULT:      -8.2      3.894      4.628
REMARK  Name = 
REMARK  5 active torsions:
REMARK  status: ('A' for Active; 'I' for Inactive)
REMARK    1  A    between atoms: O_2  and  C_3
REMARK    2  A    between atoms: C_6  and  C_7
REMARK    3  A    between atoms: C_7  and  N_8
REMARK    4  A    between atoms: N_20  and  C_21
REMARK    5  A    between atoms: C_21  and  C_22
REMARK                            x       y       z     vdW  Elec       q    Type
REMARK                         _______ _______ _______ _____ _____    ______ ____
ROOT
ATOM      8  N   UNL     1      -4.285  -0.027  24.734  0.00  0.00    -0.258 N 
ATOM      9  C   UNL     1      -3.472   0.057  24.853  0.00  0.00    +0.117 C 
ATOM     10  C   UNL     1      -3.307   0.862  24.919  0.00  0.00    +0.117 C 
ATOM     11  C   UNL     1      -2.602   1.273  25.040  0.00  0.00    +0.117 C 
ATOM     12  N   UNL     1      -2.606   2.096  25.083  0.00  0.00    -0.259 N 
ATOM     13  C   UNL     1      -3.316   2.510  25.006  0.00  0.00    +0.117 C 
ATOM     14  C   UNL     1      -4.021   2.100  24.885  0.00  0.00    +0.117 C 
ATOM     15  N   UNL     1      -4.017   1.275  24.841  0.00  0.00    -0.261 N 
ATOM     16  C   UNL     1      -4.621   0.726  24.727  0.00  0.00    +0.308 C 
ATOM     17  O   UNL     1      -5.421   0.899  24.624  0.00  0.00    -0.252 OA
ATOM     18  C   UNL     1      -1.901   2.507  25.204  0.00  0.00    +0.324 C 
ATOM     19  O   UNL     1      -1.191   2.094  25.282  0.00  0.00    -0.251 OA
ATOM     20  N   UNL     1      -1.905   3.331  25.248  0.00  0.00    -0.184 NA
ENDROOT
BRANCH   8   7
ATOM      7  C   UNL     1      -4.689  -0.740  24.639  0.00  0.00    +0.122 C 
BRANCH   7   6
ATOM      3  C   UNL     1      -3.431  -2.847  24.318  0.00  0.00    +0.139 A 
ATOM      4  C   UNL     1      -3.470  -2.500  25.064  0.00  0.00    +0.037 A 
ATOM      5  C   UNL     1      -3.889  -1.797  25.173  0.00  0.00    +0.001 A 
ATOM      6  C   UNL     1      -4.270  -1.442  24.533  0.00  0.00    -0.002 A 
ATOM     28  C   UNL     1      -4.232  -1.790  23.785  0.00  0.00    +0.001 A 
ATOM     29  C   UNL     1      -3.812  -2.492  23.678  0.00  0.00    +0.037 A 
BRANCH   3   2
ATOM      1  C   UNL     1      -2.224  -3.527  23.968  0.00  0.00    +0.252 C 
ATOM      2  O   UNL     1      -3.012  -3.549  24.209  0.00  0.00    -0.471 OA
ENDBRANCH   3   2
ENDBRANCH   7   6
ENDBRANCH   8   7
BRANCH  20  21
ATOM     21  C   UNL     1      -1.200   3.742  25.369  0.00  0.00    +0.143 C 
BRANCH  21  22
ATOM     22  C   UNL     1      -1.138   4.531  25.135  0.00  0.00    -0.001 A 
ATOM     23  C   UNL     1      -1.720   5.073  25.354  0.00  0.00    -0.003 A 
ATOM     24  C   UNL     1      -1.658   5.862  25.121  0.00  0.00    -0.000 A 
ATOM     25  C   UNL     1      -1.014   6.108  24.668  0.00  0.00    -0.000 A 
ATOM     26  C   UNL     1      -0.432   5.567  24.449  0.00  0.00    -0.000 A 
ATOM     27  C   UNL     1      -0.494   4.778  24.683  0.00  0.00    -0.003 A 
ENDBRANCH  21  22
ENDBRANCH  20  21
TORSDOF 5
ENDMDL
MODEL 5
REMARK VINA RESULT:      -7.9      3.005      4.480
REMARK  Name = 
REMARK  5 active torsions:
REMARK  status: ('A' for Active; 'I' for Inactive)
REMARK    1  A    between atoms: O_2  and  C_3
REMARK    2  A    between atoms: C_6  and  C_7
REMARK    3  A    between atoms: C_7  and  N_8
REMARK    4  A    between atoms: N_20  and  C_21
REMARK    5  A    between atoms: C_21  and  C_22
REMARK                            x       y       z     vdW  Elec       q    Type
REMARK                         _______ _______ _______ _____ _____    ______ ____
ROOT
ATOM      8  N   UNL     1      -1.501  -1.034  25.245  0.00  0.00    -0.258 N 
ATOM      9  C   UNL     1      -2.128  -0.511  25.368  0.00  0.00    +0.117 C 
ATOM     10  C   UNL     1      -1.833   0.257  25.311  0.00  0.00    +0.117 C 
ATOM     11  C   UNL     1      -2.196   0.994  25.382  0.00  0.00    +0.117 C 
ATOM     12  N   UNL     1      -1.752   1.683  25.295  0.00  0.00    -0.259 N 
ATOM     13  C   UNL     1      -0.944   1.635  25.137  0.00  0.00    +0.117 C 
ATOM     14  C   UNL     1      -0.579   0.899  25.066  0.00  0.00    +0.117 C 
ATOM     15  N   UNL     1      -1.025   0.209  25.153  0.00  0.00    -0.261 N 
ATOM     16  C   UNL     1      -0.820  -0.589  25.112  0.00  0.00    +0.308 C 
ATOM     17  O   UNL     1      -0.065  -0.889  24.965  0.00  0.00    -0.252 OA
ATOM     18  C   UNL     1      -2.115   2.421  25.366  0.00  0.00    +0.324 C 
ATOM     19  O   UNL     1      -2.923   2.469  25.524  0.00  0.00    -0.251 OA
ATOM     20  N   UNL     1      -1.670   3.110  25.279  0.00  0.00    -0.184 NA
ENDROOT
BRANCH   8   7
ATOM      7  C   UNL     1      -1.548  -1.858  25.255  0.00  0.00    +0.122 C 
BRANCH   7   6
ATOM      3  C   UNL     1      -3.508  -2.998  24.264  0.00  0.00    +0.139 A 
ATOM      4  C   UNL     1      -2.803  -2.946  23.839  0.00  0.00    +0.037 A 
ATOM      5  C   UNL     1      -2.149  -2.566  24.169  0.00  0.00    +0.001 A 
ATOM      6  C   UNL     1      -2.201  -2.238  24.924  0.00  0.00    -0.002 A 
ATOM     28  C   UNL     1      -2.907  -2.290  25.349  0.00  0.00    +0.001 A 
ATOM     29  C   UNL     1      -3.560  -2.670  25.019  0.00  0.00    +0.037 A 
BRANCH   3   2
ATOM      1  C   UNL     1      -4.735  -2.941  23.533  0.00  0.00    +0.252 C 
ATOM      2  O   UNL     1      -4.162  -3.378  23.934  0.00  0.00    -0.471 OA
ENDBRANCH   3   2
ENDBRANCH   7   6
ENDBRANCH   8   7
BRANCH  20  21
ATOM     21  C   UNL     1      -2.033   3.847  25.350  0.00  0.00    +0.143 C 
BRANCH  21  22
ATOM     22  C   UNL     1      -1.620   4.531  25.145  0.00  0.00    -0.001 A 
ATOM     23  C   UNL     1      -1.983   5.270  25.215  0.00  0.00    -0.003 A 
ATOM     24  C   UNL     1      -1.570   5.954  25.009  0.00  0.00    -0.000 A 
ATOM     25  C   UNL     1      -0.794   5.899  24.733  0.00  0.00    -0.000 A 
ATOM     26  C   UNL     1      -0.432   5.162  24.663  0.00  0.00    -0.000 A 
ATOM     27  C   UNL     1      -0.845   4.478  24.869  0.00  0.00    -0.003 A 
ENDBRANCH  21  22
ENDBRANCH  20  21
TORSDOF 5
ENDMDL
MODEL 6
REMARK VINA RESULT:      -7.8      1.256      6.436
REMARK  Name = 
REMARK  5 active torsions:
REMARK  status: ('A' for Active; 'I' for Inactive)
REMARK    1  A    between atoms: O_2  and  C_3
REMARK    2  A    between atoms: C_6  and  C_7
REMARK    3  A    between atoms: C_7  and  N_8
REMARK    4  A    between atoms: N_20  and  C_21
REMARK    5  A    between atoms: C_21  and  C_22
REMARK                            x       y       z     vdW  Elec       q    Type
REMARK                         _______ _______ _______ _____ _____    ______ ____
ROOT
ATOM      8  N   UNL     1       2.185   0.285  22.534  0.00  0.00    -0.258 N 
ATOM      9  C   UNL     1       1.947   0.643  23.239  0.00  0.00    +0.117 C 
ATOM     10  C   UNL     1       1.162   0.430  23.379  0.00  0.00    +0.117 C 
ATOM     11  C   UNL     1       0.639   0.618  23.989  0.00  0.00    +0.117 C 
ATOM     12  N   UNL     1      -0.129   0.319  23.981  0.00  0.00    -0.259 N 
ATOM     13  C   UNL     1      -0.375  -0.170  23.364  0.00  0.00    +0.117 C 
ATOM     14  C   UNL     1       0.147  -0.358  22.753  0.00  0.00    +0.117 C 
ATOM     15  N   UNL     1       0.916  -0.058  22.761  0.00  0.00    -0.261 N 
ATOM     16  C   UNL     1       1.548  -0.148  22.240  0.00  0.00    +0.308 C 
ATOM     17  O   UNL     1       1.545  -0.593  21.544  0.00  0.00    -0.252 OA
ATOM     18  C   UNL     1      -0.652   0.507  24.591  0.00  0.00    +0.324 C 
ATOM     19  O   UNL     1      -0.406   0.995  25.209  0.00  0.00    -0.251 OA
ATOM     20  N   UNL     1      -1.420   0.207  24.584  0.00  0.00    -0.184 NA
ENDROOT
BRANCH   8   7
ATOM      7  C   UNL     1       2.931   0.350  22.187  0.00  0.00    +0.122 C 
BRANCH   7   6
ATOM      3  C   UNL     1       4.968   0.180  23.581  0.00  0.00    +0.139 A 
ATOM      4  C   UNL     1       4.512  -0.491  23.435  0.00  0.00    +0.037 A 
ATOM      5  C   UNL     1       3.832  -0.435  22.970  0.00  0.00    +0.001 A 
ATOM      6  C   UNL     1       3.610   0.293  22.651  0.00  0.00    -0.002 A 
ATOM     28  C   UNL     1       4.067   0.964  22.797  0.00  0.00    +0.001 A 
ATOM     29  C   UNL     1       4.746   0.907  23.262  0.00  0.00    +0.037 A 
BRANCH   3   2
ATOM      1  C   UNL     1       5.842  -0.590  24.409  0.00  0.00    +0.252 C 
ATOM      2  O   UNL     1       5.648   0.124  24.046  0.00  0.00    -0.471 OA
ENDBRANCH   3   2
ENDBRANCH   7   6
ENDBRANCH   8   7
BRANCH  20  21
ATOM     21  C   UNL     1      -1.943   0.395  25.194  0.00  0.00    +0.143 C 
BRANCH  21  22
ATOM     22  C   UNL     1      -2.714   0.102  25.180  0.00  0.00    -0.001 A 
ATOM     23  C   UNL     1      -2.881  -0.637  25.508  0.00  0.00    -0.003 A 
ATOM     24  C   UNL     1      -3.652  -0.930  25.494  0.00  0.00    -0.000 A 
ATOM     25  C   UNL     1      -4.256  -0.484  25.153  0.00  0.00    -0.000 A 
ATOM     26  C   UNL     1      -4.090   0.254  24.825  0.00  0.00    -0.000 A 
ATOM     27  C   UNL     1      -3.319   0.547  24.839  0.00  0.00    -0.003 A 
ENDBRANCH  21  22
ENDBRANCH  20  21
TORSDOF 5
ENDMDL
MODEL 7
REMARK VINA RESULT:      -7.6      2.632      5.769
REMARK  Name = 
REMARK  5 active torsions:
REMARK  status: ('A' for Active; 'I' for Inactive)
REMARK    1  A    between atoms: O_2  and  C_3
REMARK    2  A    between atoms: C_6  and  C_7
REMARK    3  A    between atoms: C_7  and  N_8
REMARK    4  A    between atoms: N_20  and  C_21
REMARK    5  A    between atoms: C_21  and  C_22
REMARK                            x       y       z     vdW  Elec       q    Type
REMARK                         _______ _______ _______ _____ _____    ______ ____
ROOT
ATOM      8  N   UNL     1      -0.265   2.093  24.978  0.00  0.00    -0.258 N 
ATOM      9  C   UNL     1      -0.946   1.897  25.401  0.00  0.00    +0.117 C 
ATOM     10  C   UNL     1      -1.181   1.142  25.169  0.00  0.00    +0.117 C 
ATOM     11  C   UNL     1      -1.813   0.665  25.400  0.00  0.00    +0.117 C 
ATOM     12  N   UNL     1      -1.911  -0.082  25.065  0.00  0.00    -0.259 N 
ATOM     13  C   UNL     1      -1.375  -0.354  24.499  0.00  0.00    +0.117 C 
ATOM     14  C   UNL     1      -0.743   0.122  24.268  0.00  0.00    +0.117 C 
ATOM     15  N   UNL     1      -0.645   0.871  24.603  0.00  0.00    -0.261 N 
ATOM     16  C   UNL     1      -0.080   1.458  24.485  0.00  0.00    +0.308 C 
ATOM     17  O   UNL     1       0.560   1.419  23.965  0.00  0.00    -0.252 OA
ATOM     18  C   UNL     1      -2.543  -0.560  25.296  0.00  0.00    +0.324 C 
ATOM     19  O   UNL     1      -3.079  -0.288  25.862  0.00  0.00    -0.251 OA
ATOM     20  N   UNL     1      -2.640  -1.307  24.962  0.00  0.00    -0.184 NA
ENDROOT
BRANCH   8   7
ATOM      7  C   UNL     1       0.156   2.800  25.038  0.00  0.00    +0.122 C 
BRANCH   7   6
ATOM      3  C   UNL     1      -1.045   4.964  25.031  0.00  0.00    +0.139 A 
ATOM      4  C   UNL     1      -1.047   4.493  25.708  0.00  0.00    +0.037 A 
ATOM      5  C   UNL     1      -0.646   3.772  25.711  0.00  0.00    +0.001 A 
ATOM      6  C   UNL     1      -0.244   3.521  25.036  0.00  0.00    -0.002 A 
ATOM     28  C   UNL     1      -0.242   3.992  24.357  0.00  0.00    +0.001 A 
ATOM     29  C   UNL     1      -0.643   4.713  24.356  0.00  0.00    +0.037 A 
BRANCH   3   2
ATOM      1  C   UNL     1      -2.269   5.701  25.061  0.00  0.00    +0.252 C 
ATOM      2  O   UNL     1      -1.446   5.685  25.028  0.00  0.00    -0.471 OA
ENDBRANCH   3   2
ENDBRANCH   7   6
ENDBRANCH   8   7
BRANCH  20  21
ATOM     21  C   UNL     1      -3.273  -1.784  25.193  0.00  0.00    +0.143 C 
BRANCH  21  22
ATOM     22  C   UNL     1      -3.605  -2.316  24.656  0.00  0.00    -0.001 A 
ATOM     23  C   UNL     1      -3.385  -3.111  24.674  0.00  0.00    -0.003 A 
ATOM     24  C   UNL     1      -3.717  -3.643  24.138  0.00  0.00    -0.000 A 
ATOM     25  C   UNL     1      -4.269  -3.379  23.584  0.00  0.00    -0.000 A 
ATOM     26  C   UNL     1      -4.488  -2.585  23.565  0.00  0.00    -0.000 A 
ATOM     27  C   UNL     1      -4.156  -2.053  24.102  0.00  0.00    -0.003 A 
ENDBRANCH  21  22
ENDBRANCH  20  21
TORSDOF 5
ENDMDL
MODEL 8
REMARK VINA RESULT:      -7.4      4.316      6.137
REMARK  Name = 
REMARK  5 active torsions:
REMARK  status: ('A' for Active; 'I' for Inactive)
REMARK    1  A    between atoms: O_2  and  C_3
REMARK    2  A    between atoms: C_6  and  C_7
REMARK    3  A    between atoms: C_7  and  N_8
REMARK    4  A    between atoms: N_20  and  C_21
REMARK    5  A    between atoms: C_21  and  C_22
REMARK                            x       y       z     vdW  Elec       q    Type
REMARK                         _______ _______ _______ _____ _____    ______ ____
ROOT
ATOM      8  N   UNL     1      -4.018   3.259  25.230  0.00  0.00    -0.258 N 
ATOM      9  C   UNL     1      -3.564   2.846  24.678  0.00  0.00    +0.117 C 
ATOM     10  C   UNL     1      -3.829   2.065  24.664  0.00  0.00    +0.117 C 
ATOM     11  C   UNL     1      -3.588   1.408  24.227  0.00  0.00    +0.117 C 
ATOM     12  N   UNL     1      -3.964   0.682  24.333  0.00  0.00    -0.259 N 
ATOM     13  C   UNL     1      -4.580   0.612  24.877  0.00  0.00    +0.117 C 
ATOM     14  C   UNL     1      -4.822   1.268  25.314  0.00  0.00    +0.117 C 
ATOM     15  N   UNL     1      -4.445   1.995  25.208  0.00  0.00    -0.261 N 
ATOM     16  C   UNL     1      -4.562   2.733  25.557  0.00  0.00    +0.308 C 
ATOM     17  O   UNL     1      -5.125   2.913  26.134  0.00  0.00    -0.252 OA
ATOM     18  C   UNL     1      -3.723   0.024  23.896  0.00  0.00    +0.324 C 
ATOM     19  O   UNL     1      -3.106   0.094  23.353  0.00  0.00    -0.251 OA
ATOM     20  N   UNL     1      -4.098  -0.702  24.002  0.00  0.00    -0.184 NA
ENDROOT
BRANCH   8   7
ATOM      7  C   UNL     1      -3.940   4.058  25.422  0.00  0.00    +0.122 C 
BRANCH   7   6
ATOM      3  C   UNL     1      -1.744   5.178  25.195  0.00  0.00    +0.139 A 
ATOM      4  C   UNL     1      -2.330   5.301  24.628  0.00  0.00    +0.037 A 
ATOM      5  C   UNL     1      -3.063   4.928  24.703  0.00  0.00    +0.001 A 
ATOM      6  C   UNL     1      -3.208   4.431  25.346  0.00  0.00    -0.002 A 
ATOM     28  C   UNL     1      -2.622   4.308  25.914  0.00  0.00    +0.001 A 
ATOM     29  C   UNL     1      -1.890   4.681  25.838  0.00  0.00    +0.037 A 
BRANCH   3   2
ATOM      1  C   UNL     1      -0.393   5.171  24.730  0.00  0.00    +0.252 C 
ATOM      2  O   UNL     1      -1.012   5.551  25.120  0.00  0.00    -0.471 OA
ENDBRANCH   3   2
ENDBRANCH   7   6
ENDBRANCH   8   7
BRANCH  20  21
ATOM     21  C   UNL     1      -3.858  -1.359  23.565  0.00  0.00    +0.143 C 
BRANCH  21  22
ATOM     22  C   UNL     1      -3.825  -2.102  23.923  0.00  0.00    -0.001 A 
ATOM     23  C   UNL     1      -4.373  -2.684  23.717  0.00  0.00    -0.003 A 
ATOM     24  C   UNL     1      -4.340  -3.427  24.074  0.00  0.00    -0.000 A 
ATOM     25  C   UNL     1      -3.759  -3.587  24.638  0.00  0.00    -0.000 A 
ATOM     26  C   UNL     1      -3.212  -3.006  24.844  0.00  0.00    -0.000 A 
ATOM     27  C   UNL     1      -3.245  -2.264  24.486  0.00  0.00    -0.003 A 
ENDBRANCH  21  22
ENDBRANCH  20  21
TORSDOF 5
ENDMDL
MODEL 9
REMARK VINA RESULT:      -7.4      1.406      1.853
REMARK  Name = 
REMARK  5 active torsions:
REMARK  status: ('A' for Active; 'I' for Inactive)
REMARK    1  A    between atoms: O_2  and  C_3
REMARK    2  A    between atoms: C_6  and  C_7
REMARK    3  A    between atoms: C_7  and  N_8
REMARK    4  A    between atoms: N_20  and  C_21
REMARK    5  A    between atoms: C_21  and  C_22
REMARK                            x       y       z     vdW  Elec       q    Type
REMARK                         _______ _______ _______ _____ _____    ______ ____
ROOT
ATOM      8  N   UNL     1      -2.148  -0.901  24.871  0.00  0.00    -0.258 N 
ATOM      9  C   UNL     1      -1.879  -0.193  24.543  0.00  0.00    +0.117 C 
ATOM     10  C   UNL     1      -1.100  -0.306  24.298  0.00  0.00    +0.117 C 
ATOM     11  C   UNL     1      -0.556   0.198  23.936  0.00  0.00    +0.117 C 
ATOM     12  N   UNL     1       0.200  -0.075  23.751  0.00  0.00    -0.259 N 
ATOM     13  C   UNL     1       0.413  -0.852  23.928  0.00  0.00    +0.117 C 
ATOM     14  C   UNL     1      -0.130  -1.357  24.289  0.00  0.00    +0.117 C 
ATOM     15  N   UNL     1      -0.887  -1.084  24.474  0.00  0.00    -0.261 N 
ATOM     16  C   UNL     1      -1.535  -1.451  24.828  0.00  0.00    +0.308 C 
ATOM     17  O   UNL     1      -1.564  -2.232  25.094  0.00  0.00    -0.252 OA
ATOM     18  C   UNL     1       0.744   0.429  23.390  0.00  0.00    +0.324 C 
ATOM     19  O   UNL     1       0.531   1.207  23.213  0.00  0.00    -0.251 OA
ATOM     20  N   UNL     1       1.500   0.157  23.205  0.00  0.00    -0.184 NA
ENDROOT
BRANCH   8   7
ATOM      7  C   UNL     1      -2.899  -1.035  25.186  0.00  0.00    +0.122 C 
BRANCH   7   6
ATOM      3  C   UNL     1      -4.736   0.559  24.731  0.00  0.00    +0.139 A 
ATOM      4  C   UNL     1      -4.238   0.677  25.377  0.00  0.00    +0.037 A 
ATOM      5  C   UNL     1      -3.625   0.146  25.530  0.00  0.00    +0.001 A 
ATOM      6  C   UNL     1      -3.511  -0.504  25.035  0.00  0.00    -0.002 A 
ATOM     28  C   UNL     1      -4.009  -0.623  24.387  0.00  0.00    +0.001 A 
ATOM     29  C   UNL     1      -4.622  -0.091  24.236  0.00  0.00    +0.037 A 
BRANCH   3   2
ATOM      1  C   UNL     1      -5.327   1.849  24.898  0.00  0.00    +0.252 C 
ATOM      2  O   UNL     1      -5.349   1.090  24.578  0.00  0.00    -0.471 OA
ENDBRANCH   3   2
ENDBRANCH   7   6
ENDBRANCH   8   7
BRANCH  20  21
ATOM     21  C   UNL     1       2.044   0.661  22.844  0.00  0.00    +0.143 C 
BRANCH  21  22
ATOM     22  C   UNL     1       2.851   0.492  22.882  0.00  0.00    -0.001 A 
ATOM     23  C   UNL     1       3.105  -0.287  22.983  0.00  0.00    -0.003 A 
ATOM     24  C   UNL     1       3.912  -0.456  23.021  0.00  0.00    -0.000 A 
ATOM     25  C   UNL     1       4.464   0.154  22.958  0.00  0.00    -0.000 A 
ATOM     26  C   UNL     1       4.210   0.932  22.857  0.00  0.00    -0.000 A 
ATOM     27  C   UNL     1       3.404   1.101  22.819  0.00  0.00    -0.003 A 
ENDBRANCH  21  22
ENDBRANCH  20  21
TORSDOF 5
ENDMDL
MODEL 10
REMARK VINA RESULT:      -7.1     14.139     16.340
REMARK  Name = 
REMARK  5 active torsions:
REMARK  status: ('A' for Active; 'I' for Inactive)
REMARK    1  A    between atoms: O_2  and  C_3
REMARK    2  A    between atoms: C_6  and  C_7
REMARK    3  A    between atoms: C_7  and  N_8
REMARK    4  A    between atoms: N_20  and  C_21
REMARK    5  A    between atoms: C_21  and  C_22
REMARK                            x       y       z     vdW  Elec       q    Type
REMARK                         _______ _______ _______ _____ _____    ______ ____
ROOT
ATOM      8  N   UNL     1      -4.214 -10.648  12.130  0.00  0.00    -0.258 N 
ATOM      9  C   UNL     1      -3.926 -10.575  12.900  0.00  0.00    +0.117 C 
ATOM     10  C   UNL     1      -4.569 -10.446  13.400  0.00  0.00    +0.117 C 
ATOM     11  C   UNL     1      -4.620 -10.334  14.216  0.00  0.00    +0.117 C 
ATOM     12  N   UNL     1      -5.354 -10.215  14.572  0.00  0.00    -0.259 N 
ATOM     13  C   UNL     1      -6.039 -10.208  14.111  0.00  0.00    +0.117 C 
ATOM     14  C   UNL     1      -5.989 -10.320  13.296  0.00  0.00    +0.117 C 
ATOM     15  N   UNL     1      -5.253 -10.439  12.940  0.00  0.00    -0.261 N 
ATOM     16  C   UNL     1      -5.034 -10.564  12.155  0.00  0.00    +0.308 C 
ATOM     17  O   UNL     1      -5.545 -10.599  11.508  0.00  0.00    -0.252 OA
ATOM     18  C   UNL     1      -5.405 -10.103  15.388  0.00  0.00    +0.324 C 
ATOM     19  O   UNL     1      -4.721 -10.109  15.848  0.00  0.00    -0.251 OA
ATOM     20  N   UNL     1      -6.140  -9.984  15.743  0.00  0.00    -0.184 NA
ENDROOT
BRANCH   8   7
ATOM      7  C   UNL     1      -3.761 -10.781  11.453  0.00  0.00    +0.122 C 
BRANCH   7   6
ATOM      3  C   UNL     1      -1.782  -9.369  10.990  0.00  0.00    +0.139 A 
ATOM      4  C   UNL     1      -1.720 -10.008  11.508  0.00  0.00    +0.037 A 
ATOM      5  C   UNL     1      -2.380 -10.479  11.663  0.00  0.00    +0.001 A 
ATOM      6  C   UNL     1      -3.101 -10.311  11.299  0.00  0.00    -0.002 A 
ATOM     28  C   UNL     1      -3.163  -9.671  10.781  0.00  0.00    +0.001 A 
ATOM     29  C   UNL     1      -2.503  -9.201  10.626  0.00  0.00    +0.037 A 
BRANCH   3   2
ATOM      1  C   UNL     1      -0.497  -8.872  11.372  0.00  0.00    +0.252 C 
ATOM      2  O   UNL     1      -1.122  -8.898  10.835  0.00  0.00    -0.471 OA
ENDBRANCH   3   2
ENDBRANCH   7   6
ENDBRANCH   8   7
BRANCH  20  21
ATOM     21  C   UNL     1      -6.191  -9.872  16.559  0.00  0.00    +0.143 C 
BRANCH  21  22
ATOM     22  C   UNL     1      -6.929  -9.852  16.926  0.00  0.00    -0.001 A 
ATOM     23  C   UNL     1      -7.201 -10.511  17.342  0.00  0.00    -0.003 A 
ATOM     24  C   UNL     1      -7.940 -10.491  17.710  0.00  0.00    -0.000 A 
ATOM     25  C   UNL     1      -8.405  -9.812  17.662  0.00  0.00    -0.000 A 
ATOM     26  C   UNL     1      -8.134  -9.153  17.247  0.00  0.00    -0.000 A 
ATOM     27  C   UNL     1      -7.396  -9.173  16.879  0.00  0.00    -0.003 A 
ENDBRANCH  21  22
ENDBRANCH  20  21
TORSDOF 5
ENDMDL
