MODEL 1
REMARK VINA RESULT:      -7.2      0.000      0.000
REMARK  Name = 
REMARK  7 active torsions:
REMARK  status: ('A' for Active; 'I' for Inactive)
REMARK    1  A    between atoms: O_2  and  C_3
REMARK    2  A    between atoms: C_3  and  C_4
REMARK    3  A    between atoms: N_6  and  C_7
REMARK    4  A    between atoms: C_7  and  C_8
REMARK    5  A    between atoms: C_11  and  N_12
REMARK    6  A    between atoms: N_12  and  C_13
REMARK    7  A    between atoms: C_13  and  C_14
REMARK                            x       y       z     vdW  Elec       q    Type
REMARK                         _______ _______ _______ _____ _____    ______ ____
ROOT
ATOM      8  C   UNL     1      -2.132   1.737  25.018  0.00  0.00    +0.169 C 
ATOM      9  O   UNL     1      -2.942   1.858  24.914  0.00  0.00    -0.350 OA
ATOM     10  C   UNL     1      -3.293   1.125  24.772  0.00  0.00    +0.162 C 
ATOM     11  C   UNL     1      -2.701   0.551  24.788  0.00  0.00    +0.135 C 
ATOM     20  C   UNL     1      -1.984   0.929  24.940  0.00  0.00    +0.199 C 
ATOM     21  O   UNL     1      -1.247   0.563  25.003  0.00  0.00    -0.219 OA
ENDROOT
BRANCH   8   7
ATOM      7  C   UNL     1      -1.571   2.321  25.172  0.00  0.00    +0.147 C 
BRANCH   7   6
ATOM      4  C   UNL     1      -1.231   3.700  25.329  0.00  0.00    +0.272 C 
ATOM      5  O   UNL     1      -0.457   3.487  25.521  0.00  0.00    -0.271 OA
ATOM      6  N   UNL     1      -1.787   3.116  25.154  0.00  0.00    -0.201 NA
BRANCH   4   3
ATOM      3  C   UNL     1      -1.447   4.495  25.311  0.00  0.00    +0.229 C 
BRANCH   3   2
ATOM      1  C   UNL     1      -1.210   5.823  24.840  0.00  0.00    +0.175 C 
ATOM      2  O   UNL     1      -0.946   5.053  24.967  0.00  0.00    -0.342 OA
ENDBRANCH   3   2
ENDBRANCH   4   3
ENDBRANCH   7   6
ENDBRANCH   8   7
BRANCH  11  12
ATOM     12  N   UNL     1      -2.808  -0.259  24.673  0.00  0.00    -0.209 NA
BRANCH  12  13
ATOM     13  C   UNL     1      -3.552  -0.597  24.783  0.00  0.00    +0.117 C 
BRANCH  13  14
ATOM     14  C   UNL     1      -3.669  -1.398  24.624  0.00  0.00    +0.014 A 
ATOM     15  C   UNL     1      -4.047  -1.630  23.929  0.00  0.00    +0.000 A 
ATOM     16  C   UNL     1      -4.164  -2.431  23.770  0.00  0.00    +0.020 A 
ATOM     17  C   UNL     1      -3.902  -3.000  24.307  0.00  0.00    +0.099 A 
ATOM     18  N   UNL     1      -3.524  -2.768  25.002  0.00  0.00    -0.243 NA
ATOM     19  C   UNL     1      -3.407  -1.968  25.161  0.00  0.00    +0.096 A 
ENDBRANCH  13  14
ENDBRANCH  12  13
ENDBRANCH  11  12
TORSDOF 7
ENDMDL
MODEL 2
REMARK VINA RESULT:      -7.1      2.832      4.158
REMARK  Name = 
REMARK  7 active torsions:
REMARK  status: ('A' for Active; 'I' for Inactive)
REMARK    1  A    between atoms: O_2  and  C_3
REMARK    2  A    between atoms: C_3  and  C_4
REMARK    3  A    between atoms: N_6  and  C_7
REMARK    4  A    between atoms: C_7  and  C_8
REMARK    5  A    between atoms: C_11  and  N_12
REMARK    6  A    between atoms: N_12  and  C_13
REMARK    7  A    between atoms: C_13  and  C_14
REMARK                            x       y       z     vdW  Elec       q    Type
REMARK                         _______ _______ _______ _____ _____    ______ ____
ROOT
ATOM      8  C   UNL     1      -1.378   0.913  24.013  0.00  0.00    +0.169 C 
ATOM      9  O   UNL     1      -1.568   1.480  23.444  0.00  0.00    -0.350 OA
ATOM     10  C   UNL     1      -2.280   1.834  23.663  0.00  0.00    +0.162 C 
ATOM     11  C   UNL     1      -2.532   1.486  24.366  0.00  0.00    +0.135 C 
ATOM     20  C   UNL     1      -1.975   0.917  24.583  0.00  0.00    +0.199 C 
ATOM     21  O   UNL     1      -2.008   0.436  25.253  0.00  0.00    -0.219 OA
ENDROOT
BRANCH   8   7
ATOM      7  C   UNL     1      -0.712   0.429  24.011  0.00  0.00    +0.147 C 
BRANCH   7   6
ATOM      4  C   UNL     1       0.473  -0.025  23.354  0.00  0.00    +0.272 C 
ATOM      5  O   UNL     1       0.480  -0.698  23.830  0.00  0.00    -0.271 OA
ATOM      6  N   UNL     1      -0.123   0.539  23.445  0.00  0.00    -0.201 NA
BRANCH   4   3
ATOM      3  C   UNL     1       1.062   0.085  22.787  0.00  0.00    +0.229 C 
BRANCH   3   2
ATOM      1  C   UNL     1       2.445   0.076  22.429  0.00  0.00    +0.175 C 
ATOM      2  O   UNL     1       1.844  -0.116  22.959  0.00  0.00    -0.342 OA
ENDBRANCH   3   2
ENDBRANCH   4   3
ENDBRANCH   7   6
ENDBRANCH   8   7
BRANCH  11  12
ATOM     12  N   UNL     1      -3.220   1.674  24.781  0.00  0.00    -0.209 NA
BRANCH  12  13
ATOM     13  C   UNL     1      -3.795   2.151  24.432  0.00  0.00    +0.117 C 
BRANCH  13  14
ATOM     14  C   UNL     1      -4.481   2.342  24.849  0.00  0.00    +0.014 A 
ATOM     15  C   UNL     1      -5.141   1.850  24.806  0.00  0.00    +0.000 A 
ATOM     16  C   UNL     1      -5.826   2.042  25.222  0.00  0.00    +0.020 A 
ATOM     17  C   UNL     1      -5.852   2.727  25.682  0.00  0.00    +0.099 A 
ATOM     18  N   UNL     1      -5.192   3.219  25.725  0.00  0.00    -0.243 NA
ATOM     19  C   UNL     1      -4.506   3.027  25.309  0.00  0.00    +0.096 A 
ENDBRANCH  13  14
ENDBRANCH  12  13
ENDBRANCH  11  12
TORSDOF 7
ENDMDL
MODEL 3
REMARK VINA RESULT:      -6.8      1.757      5.601
REMARK  Name = 
REMARK  7 active torsions:
REMARK  status: ('A' for Active; 'I' for Inactive)
REMARK    1  A    between atoms: O_2  and  C_3
REMARK    2  A    between atoms: C_3  and  C_4
REMARK    3  A    between atoms: N_6  and  C_7
REMARK    4  A    between atoms: C_7  and  C_8
REMARK    5  A    between atoms: C_11  and  N_12
REMARK    6  A    between atoms: N_12  and  C_13
REMARK    7  A    between atoms: C_13  and  C_14
REMARK                            x       y       z     vdW  Elec       q    Type
REMARK                         _______ _______ _______ _____ _____    ______ ____
ROOT
ATOM      8  C   UNL     1      -1.070   0.256  24.918  0.00  0.00    +0.169 C 
ATOM      9  O   UNL     1      -0.962   0.421  25.719  0.00  0.00    -0.350 OA
ATOM     10  C   UNL     1      -0.925   1.240  25.808  0.00  0.00    +0.162 C 
ATOM     11  C   UNL     1      -1.009   1.582  25.063  0.00  0.00    +0.135 C 
ATOM     20  C   UNL     1      -1.098   0.974  24.512  0.00  0.00    +0.199 C 
ATOM     21  O   UNL     1      -1.199   1.067  23.699  0.00  0.00    -0.219 OA
ENDROOT
BRANCH   8   7
ATOM      7  C   UNL     1      -1.136  -0.494  24.582  0.00  0.00    +0.147 C 
BRANCH   7   6
ATOM      4  C   UNL     1      -1.765  -1.777  24.540  0.00  0.00    +0.272 C 
ATOM      5  O   UNL     1      -1.185  -2.044  24.017  0.00  0.00    -0.271 OA
ATOM      6  N   UNL     1      -1.740  -1.001  24.822  0.00  0.00    -0.201 NA
BRANCH   4   3
ATOM      3  C   UNL     1      -2.369  -2.284  24.780  0.00  0.00    +0.229 C 
BRANCH   3   2
ATOM      1  C   UNL     1      -3.623  -2.906  24.494  0.00  0.00    +0.175 C 
ATOM      2  O   UNL     1      -2.926  -2.551  24.233  0.00  0.00    -0.342 OA
ENDBRANCH   3   2
ENDBRANCH   4   3
ENDBRANCH   7   6
ENDBRANCH   8   7
BRANCH  11  12
ATOM     12  N   UNL     1      -1.004   2.390  24.896  0.00  0.00    -0.209 NA
BRANCH  12  13
ATOM     13  C   UNL     1      -1.053   2.938  25.511  0.00  0.00    +0.117 C 
BRANCH  13  14
ATOM     14  C   UNL     1      -1.167   3.738  25.342  0.00  0.00    +0.014 A 
ATOM     15  C   UNL     1      -1.887   4.098  25.519  0.00  0.00    +0.000 A 
ATOM     16  C   UNL     1      -2.001   4.897  25.351  0.00  0.00    +0.020 A 
ATOM     17  C   UNL     1      -1.394   5.337  25.006  0.00  0.00    +0.099 A 
ATOM     18  N   UNL     1      -0.674   4.977  24.829  0.00  0.00    -0.243 NA
ATOM     19  C   UNL     1      -0.560   4.177  24.997  0.00  0.00    +0.096 A 
ENDBRANCH  13  14
ENDBRANCH  12  13
ENDBRANCH  11  12
TORSDOF 7
ENDMDL
MODEL 4
REMARK VINA RESULT:      -5.5     15.598     18.108
REMARK  Name = 
REMARK  7 active torsions:
REMARK  status: ('A' for Active; 'I' for Inactive)
REMARK    1  A    between atoms: O_2  and  C_3
REMARK    2  A    between atoms: C_3  and  C_4
REMARK    3  A    between atoms: N_6  and  C_7
REMARK    4  A    between atoms: C_7  and  C_8
REMARK    5  A    between atoms: C_11  and  N_12
REMARK    6  A    between atoms: N_12  and  C_13
REMARK    7  A    between atoms: C_13  and  C_14
REMARK                            x       y       z     vdW  Elec       q    Type
REMARK                         _______ _______ _______ _____ _____    ______ ____
ROOT
ATOM      8  C   UNL     1      12.730   8.508  17.921  0.00  0.00    +0.169 C 
ATOM      9  O   UNL     1      13.347   8.442  18.465  0.00  0.00    -0.350 OA
ATOM     10  C   UNL     1      13.017   8.336  19.214  0.00  0.00    +0.162 C 
ATOM     11  C   UNL     1      12.197   8.336  19.133  0.00  0.00    +0.135 C 
ATOM     20  C   UNL     1      12.019   8.442  18.335  0.00  0.00    +0.199 C 
ATOM     21  O   UNL     1      11.263   8.477  18.007  0.00  0.00    -0.219 OA
ENDROOT
BRANCH   8   7
ATOM      7  C   UNL     1      12.810   8.619  17.108  0.00  0.00    +0.147 C 
BRANCH   7   6
ATOM      4  C   UNL     1      13.629   8.906  15.973  0.00  0.00    +0.272 C 
ATOM      5  O   UNL     1      12.969   8.849  15.482  0.00  0.00    -0.271 OA
ATOM      6  N   UNL     1      13.549   8.791  16.786  0.00  0.00    -0.201 NA
BRANCH   4   3
ATOM      3  C   UNL     1      14.368   9.077  15.651  0.00  0.00    +0.229 C 
BRANCH   3   2
ATOM      1  C   UNL     1      15.229   9.094  14.510  0.00  0.00    +0.175 C 
ATOM      2  O   UNL     1      14.569   8.794  14.902  0.00  0.00    -0.342 OA
ENDBRANCH   3   2
ENDBRANCH   4   3
ENDBRANCH   7   6
ENDBRANCH   8   7
BRANCH  11  12
ATOM     12  N   UNL     1      11.650   8.246  19.744  0.00  0.00    -0.209 NA
BRANCH  12  13
ATOM     13  C   UNL     1      11.910   8.141  20.520  0.00  0.00    +0.117 C 
BRANCH  13  14
ATOM     14  C   UNL     1      11.364   8.048  21.130  0.00  0.00    +0.014 A 
ATOM     15  C   UNL     1      11.015   8.711  21.476  0.00  0.00    +0.000 A 
ATOM     16  C   UNL     1      10.468   8.618  22.086  0.00  0.00    +0.020 A 
ATOM     17  C   UNL     1      10.270   7.862  22.351  0.00  0.00    +0.099 A 
ATOM     18  N   UNL     1      10.618   7.199  22.005  0.00  0.00    -0.243 NA
ATOM     19  C   UNL     1      11.165   7.292  21.395  0.00  0.00    +0.096 A 
ENDBRANCH  13  14
ENDBRANCH  12  13
ENDBRANCH  11  12
TORSDOF 7
ENDMDL
MODEL 5
REMARK VINA RESULT:      -5.3     16.129     18.433
REMARK  Name = 
REMARK  7 active torsions:
REMARK  status: ('A' for Active; 'I' for Inactive)
REMARK    1  A    between atoms: O_2  and  C_3
REMARK    2  A    between atoms: C_3  and  C_4
REMARK    3  A    between atoms: N_6  and  C_7
REMARK    4  A    between atoms: C_7  and  C_8
REMARK    5  A    between atoms: C_11  and  N_12
REMARK    6  A    between atoms: N_12  and  C_13
REMARK    7  A    between atoms: C_13  and  C_14
REMARK                            x       y       z     vdW  Elec       q    Type
REMARK                         _______ _______ _______ _____ _____    ______ ____
ROOT
ATOM      8  C   UNL     1      14.856   6.849  20.598  0.00  0.00    +0.169 C 
ATOM      9  O   UNL     1      14.351   6.780  19.948  0.00  0.00    -0.350 OA
ATOM     10  C   UNL     1      13.587   6.965  20.198  0.00  0.00    +0.162 C 
ATOM     11  C   UNL     1      13.618   7.148  21.001  0.00  0.00    +0.135 C 
ATOM     20  C   UNL     1      14.402   7.076  21.249  0.00  0.00    +0.199 C 
ATOM     21  O   UNL     1      14.683   7.209  22.013  0.00  0.00    -0.219 OA
ENDROOT
BRANCH   8   7
ATOM      7  C   UNL     1      15.669   6.715  20.597  0.00  0.00    +0.147 C 
BRANCH   7   6
ATOM      4  C   UNL     1      16.860   6.345  19.898  0.00  0.00    +0.272 C 
ATOM      5  O   UNL     1      17.275   6.338  20.611  0.00  0.00    -0.271 OA
ATOM      6  N   UNL     1      16.056   6.534  19.892  0.00  0.00    -0.201 NA
BRANCH   4   3
ATOM      3  C   UNL     1      17.247   6.163  19.193  0.00  0.00    +0.229 C 
BRANCH   3   2
ATOM      1  C   UNL     1      17.405   5.307  18.061  0.00  0.00    +0.175 C 
ATOM      2  O   UNL     1      17.098   5.447  18.813  0.00  0.00    -0.342 OA
ENDBRANCH   3   2
ENDBRANCH   4   3
ENDBRANCH   7   6
ENDBRANCH   8   7
BRANCH  11  12
ATOM     12  N   UNL     1      12.978   7.364  21.475  0.00  0.00    -0.209 NA
BRANCH  12  13
ATOM     13  C   UNL     1      12.257   7.566  21.127  0.00  0.00    +0.117 C 
BRANCH  13  14
ATOM     14  C   UNL     1      11.608   7.749  21.601  0.00  0.00    +0.014 A 
ATOM     15  C   UNL     1      10.989   7.210  21.680  0.00  0.00    +0.000 A 
ATOM     16  C   UNL     1      10.339   7.394  22.154  0.00  0.00    +0.020 A 
ATOM     17  C   UNL     1      10.309   8.118  22.549  0.00  0.00    +0.099 A 
ATOM     18  N   UNL     1      10.928   8.657  22.470  0.00  0.00    -0.243 NA
ATOM     19  C   UNL     1      11.577   8.473  21.997  0.00  0.00    +0.096 A 
ENDBRANCH  13  14
ENDBRANCH  12  13
ENDBRANCH  11  12
TORSDOF 7
ENDMDL
MODEL 6
REMARK VINA RESULT:      -5.2     17.186     18.871
REMARK  Name = 
REMARK  7 active torsions:
REMARK  status: ('A' for Active; 'I' for Inactive)
REMARK    1  A    between atoms: O_2  and  C_3
REMARK    2  A    between atoms: C_3  and  C_4
REMARK    3  A    between atoms: N_6  and  C_7
REMARK    4  A    between atoms: C_7  and  C_8
REMARK    5  A    between atoms: C_11  and  N_12
REMARK    6  A    between atoms: N_12  and  C_13
REMARK    7  A    between atoms: C_13  and  C_14
REMARK                            x       y       z     vdW  Elec       q    Type
REMARK                         _______ _______ _______ _____ _____    ______ ____
ROOT
ATOM      8  C   UNL     1      12.873   7.603  18.939  0.00  0.00    +0.169 C 
ATOM      9  O   UNL     1      13.197   7.011  18.464  0.00  0.00    -0.350 OA
ATOM     10  C   UNL     1      13.945   6.827  18.760  0.00  0.00    +0.162 C 
ATOM     11  C   UNL     1      14.083   7.304  19.418  0.00  0.00    +0.135 C 
ATOM     20  C   UNL     1      13.421   7.784  19.529  0.00  0.00    +0.199 C 
ATOM     21  O   UNL     1      13.324   8.346  20.125  0.00  0.00    -0.219 OA
ENDROOT
BRANCH   8   7
ATOM      7  C   UNL     1      12.132   7.952  18.841  0.00  0.00    +0.147 C 
BRANCH   7   6
ATOM      4  C   UNL     1      11.142   8.490  17.963  0.00  0.00    +0.272 C 
ATOM      5  O   UNL     1      10.562   8.354  18.534  0.00  0.00    -0.271 OA
ATOM      6  N   UNL     1      11.927   8.288  18.117  0.00  0.00    -0.201 NA
BRANCH   4   3
ATOM      3  C   UNL     1      10.936   8.826  17.239  0.00  0.00    +0.229 C 
BRANCH   3   2
ATOM      1  C   UNL     1      10.284   8.714  15.972  0.00  0.00    +0.175 C 
ATOM      2  O   UNL     1      10.404   8.440  16.740  0.00  0.00    -0.342 OA
ENDBRANCH   3   2
ENDBRANCH   4   3
ENDBRANCH   7   6
ENDBRANCH   8   7
BRANCH  11  12
ATOM     12  N   UNL     1      14.764   7.303  19.884  0.00  0.00    -0.209 NA
BRANCH  12  13
ATOM     13  C   UNL     1      15.277   6.657  19.863  0.00  0.00    +0.117 C 
BRANCH  13  14
ATOM     14  C   UNL     1      15.986   6.679  20.283  0.00  0.00    +0.014 A 
ATOM     15  C   UNL     1      16.006   6.440  21.072  0.00  0.00    +0.000 A 
ATOM     16  C   UNL     1      16.715   6.463  21.493  0.00  0.00    +0.020 A 
ATOM     17  C   UNL     1      17.405   6.724  21.124  0.00  0.00    +0.099 A 
ATOM     18  N   UNL     1      17.386   6.963  20.335  0.00  0.00    -0.243 NA
ATOM     19  C   UNL     1      16.677   6.941  19.914  0.00  0.00    +0.096 A 
ENDBRANCH  13  14
ENDBRANCH  12  13
ENDBRANCH  11  12
TORSDOF 7
ENDMDL
MODEL 7
REMARK VINA RESULT:      -5.2     17.616     19.294
REMARK  Name = 
REMARK  7 active torsions:
REMARK  status: ('A' for Active; 'I' for Inactive)
REMARK    1  A    between atoms: O_2  and  C_3
REMARK    2  A    between atoms: C_3  and  C_4
REMARK    3  A    between atoms: N_6  and  C_7
REMARK    4  A    between atoms: C_7  and  C_8
REMARK    5  A    between atoms: C_11  and  N_12
REMARK    6  A    between atoms: N_12  and  C_13
REMARK    7  A    between atoms: C_13  and  C_14
REMARK                            x       y       z     vdW  Elec       q    Type
REMARK                         _______ _______ _______ _____ _____    ______ ____
ROOT
ATOM      8  C   UNL     1      14.751   7.623  18.552  0.00  0.00    +0.169 C 
ATOM      9  O   UNL     1      14.685   8.438  18.662  0.00  0.00    -0.350 OA
ATOM     10  C   UNL     1      13.981   8.686  18.310  0.00  0.00    +0.162 C 
ATOM     11  C   UNL     1      13.613   8.025  17.983  0.00  0.00    +0.135 C 
ATOM     20  C   UNL     1      14.088   7.368  18.132  0.00  0.00    +0.199 C 
ATOM     21  O   UNL     1      13.928   6.592  17.902  0.00  0.00    -0.219 OA
ENDROOT
BRANCH   8   7
ATOM      7  C   UNL     1      15.371   7.147  18.816  0.00  0.00    +0.147 C 
BRANCH   7   6
ATOM      4  C   UNL     1      16.406   6.878  19.763  0.00  0.00    +0.272 C 
ATOM      5  O   UNL     1      16.677   6.257  19.292  0.00  0.00    -0.271 OA
ATOM      6  N   UNL     1      15.753   7.322  19.525  0.00  0.00    -0.201 NA
BRANCH   4   3
ATOM      3  C   UNL     1      16.788   7.053  20.473  0.00  0.00    +0.229 C 
BRANCH   3   2
ATOM      1  C   UNL     1      17.405   6.567  21.666  0.00  0.00    +0.175 C 
ATOM      2  O   UNL     1      17.207   6.465  20.873  0.00  0.00    -0.342 OA
ENDBRANCH   3   2
ENDBRANCH   4   3
ENDBRANCH   7   6
ENDBRANCH   8   7
BRANCH  11  12
ATOM     12  N   UNL     1      12.894   8.022  17.577  0.00  0.00    -0.209 NA
BRANCH  12  13
ATOM     13  C   UNL     1      12.441   8.710  17.534  0.00  0.00    +0.117 C 
BRANCH  13  14
ATOM     14  C   UNL     1      11.742   8.718  17.096  0.00  0.00    +0.014 A 
ATOM     15  C   UNL     1      11.722   9.086  16.358  0.00  0.00    +0.000 A 
ATOM     16  C   UNL     1      11.023   9.094  15.920  0.00  0.00    +0.020 A 
ATOM     17  C   UNL     1      10.344   8.732  16.220  0.00  0.00    +0.099 A 
ATOM     18  N   UNL     1      10.365   8.364  16.958  0.00  0.00    -0.243 NA
ATOM     19  C   UNL     1      11.063   8.356  17.396  0.00  0.00    +0.096 A 
ENDBRANCH  13  14
ENDBRANCH  12  13
ENDBRANCH  11  12
TORSDOF 7
ENDMDL
MODEL 8
REMARK VINA RESULT:      -4.8     14.087     16.512
REMARK  Name = 
REMARK  7 active torsions:
REMARK  status: ('A' for Active; 'I' for Inactive)
REMARK    1  A    between atoms: O_2  and  C_3
REMARK    2  A    between atoms: C_3  and  C_4
REMARK    3  A    between atoms: N_6  and  C_7
REMARK    4  A    between atoms: C_7  and  C_8
REMARK    5  A    between atoms: C_11  and  N_12
REMARK    6  A    between atoms: N_12  and  C_13
REMARK    7  A    between atoms: C_13  and  C_14
REMARK                            x       y       z     vdW  Elec       q    Type
REMARK                         _______ _______ _______ _____ _____    ______ ____
ROOT
ATOM      8  C   UNL     1      -4.425 -10.517  14.547  0.00  0.00    +0.169 C 
ATOM      9  O   UNL     1      -5.196 -10.364  14.294  0.00  0.00    -0.350 OA
ATOM     10  C   UNL     1      -5.187 -10.301  13.472  0.00  0.00    +0.162 C 
ATOM     11  C   UNL     1      -4.411 -10.414  13.216  0.00  0.00    +0.135 C 
ATOM     20  C   UNL     1      -3.940 -10.547  13.880  0.00  0.00    +0.199 C 
ATOM     21  O   UNL     1      -3.127 -10.687  13.877  0.00  0.00    -0.219 OA
ENDROOT
BRANCH   8   7
ATOM      7  C   UNL     1      -4.182 -10.620  15.328  0.00  0.00    +0.147 C 
BRANCH   7   6
ATOM      4  C   UNL     1      -4.483 -10.634  16.725  0.00  0.00    +0.272 C 
ATOM      5  O   UNL     1      -3.682 -10.732  16.897  0.00  0.00    -0.271 OA
ATOM      6  N   UNL     1      -4.732 -10.577  15.940  0.00  0.00    -0.201 NA
BRANCH   4   3
ATOM      3  C   UNL     1      -5.033 -10.591  17.337  0.00  0.00    +0.229 C 
BRANCH   3   2
ATOM      1  C   UNL     1      -5.370 -10.781  18.713  0.00  0.00    +0.175 C 
ATOM      2  O   UNL     1      -4.809 -10.779  18.108  0.00  0.00    -0.342 OA
ENDBRANCH   3   2
ENDBRANCH   4   3
ENDBRANCH   7   6
ENDBRANCH   8   7
BRANCH  11  12
ATOM     12  N   UNL     1      -4.152 -10.396  12.432  0.00  0.00    -0.209 NA
BRANCH  12  13
ATOM     13  C   UNL     1      -4.644 -10.098  11.841  0.00  0.00    +0.117 C 
BRANCH  13  14
ATOM     14  C   UNL     1      -4.363 -10.023  11.070  0.00  0.00    +0.014 A 
ATOM     15  C   UNL     1      -4.104  -9.290  10.794  0.00  0.00    +0.000 A 
ATOM     16  C   UNL     1      -3.823  -9.215  10.022  0.00  0.00    +0.020 A 
ATOM     17  C   UNL     1      -3.801  -9.874   9.525  0.00  0.00    +0.099 A 
ATOM     18  N   UNL     1      -4.060 -10.607   9.801  0.00  0.00    -0.243 NA
ATOM     19  C   UNL     1      -4.341 -10.682  10.573  0.00  0.00    +0.096 A 
ENDBRANCH  13  14
ENDBRANCH  12  13
ENDBRANCH  11  12
TORSDOF 7
ENDMDL
MODEL 9
REMARK VINA RESULT:      -4.7     14.437     15.778
REMARK  Name = 
REMARK  7 active torsions:
REMARK  status: ('A' for Active; 'I' for Inactive)
REMARK    1  A    between atoms: O_2  and  C_3
REMARK    2  A    between atoms: C_3  and  C_4
REMARK    3  A    between atoms: N_6  and  C_7
REMARK    4  A    between atoms: C_7  and  C_8
REMARK    5  A    between atoms: C_11  and  N_12
REMARK    6  A    between atoms: N_12  and  C_13
REMARK    7  A    between atoms: C_13  and  C_14
REMARK                            x       y       z     vdW  Elec       q    Type
REMARK                         _______ _______ _______ _____ _____    ______ ____
ROOT
ATOM      8  C   UNL     1      -3.652 -10.675  13.986  0.00  0.00    +0.169 C 
ATOM      9  O   UNL     1      -3.145 -10.770  14.631  0.00  0.00    -0.350 OA
ATOM     10  C   UNL     1      -3.598 -10.729  15.319  0.00  0.00    +0.162 C 
ATOM     11  C   UNL     1      -4.384 -10.608  15.101  0.00  0.00    +0.135 C 
ATOM     20  C   UNL     1      -4.417 -10.574  14.278  0.00  0.00    +0.199 C 
ATOM     21  O   UNL     1      -5.098 -10.460  13.825  0.00  0.00    -0.219 OA
ENDROOT
BRANCH   8   7
ATOM      7  C   UNL     1      -3.432 -10.679  13.191  0.00  0.00    +0.147 C 
BRANCH   7   6
ATOM      4  C   UNL     1      -2.465 -10.415  12.174  0.00  0.00    +0.272 C 
ATOM      5  O   UNL     1      -2.998 -10.673  11.600  0.00  0.00    -0.271 OA
ATOM      6  N   UNL     1      -2.682 -10.419  12.969  0.00  0.00    -0.201 NA
BRANCH   4   3
ATOM      3  C   UNL     1      -1.715 -10.155  11.952  0.00  0.00    +0.229 C 
BRANCH   3   2
ATOM      1  C   UNL     1      -0.885  -9.293  11.170  0.00  0.00    +0.175 C 
ATOM      2  O   UNL     1      -1.635  -9.537  11.410  0.00  0.00    -0.342 OA
ENDBRANCH   3   2
ENDBRANCH   4   3
ENDBRANCH   7   6
ENDBRANCH   8   7
BRANCH  11  12
ATOM     12  N   UNL     1      -5.024 -10.533  15.617  0.00  0.00    -0.209 NA
BRANCH  12  13
ATOM     13  C   UNL     1      -4.893 -10.404  16.421  0.00  0.00    +0.117 C 
BRANCH  13  14
ATOM     14  C   UNL     1      -5.533 -10.331  16.936  0.00  0.00    +0.014 A 
ATOM     15  C   UNL     1      -5.560 -10.781  17.626  0.00  0.00    +0.000 A 
ATOM     16  C   UNL     1      -6.200 -10.708  18.142  0.00  0.00    +0.020 A 
ATOM     17  C   UNL     1      -6.813 -10.185  17.967  0.00  0.00    +0.099 A 
ATOM     18  N   UNL     1      -6.786  -9.734  17.276  0.00  0.00    -0.243 NA
ATOM     19  C   UNL     1      -6.147  -9.807  16.761  0.00  0.00    +0.096 A 
ENDBRANCH  13  14
ENDBRANCH  12  13
ENDBRANCH  11  12
TORSDOF 7
ENDMDL
MODEL 10
REMARK VINA RESULT:      -4.6     17.263     18.675
REMARK  Name = 
REMARK  7 active torsions:
REMARK  status: ('A' for Active; 'I' for Inactive)
REMARK    1  A    between atoms: O_2  and  C_3
REMARK    2  A    between atoms: C_3  and  C_4
REMARK    3  A    between atoms: N_6  and  C_7
REMARK    4  A    between atoms: C_7  and  C_8
REMARK    5  A    between atoms: C_11  and  N_12
REMARK    6  A    between atoms: N_12  and  C_13
REMARK    7  A    between atoms: C_13  and  C_14
REMARK                            x       y       z     vdW  Elec       q    Type
REMARK                         _______ _______ _______ _____ _____    ______ ____
ROOT
ATOM      8  C   UNL     1      -5.585  -8.542   9.336  0.00  0.00    +0.169 C 
ATOM      9  O   UNL     1      -5.220  -9.068   8.815  0.00  0.00    -0.350 OA
ATOM     10  C   UNL     1      -4.522  -9.333   9.167  0.00  0.00    +0.162 C 
ATOM     11  C   UNL     1      -4.455  -8.970   9.904  0.00  0.00    +0.135 C 
ATOM     20  C   UNL     1      -5.112  -8.481  10.009  0.00  0.00    +0.199 C 
ATOM     21  O   UNL     1      -5.267  -8.014  10.671  0.00  0.00    -0.219 OA
ENDROOT
BRANCH   8   7
ATOM      7  C   UNL     1      -6.296  -8.146   9.206  0.00  0.00    +0.147 C 
BRANCH   7   6
ATOM      4  C   UNL     1      -7.591  -8.105   8.602  0.00  0.00    +0.272 C 
ATOM      5  O   UNL     1      -7.645  -7.300   8.772  0.00  0.00    -0.271 OA
ATOM      6  N   UNL     1      -6.916  -8.528   8.820  0.00  0.00    -0.201 NA
BRANCH   4   3
ATOM      3  C   UNL     1      -8.211  -8.488   8.216  0.00  0.00    +0.229 C 
BRANCH   3   2
ATOM      1  C   UNL     1      -9.612  -8.753   8.124  0.00  0.00    +0.175 C 
ATOM      2  O   UNL     1      -8.956  -8.527   8.569  0.00  0.00    -0.342 OA
ENDBRANCH   3   2
ENDBRANCH   4   3
ENDBRANCH   7   6
ENDBRANCH   8   7
BRANCH  11  12
ATOM     12  N   UNL     1      -3.839  -9.078  10.443  0.00  0.00    -0.209 NA
BRANCH  12  13
ATOM     13  C   UNL     1      -3.180  -9.526  10.233  0.00  0.00    +0.117 C 
BRANCH  13  14
ATOM     14  C   UNL     1      -2.569  -9.642  10.774  0.00  0.00    +0.014 A 
ATOM     15  C   UNL     1      -1.890  -9.176  10.736  0.00  0.00    +0.000 A 
ATOM     16  C   UNL     1      -1.279  -9.292  11.278  0.00  0.00    +0.020 A 
ATOM     17  C   UNL     1      -1.348  -9.874  11.859  0.00  0.00    +0.099 A 
ATOM     18  N   UNL     1      -2.028 -10.340  11.898  0.00  0.00    -0.243 NA
ATOM     19  C   UNL     1      -2.638 -10.224  11.356  0.00  0.00    +0.096 A 
ENDBRANCH  13  14
ENDBRANCH  12  13
ENDBRANCH  11  12
TORSDOF 7
ENDMDL
