MODEL 1
REMARK VINA RESULT:     -12.1      0.000      0.000
REMARK  Name = 
REMARK  4 active torsions:
REMARK  status: ('A' for Active; 'I' for Inactive)
REMARK    1  A    between atoms: C_4  and  C_5
REMARK    2  A    between atoms: C_12  and  O_14
REMARK    3  A    between atoms: O_14  and  C_15
REMARK    4  A    between atoms: C_22  and  C_24
REMARK                            x       y       z     vdW  Elec       q    Type
REMARK                         _______ _______ _______ _____ _____    ______ ____
ROOT
ATOM      5  C   UNL     1      -3.134   0.302  24.249  0.00  0.00    +0.252 C 
ATOM      6  O   UNL     1      -2.418   0.561  23.929  0.00  0.00    -0.270 OA
ATOM      7  N   UNL     1      -3.714   0.849  24.458  0.00  0.00    -0.270 N 
ATOM      8  C   UNL     1      -4.409   0.533  24.772  0.00  0.00    +0.126 C 
ATOM      9  C   UNL     1      -5.084   0.929  25.031  0.00  0.00    +0.164 C 
ATOM     10  O   UNL     1      -5.233   1.740  25.040  0.00  0.00    -0.348 OA
ATOM     11  C   UNL     1      -4.742   2.356  24.792  0.00  0.00    +0.187 C 
ATOM     12  C   UNL     1      -3.982   2.311  24.474  0.00  0.00    +0.217 C 
ATOM     13  C   UNL     1      -3.525   1.641  24.325  0.00  0.00    +0.140 C 
ENDROOT
BRANCH   5   4
ATOM      1  C   UNL     1      -4.269  -2.363  24.041  0.00  0.00    +0.072 C 
ATOM      2  C   UNL     1      -3.790  -1.730  24.263  0.00  0.00    +0.123 A 
ATOM      3  C   UNL     1      -3.857  -0.952  23.994  0.00  0.00    +0.040 A 
ATOM      4  C   UNL     1      -3.268  -0.504  24.359  0.00  0.00    +0.095 A 
ATOM     22  C   UNL     1      -2.836  -1.005  24.853  0.00  0.00    +0.220 A 
ATOM     23  O   UNL     1      -3.159  -1.762  24.794  0.00  0.00    -0.454 OA
BRANCH  22  24
ATOM     24  C   UNL     1      -2.195  -0.787  25.324  0.00  0.00    +0.451 C 
ATOM     25  F   UNL     1      -1.554  -0.569  25.794  0.00  0.00    -0.163 F 
ATOM     26  F   UNL     1      -1.696  -0.842  24.669  0.00  0.00    -0.163 F 
ATOM     27  F   UNL     1      -2.694  -0.731  25.978  0.00  0.00    -0.163 F 
ENDBRANCH  22  24
ENDBRANCH   5   4
BRANCH  12  14
ATOM     14  O   UNL     1      -3.633   3.033  24.278  0.00  0.00    -0.460 OA
BRANCH  14  15
ATOM     15  C   UNL     1      -3.186   3.440  24.839  0.00  0.00    +0.225 A 
ATOM     16  C   UNL     1      -3.555   3.772  25.498  0.00  0.00    +0.058 A 
ATOM     17  C   UNL     1      -3.107   4.179  26.060  0.00  0.00    +0.006 A 
ATOM     18  C   UNL     1      -2.291   4.254  25.963  0.00  0.00    +0.015 A 
ATOM     19  C   UNL     1      -1.923   3.921  25.303  0.00  0.00    +0.062 A 
ATOM     20  C   UNL     1      -1.107   3.996  25.206  0.00  0.00    +0.052 C 
ATOM     21  N   UNL     1      -2.370   3.515  24.742  0.00  0.00    -0.216 NA
ENDBRANCH  14  15
ENDBRANCH  12  14
TORSDOF 4
ENDMDL
MODEL 2
REMARK VINA RESULT:     -11.8      1.467      2.302
REMARK  Name = 
REMARK  4 active torsions:
REMARK  status: ('A' for Active; 'I' for Inactive)
REMARK    1  A    between atoms: C_4  and  C_5
REMARK    2  A    between atoms: C_12  and  O_14
REMARK    3  A    between atoms: O_14  and  C_15
REMARK    4  A    between atoms: C_22  and  C_24
REMARK                            x       y       z     vdW  Elec       q    Type
REMARK                         _______ _______ _______ _____ _____    ______ ____
ROOT
ATOM      5  C   UNL     1      -2.973   0.249  24.234  0.00  0.00    +0.252 C 
ATOM      6  O   UNL     1      -3.383   0.683  23.664  0.00  0.00    -0.270 OA
ATOM      7  N   UNL     1      -2.271   0.543  24.551  0.00  0.00    -0.270 N 
ATOM      8  C   UNL     1      -1.905   0.066  25.116  0.00  0.00    +0.126 C 
ATOM      9  C   UNL     1      -1.206   0.203  25.531  0.00  0.00    +0.164 C 
ATOM     10  O   UNL     1      -0.698   0.852  25.483  0.00  0.00    -0.348 OA
ATOM     11  C   UNL     1      -0.765   1.524  25.008  0.00  0.00    +0.187 C 
ATOM     12  C   UNL     1      -1.356   1.712  24.464  0.00  0.00    +0.217 C 
ATOM     13  C   UNL     1      -2.026   1.275  24.261  0.00  0.00    +0.140 C 
ENDROOT
BRANCH   5   4
ATOM      1  C   UNL     1      -3.209  -2.593  24.784  0.00  0.00    +0.072 C 
ATOM      2  C   UNL     1      -3.375  -1.786  24.739  0.00  0.00    +0.123 A 
ATOM      3  C   UNL     1      -2.884  -1.207  24.415  0.00  0.00    +0.040 A 
ATOM      4  C   UNL     1      -3.266  -0.479  24.487  0.00  0.00    +0.095 A 
ATOM     22  C   UNL     1      -3.993  -0.609  24.855  0.00  0.00    +0.220 A 
ATOM     23  O   UNL     1      -4.060  -1.416  25.011  0.00  0.00    -0.454 OA
BRANCH  22  24
ATOM     24  C   UNL     1      -4.554  -0.032  25.036  0.00  0.00    +0.451 C 
ATOM     25  F   UNL     1      -5.116   0.545  25.216  0.00  0.00    -0.163 F 
ATOM     26  F   UNL     1      -4.828  -0.055  24.258  0.00  0.00    -0.163 F 
ATOM     27  F   UNL     1      -4.281  -0.009  25.813  0.00  0.00    -0.163 F 
ENDBRANCH  22  24
ENDBRANCH   5   4
BRANCH  12  14
ATOM     14  O   UNL     1      -1.265   2.432  24.071  0.00  0.00    -0.460 OA
BRANCH  14  15
ATOM     15  C   UNL     1      -1.355   3.141  24.484  0.00  0.00    +0.225 A 
ATOM     16  C   UNL     1      -0.696   3.614  24.637  0.00  0.00    +0.058 A 
ATOM     17  C   UNL     1      -0.785   4.323  25.050  0.00  0.00    +0.006 A 
ATOM     18  C   UNL     1      -1.532   4.558  25.311  0.00  0.00    +0.015 A 
ATOM     19  C   UNL     1      -2.190   4.084  25.158  0.00  0.00    +0.062 A 
ATOM     20  C   UNL     1      -2.937   4.318  25.419  0.00  0.00    +0.052 C 
ATOM     21  N   UNL     1      -2.101   3.376  24.745  0.00  0.00    -0.216 NA
ENDBRANCH  14  15
ENDBRANCH  12  14
TORSDOF 4
ENDMDL
MODEL 3
REMARK VINA RESULT:     -11.8      1.956      4.840
REMARK  Name = 
REMARK  4 active torsions:
REMARK  status: ('A' for Active; 'I' for Inactive)
REMARK    1  A    between atoms: C_4  and  C_5
REMARK    2  A    between atoms: C_12  and  O_14
REMARK    3  A    between atoms: O_14  and  C_15
REMARK    4  A    between atoms: C_22  and  C_24
REMARK                            x       y       z     vdW  Elec       q    Type
REMARK                         _______ _______ _______ _____ _____    ______ ____
ROOT
ATOM      5  C   UNL     1      -3.361   2.165  25.129  0.00  0.00    +0.252 C 
ATOM      6  O   UNL     1      -4.170   2.112  25.284  0.00  0.00    -0.270 OA
ATOM      7  N   UNL     1      -2.894   1.486  25.140  0.00  0.00    -0.270 N 
ATOM      8  C   UNL     1      -2.092   1.600  24.979  0.00  0.00    +0.126 C 
ATOM      9  C   UNL     1      -1.489   1.039  24.948  0.00  0.00    +0.164 C 
ATOM     10  O   UNL     1      -1.537   0.224  25.070  0.00  0.00    -0.348 OA
ATOM     11  C   UNL     1      -2.201  -0.230  25.254  0.00  0.00    +0.187 C 
ATOM     12  C   UNL     1      -2.981   0.018  25.361  0.00  0.00    +0.217 C 
ATOM     13  C   UNL     1      -3.288   0.782  25.310  0.00  0.00    +0.140 C 
ENDROOT
BRANCH   5   4
ATOM      1  C   UNL     1      -1.666   4.519  25.279  0.00  0.00    +0.072 C 
ATOM      2  C   UNL     1      -2.241   3.980  25.034  0.00  0.00    +0.123 A 
ATOM      3  C   UNL     1      -2.408   3.254  25.389  0.00  0.00    +0.040 A 
ATOM      4  C   UNL     1      -3.020   2.898  24.965  0.00  0.00    +0.095 A 
ATOM     22  C   UNL     1      -3.231   3.404  24.349  0.00  0.00    +0.220 A 
ATOM     23  O   UNL     1      -2.750   4.073  24.391  0.00  0.00    -0.454 OA
BRANCH  22  24
ATOM     24  C   UNL     1      -3.820   3.266  23.788  0.00  0.00    +0.451 C 
ATOM     25  F   UNL     1      -4.409   3.128  23.228  0.00  0.00    -0.163 F 
ATOM     26  F   UNL     1      -4.385   3.569  24.307  0.00  0.00    -0.163 F 
ATOM     27  F   UNL     1      -3.256   2.963  23.269  0.00  0.00    -0.163 F 
ENDBRANCH  22  24
ENDBRANCH   5   4
BRANCH  12  14
ATOM     14  O   UNL     1      -3.524  -0.576  25.543  0.00  0.00    -0.460 OA
BRANCH  14  15
ATOM     15  C   UNL     1      -3.691  -1.165  24.990  0.00  0.00    +0.225 A 
ATOM     16  C   UNL     1      -4.162  -0.993  24.334  0.00  0.00    +0.058 A 
ATOM     17  C   UNL     1      -4.329  -1.582  23.781  0.00  0.00    +0.006 A 
ATOM     18  C   UNL     1      -4.025  -2.342  23.883  0.00  0.00    +0.015 A 
ATOM     19  C   UNL     1      -3.553  -2.513  24.538  0.00  0.00    +0.062 A 
ATOM     20  C   UNL     1      -3.249  -3.274  24.640  0.00  0.00    +0.052 C 
ATOM     21  N   UNL     1      -3.387  -1.924  25.091  0.00  0.00    -0.216 NA
ENDBRANCH  14  15
ENDBRANCH  12  14
TORSDOF 4
ENDMDL
MODEL 4
REMARK VINA RESULT:     -11.7      1.620      4.351
REMARK  Name = 
REMARK  4 active torsions:
REMARK  status: ('A' for Active; 'I' for Inactive)
REMARK    1  A    between atoms: C_4  and  C_5
REMARK    2  A    between atoms: C_12  and  O_14
REMARK    3  A    between atoms: O_14  and  C_15
REMARK    4  A    between atoms: C_22  and  C_24
REMARK                            x       y       z     vdW  Elec       q    Type
REMARK                         _______ _______ _______ _____ _____    ______ ____
ROOT
ATOM      5  C   UNL     1      -1.640   2.414  24.454  0.00  0.00    +0.252 C 
ATOM      6  O   UNL     1      -1.089   1.965  24.033  0.00  0.00    -0.270 OA
ATOM      7  N   UNL     1      -2.422   2.157  24.512  0.00  0.00    -0.270 N 
ATOM      8  C   UNL     1      -2.928   2.646  24.944  0.00  0.00    +0.126 C 
ATOM      9  C   UNL     1      -3.731   2.545  25.101  0.00  0.00    +0.164 C 
ATOM     10  O   UNL     1      -4.228   1.930  24.865  0.00  0.00    -0.348 OA
ATOM     11  C   UNL     1      -4.043   1.264  24.413  0.00  0.00    +0.187 C 
ATOM     12  C   UNL     1      -3.317   1.049  24.086  0.00  0.00    +0.217 C 
ATOM     13  C   UNL     1      -2.596   1.447  24.131  0.00  0.00    +0.140 C 
ENDROOT
BRANCH   5   4
ATOM      1  C   UNL     1      -1.469   5.221  25.177  0.00  0.00    +0.072 C 
ATOM      2  C   UNL     1      -1.330   4.408  25.148  0.00  0.00    +0.123 A 
ATOM      3  C   UNL     1      -1.722   3.866  24.665  0.00  0.00    +0.040 A 
ATOM      4  C   UNL     1      -1.408   3.118  24.815  0.00  0.00    +0.095 A 
ATOM     22  C   UNL     1      -0.822   3.197  25.391  0.00  0.00    +0.220 A 
ATOM     23  O   UNL     1      -0.774   3.995  25.596  0.00  0.00    -0.454 OA
BRANCH  22  24
ATOM     24  C   UNL     1      -0.365   2.587  25.705  0.00  0.00    +0.451 C 
ATOM     25  F   UNL     1       0.092   1.978  26.020  0.00  0.00    -0.163 F 
ATOM     26  F   UNL     1      -0.876   2.537  26.351  0.00  0.00    -0.163 F 
ATOM     27  F   UNL     1       0.146   2.638  25.060  0.00  0.00    -0.163 F 
ENDBRANCH  22  24
ENDBRANCH   5   4
BRANCH  12  14
ATOM     14  O   UNL     1      -3.311   0.343  23.659  0.00  0.00    -0.460 OA
BRANCH  14  15
ATOM     15  C   UNL     1      -3.364  -0.378  24.055  0.00  0.00    +0.225 A 
ATOM     16  C   UNL     1      -4.100  -0.735  24.166  0.00  0.00    +0.058 A 
ATOM     17  C   UNL     1      -4.152  -1.457  24.562  0.00  0.00    +0.006 A 
ATOM     18  C   UNL     1      -3.469  -1.823  24.847  0.00  0.00    +0.015 A 
ATOM     19  C   UNL     1      -2.734  -1.465  24.736  0.00  0.00    +0.062 A 
ATOM     20  C   UNL     1      -2.051  -1.830  25.021  0.00  0.00    +0.052 C 
ATOM     21  N   UNL     1      -2.682  -0.743  24.340  0.00  0.00    -0.216 NA
ENDBRANCH  14  15
ENDBRANCH  12  14
TORSDOF 4
ENDMDL
MODEL 5
REMARK VINA RESULT:     -11.4      1.445      2.457
REMARK  Name = 
REMARK  4 active torsions:
REMARK  status: ('A' for Active; 'I' for Inactive)
REMARK    1  A    between atoms: C_4  and  C_5
REMARK    2  A    between atoms: C_12  and  O_14
REMARK    3  A    between atoms: O_14  and  C_15
REMARK    4  A    between atoms: C_22  and  C_24
REMARK                            x       y       z     vdW  Elec       q    Type
REMARK                         _______ _______ _______ _____ _____    ______ ____
ROOT
ATOM      5  C   UNL     1      -2.629  -0.043  24.508  0.00  0.00    +0.252 C 
ATOM      6  O   UNL     1      -3.316  -0.240  24.096  0.00  0.00    -0.270 OA
ATOM      7  N   UNL     1      -2.455   0.747  24.666  0.00  0.00    -0.270 N 
ATOM      8  C   UNL     1      -1.755   0.885  25.081  0.00  0.00    +0.126 C 
ATOM      9  C   UNL     1      -1.431   1.604  25.321  0.00  0.00    +0.164 C 
ATOM     10  O   UNL     1      -1.727   2.366  25.206  0.00  0.00    -0.348 OA
ATOM     11  C   UNL     1      -2.421   2.595  24.822  0.00  0.00    +0.187 C 
ATOM     12  C   UNL     1      -2.990   2.119  24.459  0.00  0.00    +0.217 C 
ATOM     13  C   UNL     1      -3.004   1.297  24.390  0.00  0.00    +0.140 C 
ENDROOT
BRANCH   5   4
ATOM      1  C   UNL     1      -0.238  -1.645  24.898  0.00  0.00    +0.072 C 
ATOM      2  C   UNL     1      -1.016  -1.374  24.940  0.00  0.00    +0.123 A 
ATOM      3  C   UNL     1      -1.314  -0.698  24.570  0.00  0.00    +0.040 A 
ATOM      4  C   UNL     1      -2.115  -0.637  24.760  0.00  0.00    +0.095 A 
ATOM     22  C   UNL     1      -2.311  -1.273  25.247  0.00  0.00    +0.220 A 
ATOM     23  O   UNL     1      -1.632  -1.729  25.358  0.00  0.00    -0.454 OA
BRANCH  22  24
ATOM     24  C   UNL     1      -3.056  -1.428  25.567  0.00  0.00    +0.451 C 
ATOM     25  F   UNL     1      -3.800  -1.583  25.886  0.00  0.00    -0.163 F 
ATOM     26  F   UNL     1      -3.272  -1.818  24.873  0.00  0.00    -0.163 F 
ATOM     27  F   UNL     1      -2.839  -1.038  26.260  0.00  0.00    -0.163 F 
ENDBRANCH  22  24
ENDBRANCH   5   4
BRANCH  12  14
ATOM     14  O   UNL     1      -3.628   2.519  24.121  0.00  0.00    -0.460 OA
BRANCH  14  15
ATOM     15  C   UNL     1      -4.255   2.769  24.594  0.00  0.00    +0.225 A 
ATOM     16  C   UNL     1      -4.242   3.522  24.932  0.00  0.00    +0.058 A 
ATOM     17  C   UNL     1      -4.869   3.772  25.406  0.00  0.00    +0.006 A 
ATOM     18  C   UNL     1      -5.511   3.270  25.541  0.00  0.00    +0.015 A 
ATOM     19  C   UNL     1      -5.523   2.518  25.203  0.00  0.00    +0.062 A 
ATOM     20  C   UNL     1      -6.164   2.015  25.338  0.00  0.00    +0.052 C 
ATOM     21  N   UNL     1      -4.896   2.268  24.729  0.00  0.00    -0.216 NA
ENDBRANCH  14  15
ENDBRANCH  12  14
TORSDOF 4
ENDMDL
