MODEL 1
REMARK VINA RESULT:      -9.2      0.000      0.000
REMARK  Name = 
REMARK  8 active torsions:
REMARK  status: ('A' for Active; 'I' for Inactive)
REMARK    1  A    between atoms: C_2  and  C_4
REMARK    2  A    between atoms: C_6  and  C_7
REMARK    3  A    between atoms: C_7  and  C_8
REMARK    4  A    between atoms: C_25  and  C_26
REMARK    5  A    between atoms: C_26  and  N_27
REMARK    6  A    between atoms: C_28  and  C_30
REMARK    7  A    between atoms: C_30  and  C_31
REMARK    8  A    between atoms: C_31  and  C_32
REMARK                            x       y       z     vdW  Elec       q    Type
REMARK                         _______ _______ _______ _____ _____    ______ ____
ROOT
ATOM      4  C   UNL     1      -2.951   0.021  24.814  0.00  0.00    +0.006 C 
ATOM      5  C   UNL     1      -2.136  -0.039  24.695  0.00  0.00    +0.005 C 
ATOM      6  C   UNL     1      -1.683   0.643  24.600  0.00  0.00    +0.027 C 
ATOM     22  C   UNL     1      -2.043   1.384  24.623  0.00  0.00    -0.048 C 
ATOM     23  C   UNL     1      -1.588   2.067  24.527  0.00  0.00    +0.026 C 
ATOM     24  C   UNL     1      -2.857   1.444  24.741  0.00  0.00    -0.033 C 
ATOM     25  C   UNL     1      -3.311   0.762  24.837  0.00  0.00    +0.043 C 
ENDROOT
BRANCH   4   2
ATOM      1  C   UNL     1      -3.440  -1.032  25.645  0.00  0.00    +0.000 C 
ATOM      2  C   UNL     1      -3.404  -0.662  24.909  0.00  0.00    +0.000 C 
ATOM      3  C   UNL     1      -3.821  -0.974  24.269  0.00  0.00    +0.000 C 
ENDBRANCH   4   2
BRANCH   6   7
ATOM      7  C   UNL     1      -0.868   0.583  24.481  0.00  0.00    +0.089 C 
BRANCH   7   8
ATOM      8  C   UNL     1      -0.574   0.105  23.877  0.00  0.00    +0.226 C 
ATOM      9  O   UNL     1      -1.054  -0.471  23.536  0.00  0.00    -0.275 OA
ATOM     10  N   UNL     1       0.203   0.203  23.614  0.00  0.00    -0.276 N 
ATOM     11  C   UNL     1       0.684   0.780  23.955  0.00  0.00    +0.115 C 
ATOM     12  C   UNL     1       1.459   0.878  23.693  0.00  0.00    +0.114 C 
ATOM     13  N   UNL     1       1.754   0.400  23.088  0.00  0.00    -0.290 N 
ATOM     14  C   UNL     1       1.273  -0.177  22.747  0.00  0.00    +0.114 C 
ATOM     15  C   UNL     1       0.497  -0.275  23.010  0.00  0.00    +0.115 C 
ATOM     16  C   UNL     1       2.529   0.498  22.826  0.00  0.00    +0.132 A 
ATOM     17  N   UNL     1       3.011   1.075  23.167  0.00  0.00    -0.229 NA
ATOM     18  C   UNL     1       3.787   1.174  22.904  0.00  0.00    +0.100 A 
ATOM     19  C   UNL     1       4.081   0.695  22.300  0.00  0.00    +0.021 A 
ATOM     20  C   UNL     1       3.600   0.118  21.959  0.00  0.00    +0.004 A 
ATOM     21  C   UNL     1       2.825   0.020  22.221  0.00  0.00    +0.034 A 
ENDBRANCH   7   8
ENDBRANCH   6   7
BRANCH  25  26
ATOM     26  C   UNL     1      -4.125   0.822  24.955  0.00  0.00    +0.119 C 
BRANCH  26  27
ATOM     27  N   UNL     1      -4.499   1.552  24.875  0.00  0.00    -0.205 NA
ATOM     28  C   UNL     1      -5.213   1.695  25.265  0.00  0.00    +0.242 C 
ATOM     29  O   UNL     1      -5.551   1.107  25.735  0.00  0.00    -0.273 OA
BRANCH  28  30
ATOM     30  C   UNL     1      -5.588   2.426  25.185  0.00  0.00    +0.099 C 
BRANCH  30  31
ATOM     31  C   UNL     1      -5.563   2.972  25.803  0.00  0.00    +0.124 C 
BRANCH  31  32
ATOM     32  C   UNL     1      -5.638   3.777  25.644  0.00  0.00    +0.365 C 
ATOM     33  O   UNL     1      -6.369   4.150  25.741  0.00  0.00    -0.246 OA
ATOM     34  O   UNL     1      -4.986   4.211  25.388  0.00  0.00    -0.246 OA
ENDBRANCH  31  32
ENDBRANCH  30  31
ENDBRANCH  28  30
ENDBRANCH  26  27
ENDBRANCH  25  26
TORSDOF 8
ENDMDL
MODEL 2
REMARK VINA RESULT:      -8.8      2.056      7.034
REMARK  Name = 
REMARK  8 active torsions:
REMARK  status: ('A' for Active; 'I' for Inactive)
REMARK    1  A    between atoms: C_2  and  C_4
REMARK    2  A    between atoms: C_6  and  C_7
REMARK    3  A    between atoms: C_7  and  C_8
REMARK    4  A    between atoms: C_25  and  C_26
REMARK    5  A    between atoms: C_26  and  N_27
REMARK    6  A    between atoms: C_28  and  C_30
REMARK    7  A    between atoms: C_30  and  C_31
REMARK    8  A    between atoms: C_31  and  C_32
REMARK                            x       y       z     vdW  Elec       q    Type
REMARK                         _______ _______ _______ _____ _____    ______ ____
ROOT
ATOM      4  C   UNL     1       0.135   0.443  23.601  0.00  0.00    +0.006 C 
ATOM      5  C   UNL     1      -0.532   0.846  23.874  0.00  0.00    +0.005 C 
ATOM      6  C   UNL     1      -0.473   1.639  24.095  0.00  0.00    +0.027 C 
ATOM     22  C   UNL     1       0.251   2.029  24.042  0.00  0.00    -0.048 C 
ATOM     23  C   UNL     1       0.310   2.822  24.262  0.00  0.00    +0.026 C 
ATOM     24  C   UNL     1       0.918   1.627  23.769  0.00  0.00    -0.033 C 
ATOM     25  C   UNL     1       0.859   0.833  23.548  0.00  0.00    +0.043 C 
ENDROOT
BRANCH   4   2
ATOM      1  C   UNL     1       0.064  -0.937  23.959  0.00  0.00    +0.000 C 
ATOM      2  C   UNL     1       0.076  -0.349  23.381  0.00  0.00    +0.000 C 
ATOM      3  C   UNL     1       0.030  -0.554  22.583  0.00  0.00    +0.000 C 
ENDBRANCH   4   2
BRANCH   6   7
ATOM      7  C   UNL     1      -1.140   2.041  24.368  0.00  0.00    +0.089 C 
BRANCH   7   8
ATOM      8  C   UNL     1      -1.783   2.162  23.866  0.00  0.00    +0.226 C 
ATOM      9  O   UNL     1      -1.659   2.306  23.064  0.00  0.00    -0.275 OA
ATOM     10  N   UNL     1      -2.551   2.137  24.167  0.00  0.00    -0.276 N 
ATOM     11  C   UNL     1      -2.675   1.992  24.969  0.00  0.00    +0.115 C 
ATOM     12  C   UNL     1      -3.443   1.967  25.269  0.00  0.00    +0.114 C 
ATOM     13  N   UNL     1      -4.087   2.087  24.768  0.00  0.00    -0.290 N 
ATOM     14  C   UNL     1      -3.963   2.232  23.965  0.00  0.00    +0.114 C 
ATOM     15  C   UNL     1      -3.194   2.257  23.664  0.00  0.00    +0.115 C 
ATOM     16  C   UNL     1      -4.854   2.063  25.068  0.00  0.00    +0.132 A 
ATOM     17  N   UNL     1      -4.979   1.918  25.871  0.00  0.00    -0.229 NA
ATOM     18  C   UNL     1      -5.747   1.893  26.172  0.00  0.00    +0.100 A 
ATOM     19  C   UNL     1      -6.390   2.013  25.669  0.00  0.00    +0.021 A 
ATOM     20  C   UNL     1      -6.266   2.158  24.867  0.00  0.00    +0.004 A 
ATOM     21  C   UNL     1      -5.499   2.183  24.566  0.00  0.00    +0.034 A 
ENDBRANCH   7   8
ENDBRANCH   6   7
BRANCH  25  26
ATOM     26  C   UNL     1       1.526   0.432  23.275  0.00  0.00    +0.119 C 
BRANCH  26  27
ATOM     27  N   UNL     1       2.278   0.738  23.419  0.00  0.00    -0.205 NA
ATOM     28  C   UNL     1       2.922   0.476  22.973  0.00  0.00    +0.242 C 
ATOM     29  O   UNL     1       2.813  -0.092  22.384  0.00  0.00    -0.273 OA
BRANCH  28  30
ATOM     30  C   UNL     1       3.675   0.782  23.117  0.00  0.00    +0.099 C 
BRANCH  30  31
ATOM     31  C   UNL     1       4.344   0.343  22.914  0.00  0.00    +0.124 C 
BRANCH  31  32
ATOM     32  C   UNL     1       5.053   0.463  23.318  0.00  0.00    +0.365 C 
ATOM     33  O   UNL     1       5.695  -0.037  23.180  0.00  0.00    -0.246 OA
ATOM     34  O   UNL     1       5.120   1.081  23.858  0.00  0.00    -0.246 OA
ENDBRANCH  31  32
ENDBRANCH  30  31
ENDBRANCH  28  30
ENDBRANCH  26  27
ENDBRANCH  25  26
TORSDOF 8
ENDMDL
MODEL 3
REMARK VINA RESULT:      -8.5      1.012      1.651
REMARK  Name = 
REMARK  8 active torsions:
REMARK  status: ('A' for Active; 'I' for Inactive)
REMARK    1  A    between atoms: C_2  and  C_4
REMARK    2  A    between atoms: C_6  and  C_7
REMARK    3  A    between atoms: C_7  and  C_8
REMARK    4  A    between atoms: C_25  and  C_26
REMARK    5  A    between atoms: C_26  and  N_27
REMARK    6  A    between atoms: C_28  and  C_30
REMARK    7  A    between atoms: C_30  and  C_31
REMARK    8  A    between atoms: C_31  and  C_32
REMARK                            x       y       z     vdW  Elec       q    Type
REMARK                         _______ _______ _______ _____ _____    ______ ____
ROOT
ATOM      4  C   UNL     1      -2.374   1.638  23.696  0.00  0.00    +0.006 C 
ATOM      5  C   UNL     1      -1.597   1.361  23.744  0.00  0.00    +0.005 C 
ATOM      6  C   UNL     1      -1.385   0.830  24.338  0.00  0.00    +0.027 C 
ATOM     22  C   UNL     1      -1.948   0.576  24.885  0.00  0.00    -0.048 C 
ATOM     23  C   UNL     1      -1.735   0.044  25.479  0.00  0.00    +0.026 C 
ATOM     24  C   UNL     1      -2.723   0.852  24.837  0.00  0.00    -0.033 C 
ATOM     25  C   UNL     1      -2.936   1.383  24.243  0.00  0.00    +0.043 C 
ENDROOT
BRANCH   4   2
ATOM      1  C   UNL     1      -2.830   1.886  22.366  0.00  0.00    +0.000 C 
ATOM      2  C   UNL     1      -2.586   2.169  23.102  0.00  0.00    +0.000 C 
ATOM      3  C   UNL     1      -2.554   2.981  23.243  0.00  0.00    +0.000 C 
ENDBRANCH   4   2
BRANCH   6   7
ATOM      7  C   UNL     1      -0.609   0.553  24.386  0.00  0.00    +0.089 C 
BRANCH   7   8
ATOM      8  C   UNL     1      -0.298   0.091  23.777  0.00  0.00    +0.226 C 
ATOM      9  O   UNL     1      -0.766  -0.483  23.416  0.00  0.00    -0.275 OA
ATOM     10  N   UNL     1       0.481   0.205  23.530  0.00  0.00    -0.276 N 
ATOM     11  C   UNL     1       0.949   0.780  23.892  0.00  0.00    +0.115 C 
ATOM     12  C   UNL     1       1.727   0.893  23.645  0.00  0.00    +0.114 C 
ATOM     13  N   UNL     1       2.039   0.431  23.036  0.00  0.00    -0.290 N 
ATOM     14  C   UNL     1       1.571  -0.144  22.674  0.00  0.00    +0.114 C 
ATOM     15  C   UNL     1       0.792  -0.258  22.921  0.00  0.00    +0.115 C 
ATOM     16  C   UNL     1       2.817   0.544  22.789  0.00  0.00    +0.132 A 
ATOM     17  N   UNL     1       3.285   1.119  23.151  0.00  0.00    -0.229 NA
ATOM     18  C   UNL     1       4.065   1.233  22.903  0.00  0.00    +0.100 A 
ATOM     19  C   UNL     1       4.375   0.771  22.295  0.00  0.00    +0.021 A 
ATOM     20  C   UNL     1       3.907   0.196  21.933  0.00  0.00    +0.004 A 
ATOM     21  C   UNL     1       3.129   0.083  22.180  0.00  0.00    +0.034 A 
ENDBRANCH   7   8
ENDBRANCH   6   7
BRANCH  25  26
ATOM     26  C   UNL     1      -3.712   1.660  24.195  0.00  0.00    +0.119 C 
BRANCH  26  27
ATOM     27  N   UNL     1      -4.255   1.462  24.784  0.00  0.00    -0.205 NA
ATOM     28  C   UNL     1      -5.015   1.784  24.768  0.00  0.00    +0.242 C 
ATOM     29  O   UNL     1      -5.231   2.303  24.164  0.00  0.00    -0.273 OA
BRANCH  28  30
ATOM     30  C   UNL     1      -5.560   1.587  25.357  0.00  0.00    +0.099 C 
BRANCH  30  31
ATOM     31  C   UNL     1      -6.015   2.176  25.710  0.00  0.00    +0.124 C 
BRANCH  31  32
ATOM     32  C   UNL     1      -6.348   2.048  26.455  0.00  0.00    +0.365 C 
ATOM     33  O   UNL     1      -6.886   1.432  26.565  0.00  0.00    -0.246 OA
ATOM     34  O   UNL     1      -6.142   2.534  27.087  0.00  0.00    -0.246 OA
ENDBRANCH  31  32
ENDBRANCH  30  31
ENDBRANCH  28  30
ENDBRANCH  26  27
ENDBRANCH  25  26
TORSDOF 8
ENDMDL
MODEL 4
REMARK VINA RESULT:      -7.5     16.787     18.879
REMARK  Name = 
REMARK  8 active torsions:
REMARK  status: ('A' for Active; 'I' for Inactive)
REMARK    1  A    between atoms: C_2  and  C_4
REMARK    2  A    between atoms: C_6  and  C_7
REMARK    3  A    between atoms: C_7  and  C_8
REMARK    4  A    between atoms: C_25  and  C_26
REMARK    5  A    between atoms: C_26  and  N_27
REMARK    6  A    between atoms: C_28  and  C_30
REMARK    7  A    between atoms: C_30  and  C_31
REMARK    8  A    between atoms: C_31  and  C_32
REMARK                            x       y       z     vdW  Elec       q    Type
REMARK                         _______ _______ _______ _____ _____    ______ ____
ROOT
ATOM      4  C   UNL     1      -5.086  -9.429  10.614  0.00  0.00    +0.006 C 
ATOM      5  C   UNL     1      -5.724  -9.255  10.120  0.00  0.00    +0.005 C 
ATOM      6  C   UNL     1      -5.602  -9.148   9.311  0.00  0.00    +0.027 C 
ATOM     22  C   UNL     1      -4.844  -9.215   8.996  0.00  0.00    -0.048 C 
ATOM     23  C   UNL     1      -4.722  -9.109   8.187  0.00  0.00    +0.026 C 
ATOM     24  C   UNL     1      -4.206  -9.389   9.489  0.00  0.00    -0.033 C 
ATOM     25  C   UNL     1      -4.327  -9.496  10.299  0.00  0.00    +0.043 C 
ENDROOT
BRANCH   4   2
ATOM      1  C   UNL     1      -5.302  -8.879  11.914  0.00  0.00    +0.000 C 
ATOM      2  C   UNL     1      -5.208  -9.535  11.423  0.00  0.00    +0.000 C 
ATOM      3  C   UNL     1      -5.237 -10.296  11.740  0.00  0.00    +0.000 C 
ENDBRANCH   4   2
BRANCH   6   7
ATOM      7  C   UNL     1      -6.240  -8.974   8.817  0.00  0.00    +0.089 C 
BRANCH   7   8
ATOM      8  C   UNL     1      -7.010  -9.135   9.067  0.00  0.00    +0.226 C 
ATOM      9  O   UNL     1      -7.192  -9.868   9.397  0.00  0.00    -0.275 OA
ATOM     10  N   UNL     1      -7.598  -8.561   8.985  0.00  0.00    -0.276 N 
ATOM     11  C   UNL     1      -7.416  -7.828   8.654  0.00  0.00    +0.115 C 
ATOM     12  C   UNL     1      -8.004  -7.256   8.573  0.00  0.00    +0.114 C 
ATOM     13  N   UNL     1      -8.774  -7.415   8.822  0.00  0.00    -0.290 N 
ATOM     14  C   UNL     1      -8.956  -8.149   9.153  0.00  0.00    +0.114 C 
ATOM     15  C   UNL     1      -8.368  -8.723   9.235  0.00  0.00    +0.115 C 
ATOM     16  C   UNL     1      -9.362  -6.843   8.741  0.00  0.00    +0.132 A 
ATOM     17  N   UNL     1      -9.180  -6.110   8.410  0.00  0.00    -0.229 NA
ATOM     18  C   UNL     1      -9.768  -5.536   8.328  0.00  0.00    +0.100 A 
ATOM     19  C   UNL     1     -10.538  -5.697   8.577  0.00  0.00    +0.021 A 
ATOM     20  C   UNL     1     -10.719  -6.430   8.908  0.00  0.00    +0.004 A 
ATOM     21  C   UNL     1     -10.132  -7.003   8.990  0.00  0.00    +0.034 A 
ENDBRANCH   7   8
ENDBRANCH   6   7
BRANCH  25  26
ATOM     26  C   UNL     1      -3.689  -9.670  10.792  0.00  0.00    +0.119 C 
BRANCH  26  27
ATOM     27  N   UNL     1      -2.948  -9.346  10.634  0.00  0.00    -0.205 NA
ATOM     28  C   UNL     1      -2.280  -9.633  11.027  0.00  0.00    +0.242 C 
ATOM     29  O   UNL     1      -2.356 -10.244  11.577  0.00  0.00    -0.273 OA
BRANCH  28  30
ATOM     30  C   UNL     1      -1.537  -9.309  10.869  0.00  0.00    +0.099 C 
BRANCH  30  31
ATOM     31  C   UNL     1      -0.960  -9.299  11.458  0.00  0.00    +0.124 C 
BRANCH  31  32
ATOM     32  C   UNL     1      -0.275  -8.850  11.354  0.00  0.00    +0.365 C 
ATOM     33  O   UNL     1       0.202  -8.974  10.692  0.00  0.00    -0.246 OA
ATOM     34  O   UNL     1      -0.067  -8.280  11.911  0.00  0.00    -0.246 OA
ENDBRANCH  31  32
ENDBRANCH  30  31
ENDBRANCH  28  30
ENDBRANCH  26  27
ENDBRANCH  25  26
TORSDOF 8
ENDMDL
MODEL 5
REMARK VINA RESULT:      -6.4     16.160     18.129
REMARK  Name = 
REMARK  8 active torsions:
REMARK  status: ('A' for Active; 'I' for Inactive)
REMARK    1  A    between atoms: C_2  and  C_4
REMARK    2  A    between atoms: C_6  and  C_7
REMARK    3  A    between atoms: C_7  and  C_8
REMARK    4  A    between atoms: C_25  and  C_26
REMARK    5  A    between atoms: C_26  and  N_27
REMARK    6  A    between atoms: C_28  and  C_30
REMARK    7  A    between atoms: C_30  and  C_31
REMARK    8  A    between atoms: C_31  and  C_32
REMARK                            x       y       z     vdW  Elec       q    Type
REMARK                         _______ _______ _______ _____ _____    ______ ____
ROOT
ATOM      4  C   UNL     1      -5.812  -9.826  11.968  0.00  0.00    +0.006 C 
ATOM      5  C   UNL     1      -6.122  -9.531  11.262  0.00  0.00    +0.005 C 
ATOM      6  C   UNL     1      -5.627  -9.419  10.611  0.00  0.00    +0.027 C 
ATOM     22  C   UNL     1      -4.825  -9.600  10.666  0.00  0.00    -0.048 C 
ATOM     23  C   UNL     1      -4.331  -9.487  10.014  0.00  0.00    +0.026 C 
ATOM     24  C   UNL     1      -4.516  -9.894  11.371  0.00  0.00    -0.033 C 
ATOM     25  C   UNL     1      -5.010 -10.007  12.023  0.00  0.00    +0.043 C 
ENDROOT
BRANCH   4   2
ATOM      1  C   UNL     1      -6.697  -9.294  12.955  0.00  0.00    +0.000 C 
ATOM      2  C   UNL     1      -6.306  -9.938  12.619  0.00  0.00    +0.000 C 
ATOM      3  C   UNL     1      -6.409 -10.694  12.934  0.00  0.00    +0.000 C 
ENDBRANCH   4   2
BRANCH   6   7
ATOM      7  C   UNL     1      -5.937  -9.124   9.905  0.00  0.00    +0.089 C 
BRANCH   7   8
ATOM      8  C   UNL     1      -6.692  -9.350   9.660  0.00  0.00    +0.226 C 
ATOM      9  O   UNL     1      -6.909 -10.145   9.672  0.00  0.00    -0.275 OA
ATOM     10  N   UNL     1      -7.231  -8.779   9.404  0.00  0.00    -0.276 N 
ATOM     11  C   UNL     1      -7.013  -7.983   9.393  0.00  0.00    +0.115 C 
ATOM     12  C   UNL     1      -7.551  -7.413   9.137  0.00  0.00    +0.114 C 
ATOM     13  N   UNL     1      -8.307  -7.638   8.893  0.00  0.00    -0.290 N 
ATOM     14  C   UNL     1      -8.524  -8.433   8.904  0.00  0.00    +0.114 C 
ATOM     15  C   UNL     1      -7.985  -9.005   9.160  0.00  0.00    +0.115 C 
ATOM     16  C   UNL     1      -8.844  -7.067   8.637  0.00  0.00    +0.132 A 
ATOM     17  N   UNL     1      -8.627  -6.272   8.625  0.00  0.00    -0.229 NA
ATOM     18  C   UNL     1      -9.166  -5.700   8.369  0.00  0.00    +0.100 A 
ATOM     19  C   UNL     1      -9.921  -5.926   8.125  0.00  0.00    +0.021 A 
ATOM     20  C   UNL     1     -10.138  -6.722   8.137  0.00  0.00    +0.004 A 
ATOM     21  C   UNL     1      -9.600  -7.292   8.392  0.00  0.00    +0.034 A 
ENDBRANCH   7   8
ENDBRANCH   6   7
BRANCH  25  26
ATOM     26  C   UNL     1      -4.700 -10.301  12.729  0.00  0.00    +0.119 C 
BRANCH  26  27
ATOM     27  N   UNL     1      -3.890 -10.248  12.876  0.00  0.00    -0.205 NA
ATOM     28  C   UNL     1      -3.587 -10.487  13.606  0.00  0.00    +0.242 C 
ATOM     29  O   UNL     1      -4.094 -10.779  14.187  0.00  0.00    -0.273 OA
BRANCH  28  30
ATOM     30  C   UNL     1      -2.776 -10.435  13.753  0.00  0.00    +0.099 C 
BRANCH  30  31
ATOM     31  C   UNL     1      -2.507 -10.191  14.493  0.00  0.00    +0.124 C 
BRANCH  31  32
ATOM     32  C   UNL     1      -1.698 -10.126  14.636  0.00  0.00    +0.365 C 
ATOM     33  O   UNL     1      -1.277 -10.776  14.923  0.00  0.00    -0.246 OA
ATOM     34  O   UNL     1      -1.308  -9.414  14.493  0.00  0.00    -0.246 OA
ENDBRANCH  31  32
ENDBRANCH  30  31
ENDBRANCH  28  30
ENDBRANCH  26  27
ENDBRANCH  25  26
TORSDOF 8
ENDMDL
MODEL 6
REMARK VINA RESULT:      -5.2     16.112     18.347
REMARK  Name = 
REMARK  8 active torsions:
REMARK  status: ('A' for Active; 'I' for Inactive)
REMARK    1  A    between atoms: C_2  and  C_4
REMARK    2  A    between atoms: C_6  and  C_7
REMARK    3  A    between atoms: C_7  and  C_8
REMARK    4  A    between atoms: C_25  and  C_26
REMARK    5  A    between atoms: C_26  and  N_27
REMARK    6  A    between atoms: C_28  and  C_30
REMARK    7  A    between atoms: C_30  and  C_31
REMARK    8  A    between atoms: C_31  and  C_32
REMARK                            x       y       z     vdW  Elec       q    Type
REMARK                         _______ _______ _______ _____ _____    ______ ____
ROOT
ATOM      4  C   UNL     1      -3.144  -9.819  11.394  0.00  0.00    +0.006 C 
ATOM      5  C   UNL     1      -3.920  -9.766  11.116  0.00  0.00    +0.005 C 
ATOM      6  C   UNL     1      -4.080  -9.357  10.418  0.00  0.00    +0.027 C 
ATOM     22  C   UNL     1      -3.466  -9.001   9.998  0.00  0.00    -0.048 C 
ATOM     23  C   UNL     1      -3.627  -8.592   9.299  0.00  0.00    +0.026 C 
ATOM     24  C   UNL     1      -2.691  -9.054  10.276  0.00  0.00    -0.033 C 
ATOM     25  C   UNL     1      -2.531  -9.463  10.975  0.00  0.00    +0.043 C 
ENDROOT
BRANCH   4   2
ATOM      1  C   UNL     1      -2.372 -10.780  12.115  0.00  0.00    +0.000 C 
ATOM      2  C   UNL     1      -2.984 -10.227  12.093  0.00  0.00    +0.000 C 
ATOM      3  C   UNL     1      -3.436 -10.084  12.768  0.00  0.00    +0.000 C 
ENDBRANCH   4   2
BRANCH   6   7
ATOM      7  C   UNL     1      -4.856  -9.304  10.140  0.00  0.00    +0.089 C 
BRANCH   7   8
ATOM      8  C   UNL     1      -5.288  -9.991   9.993  0.00  0.00    +0.226 C 
ATOM      9  O   UNL     1      -4.899 -10.685   9.777  0.00  0.00    -0.275 OA
ATOM     10  N   UNL     1      -6.111  -9.983  10.061  0.00  0.00    -0.276 N 
ATOM     11  C   UNL     1      -6.500  -9.288  10.277  0.00  0.00    +0.115 C 
ATOM     12  C   UNL     1      -7.321  -9.281  10.345  0.00  0.00    +0.114 C 
ATOM     13  N   UNL     1      -7.755  -9.967  10.198  0.00  0.00    -0.290 N 
ATOM     14  C   UNL     1      -7.365 -10.662   9.982  0.00  0.00    +0.114 C 
ATOM     15  C   UNL     1      -6.543 -10.670   9.913  0.00  0.00    +0.115 C 
ATOM     16  C   UNL     1      -8.576  -9.960  10.266  0.00  0.00    +0.132 A 
ATOM     17  N   UNL     1      -8.966  -9.265  10.482  0.00  0.00    -0.229 NA
ATOM     18  C   UNL     1      -9.789  -9.257  10.550  0.00  0.00    +0.100 A 
ATOM     19  C   UNL     1     -10.221  -9.944  10.403  0.00  0.00    +0.021 A 
ATOM     20  C   UNL     1      -9.831 -10.638  10.187  0.00  0.00    +0.004 A 
ATOM     21  C   UNL     1      -9.010 -10.646  10.119  0.00  0.00    +0.034 A 
ENDBRANCH   7   8
ENDBRANCH   6   7
BRANCH  25  26
ATOM     26  C   UNL     1      -1.756  -9.515  11.252  0.00  0.00    +0.119 C 
BRANCH  26  27
ATOM     27  N   UNL     1      -1.309  -8.830  11.358  0.00  0.00    -0.205 NA
ATOM     28  C   UNL     1      -0.485  -8.874  11.383  0.00  0.00    +0.242 C 
ATOM     29  O   UNL     1      -0.109  -9.604  11.302  0.00  0.00    -0.273 OA
BRANCH  28  30
ATOM     30  C   UNL     1      -0.038  -8.188  11.489  0.00  0.00    +0.099 C 
BRANCH  30  31
ATOM     31  C   UNL     1       0.262  -8.004  12.235  0.00  0.00    +0.124 C 
BRANCH  31  32
ATOM     32  C   UNL     1       0.763  -7.355  12.327  0.00  0.00    +0.365 C 
ATOM     33  O   UNL     1       1.522  -7.370  12.001  0.00  0.00    -0.246 OA
ATOM     34  O   UNL     1       0.507  -6.692  12.745  0.00  0.00    -0.246 OA
ENDBRANCH  31  32
ENDBRANCH  30  31
ENDBRANCH  28  30
ENDBRANCH  26  27
ENDBRANCH  25  26
TORSDOF 8
ENDMDL
