MODEL 1
REMARK VINA RESULT:     -13.3      0.000      0.000
REMARK  Name = 
REMARK  5 active torsions:
REMARK  status: ('A' for Active; 'I' for Inactive)
REMARK    1  A    between atoms: C_2  and  C_25
REMARK    2  A    between atoms: C_9  and  N_10
REMARK    3  A    between atoms: C_11  and  C_13
REMARK    4  A    between atoms: C_25  and  C_27
REMARK    5  A    between atoms: N_29  and  C_30
REMARK                            x       y       z     vdW  Elec       q    Type
REMARK                         _______ _______ _______ _____ _____    ______ ____
ROOT
ATOM      1  C   UNL     1      -3.829   3.309  24.664  0.00  0.00    +0.052 C 
ATOM      2  C   UNL     1      -4.456   3.438  25.187  0.00  0.00    -0.001 C 
ATOM      3  C   UNL     1      -4.919   2.805  25.439  0.00  0.00    -0.000 C 
ATOM      4  C   UNL     1      -4.758   2.042  25.171  0.00  0.00    -0.001 C 
ATOM      5  C   UNL     1      -5.383   2.172  25.692  0.00  0.00    -0.000 C 
ATOM      6  C   UNL     1      -5.221   1.408  25.423  0.00  0.00    +0.002 C 
ATOM      7  C   UNL     1      -5.060   0.646  25.155  0.00  0.00    +0.022 C 
ATOM      8  C   UNL     1      -4.433   0.516  24.632  0.00  0.00    +0.095 C 
ATOM     18  C   UNL     1      -3.970   1.150  24.380  0.00  0.00    +0.019 C 
ATOM     19  C   UNL     1      -3.344   1.020  23.858  0.00  0.00    +0.002 C 
ATOM     20  C   UNL     1      -4.131   1.913  24.648  0.00  0.00    +0.045 C 
ATOM     21  C   UNL     1      -3.668   2.546  24.396  0.00  0.00    +0.145 C 
ATOM     22  O   UNL     1      -3.042   2.417  23.874  0.00  0.00    -0.224 OA
ENDROOT
BRANCH   8   9
ATOM      9  N   UNL     1      -4.272  -0.247  24.364  0.00  0.00    -0.202 NA
ATOM     10  C   UNL     1      -4.108  -0.849  24.903  0.00  0.00    +0.282 C 
ATOM     11  O   UNL     1      -4.106  -0.687  25.713  0.00  0.00    -0.267 OA
BRANCH  10  12
ATOM     12  C   UNL     1      -3.947  -1.612  24.634  0.00  0.00    +0.136 A 
ATOM     13  N   UNL     1      -4.328  -1.903  23.963  0.00  0.00    -0.239 NA
ATOM     14  C   UNL     1      -4.166  -2.666  23.695  0.00  0.00    +0.099 A 
ATOM     15  C   UNL     1      -3.623  -3.139  24.098  0.00  0.00    +0.021 A 
ATOM     16  C   UNL     1      -3.242  -2.848  24.770  0.00  0.00    +0.003 A 
ATOM     17  C   UNL     1      -3.404  -2.084  25.038  0.00  0.00    +0.024 A 
ENDBRANCH  10  12
ENDBRANCH   8   9
BRANCH   1  23
ATOM     23  C   UNL     1      -3.366   3.943  24.412  0.00  0.00    +0.077 C 
ATOM     24  C   UNL     1      -3.531   4.316  23.695  0.00  0.00    +0.009 C 
BRANCH  23  25
ATOM     25  C   UNL     1      -2.736   4.204  24.877  0.00  0.00    +0.241 C 
ATOM     26  O   UNL     1      -2.819   4.247  25.697  0.00  0.00    -0.273 OA
ATOM     27  N   UNL     1      -2.023   4.422  24.522  0.00  0.00    -0.209 NA
BRANCH  27  28
ATOM     28  C   UNL     1      -1.395   4.682  24.986  0.00  0.00    +0.079 C 
ATOM     29  C   UNL     1      -0.765   4.943  25.451  0.00  0.00    +0.022 C 
ATOM     30  C   UNL     1      -1.757   5.419  25.064  0.00  0.00    +0.022 C 
ATOM     31  C   UNL     1      -1.031   3.945  24.908  0.00  0.00    +0.022 C 
ENDBRANCH  27  28
ENDBRANCH  23  25
ENDBRANCH   1  23
TORSDOF 5
ENDMDL
MODEL 2
REMARK VINA RESULT:     -13.1      0.893      5.324
REMARK  Name = 
REMARK  5 active torsions:
REMARK  status: ('A' for Active; 'I' for Inactive)
REMARK    1  A    between atoms: C_2  and  C_25
REMARK    2  A    between atoms: C_9  and  N_10
REMARK    3  A    between atoms: C_11  and  C_13
REMARK    4  A    between atoms: C_25  and  C_27
REMARK    5  A    between atoms: N_29  and  C_30
REMARK                            x       y       z     vdW  Elec       q    Type
REMARK                         _______ _______ _______ _____ _____    ______ ____
ROOT
ATOM      1  C   UNL     1      -4.125   0.029  24.291  0.00  0.00    +0.052 C 
ATOM      2  C   UNL     1      -4.814   0.186  24.719  0.00  0.00    -0.001 C 
ATOM      3  C   UNL     1      -4.942   0.938  25.031  0.00  0.00    -0.000 C 
ATOM      4  C   UNL     1      -4.384   1.534  24.916  0.00  0.00    -0.001 C 
ATOM      5  C   UNL     1      -5.071   1.690  25.344  0.00  0.00    -0.000 C 
ATOM      6  C   UNL     1      -4.512   2.287  25.229  0.00  0.00    +0.002 C 
ATOM      7  C   UNL     1      -3.954   2.882  25.114  0.00  0.00    +0.022 C 
ATOM      8  C   UNL     1      -3.266   2.725  24.685  0.00  0.00    +0.095 C 
ATOM     18  C   UNL     1      -3.137   1.973  24.373  0.00  0.00    +0.019 C 
ATOM     19  C   UNL     1      -2.449   1.817  23.945  0.00  0.00    +0.002 C 
ATOM     20  C   UNL     1      -3.696   1.377  24.488  0.00  0.00    +0.045 C 
ATOM     21  C   UNL     1      -3.567   0.625  24.175  0.00  0.00    +0.145 C 
ATOM     22  O   UNL     1      -2.879   0.468  23.747  0.00  0.00    -0.224 OA
ENDROOT
BRANCH   8   9
ATOM      9  N   UNL     1      -2.707   3.322  24.570  0.00  0.00    -0.202 NA
ATOM     10  C   UNL     1      -2.396   3.727  25.217  0.00  0.00    +0.282 C 
ATOM     11  O   UNL     1      -2.644   3.536  25.982  0.00  0.00    -0.267 OA
BRANCH  10  12
ATOM     12  C   UNL     1      -1.838   4.323  25.102  0.00  0.00    +0.136 A 
ATOM     13  N   UNL     1      -1.055   4.129  24.932  0.00  0.00    -0.239 NA
ATOM     14  C   UNL     1      -0.496   4.725  24.817  0.00  0.00    +0.099 A 
ATOM     15  C   UNL     1      -0.722   5.517  24.872  0.00  0.00    +0.021 A 
ATOM     16  C   UNL     1      -1.506   5.712  25.043  0.00  0.00    +0.003 A 
ATOM     17  C   UNL     1      -2.063   5.115  25.157  0.00  0.00    +0.024 A 
ENDBRANCH  10  12
ENDBRANCH   8   9
BRANCH   1  23
ATOM     23  C   UNL     1      -3.997  -0.724  23.978  0.00  0.00    +0.077 C 
ATOM     24  C   UNL     1      -4.086  -0.856  23.169  0.00  0.00    +0.009 C 
BRANCH  23  25
ATOM     25  C   UNL     1      -3.779  -1.344  24.476  0.00  0.00    +0.241 C 
ATOM     26  O   UNL     1      -4.049  -1.363  25.256  0.00  0.00    -0.273 OA
ATOM     27  N   UNL     1      -3.291  -1.948  24.194  0.00  0.00    -0.209 NA
BRANCH  27  28
ATOM     28  C   UNL     1      -3.073  -2.568  24.691  0.00  0.00    +0.079 C 
ATOM     29  C   UNL     1      -2.855  -3.188  25.189  0.00  0.00    +0.022 C 
ATOM     30  C   UNL     1      -3.787  -2.947  24.530  0.00  0.00    +0.022 C 
ATOM     31  C   UNL     1      -2.358  -2.187  24.852  0.00  0.00    +0.022 C 
ENDBRANCH  27  28
ENDBRANCH  23  25
ENDBRANCH   1  23
TORSDOF 5
ENDMDL
MODEL 3
REMARK VINA RESULT:     -12.3      1.831      6.008
REMARK  Name = 
REMARK  5 active torsions:
REMARK  status: ('A' for Active; 'I' for Inactive)
REMARK    1  A    between atoms: C_2  and  C_25
REMARK    2  A    between atoms: C_9  and  N_10
REMARK    3  A    between atoms: C_11  and  C_13
REMARK    4  A    between atoms: C_25  and  C_27
REMARK    5  A    between atoms: N_29  and  C_30
REMARK                            x       y       z     vdW  Elec       q    Type
REMARK                         _______ _______ _______ _____ _____    ______ ____
ROOT
ATOM      1  C   UNL     1      -1.998  -0.810  25.140  0.00  0.00    +0.052 C 
ATOM      2  C   UNL     1      -1.238  -1.062  24.935  0.00  0.00    -0.001 C 
ATOM      3  C   UNL     1      -0.665  -0.509  24.720  0.00  0.00    -0.000 C 
ATOM      4  C   UNL     1      -0.850   0.294  24.709  0.00  0.00    -0.001 C 
ATOM      5  C   UNL     1      -0.092   0.043  24.505  0.00  0.00    -0.000 C 
ATOM      6  C   UNL     1      -0.276   0.847  24.494  0.00  0.00    +0.002 C 
ATOM      7  C   UNL     1      -0.461   1.650  24.482  0.00  0.00    +0.022 C 
ATOM      8  C   UNL     1      -1.221   1.902  24.686  0.00  0.00    +0.095 C 
ATOM     18  C   UNL     1      -1.794   1.350  24.901  0.00  0.00    +0.019 C 
ATOM     19  C   UNL     1      -2.553   1.601  25.105  0.00  0.00    +0.002 C 
ATOM     20  C   UNL     1      -1.609   0.546  24.913  0.00  0.00    +0.045 C 
ATOM     21  C   UNL     1      -2.183  -0.007  25.128  0.00  0.00    +0.145 C 
ATOM     22  O   UNL     1      -2.941   0.245  25.332  0.00  0.00    -0.224 OA
ENDROOT
BRANCH   8   9
ATOM      9  N   UNL     1      -1.406   2.706  24.675  0.00  0.00    -0.202 NA
ATOM     10  C   UNL     1      -0.938   3.243  25.091  0.00  0.00    +0.282 C 
ATOM     11  O   UNL     1      -0.285   2.976  25.519  0.00  0.00    -0.267 OA
BRANCH  10  12
ATOM     12  C   UNL     1      -1.123   4.047  25.079  0.00  0.00    +0.136 A 
ATOM     13  N   UNL     1      -1.818   4.317  25.431  0.00  0.00    -0.239 NA
ATOM     14  C   UNL     1      -2.003   5.121  25.420  0.00  0.00    +0.099 A 
ATOM     15  C   UNL     1      -1.491   5.656  25.055  0.00  0.00    +0.021 A 
ATOM     16  C   UNL     1      -0.795   5.386  24.702  0.00  0.00    +0.003 A 
ATOM     17  C   UNL     1      -0.611   4.582  24.715  0.00  0.00    +0.024 A 
ENDBRANCH  10  12
ENDBRANCH   8   9
BRANCH   1  23
ATOM     23  C   UNL     1      -2.571  -1.363  25.355  0.00  0.00    +0.077 C 
ATOM     24  C   UNL     1      -2.843  -1.395  26.133  0.00  0.00    +0.009 C 
BRANCH  23  25
ATOM     25  C   UNL     1      -2.873  -1.884  24.791  0.00  0.00    +0.241 C 
ATOM     26  O   UNL     1      -2.359  -2.301  24.297  0.00  0.00    -0.273 OA
ATOM     27  N   UNL     1      -3.688  -1.990  24.721  0.00  0.00    -0.209 NA
BRANCH  27  28
ATOM     28  C   UNL     1      -3.990  -2.511  24.158  0.00  0.00    +0.079 C 
ATOM     29  C   UNL     1      -4.291  -3.032  23.594  0.00  0.00    +0.022 C 
ATOM     30  C   UNL     1      -3.691  -3.149  24.588  0.00  0.00    +0.022 C 
ATOM     31  C   UNL     1      -4.289  -1.873  23.728  0.00  0.00    +0.022 C 
ENDBRANCH  27  28
ENDBRANCH  23  25
ENDBRANCH   1  23
TORSDOF 5
ENDMDL
MODEL 4
REMARK VINA RESULT:     -11.2      2.536      4.266
REMARK  Name = 
REMARK  5 active torsions:
REMARK  status: ('A' for Active; 'I' for Inactive)
REMARK    1  A    between atoms: C_2  and  C_25
REMARK    2  A    between atoms: C_9  and  N_10
REMARK    3  A    between atoms: C_11  and  C_13
REMARK    4  A    between atoms: C_25  and  C_27
REMARK    5  A    between atoms: N_29  and  C_30
REMARK                            x       y       z     vdW  Elec       q    Type
REMARK                         _______ _______ _______ _____ _____    ______ ____
ROOT
ATOM      1  C   UNL     1      -3.220   3.439  24.898  0.00  0.00    +0.052 C 
ATOM      2  C   UNL     1      -2.903   3.848  25.542  0.00  0.00    -0.001 C 
ATOM      3  C   UNL     1      -2.098   3.793  25.709  0.00  0.00    -0.000 C 
ATOM      4  C   UNL     1      -1.608   3.330  25.234  0.00  0.00    -0.001 C 
ATOM      5  C   UNL     1      -1.293   3.738  25.877  0.00  0.00    -0.000 C 
ATOM      6  C   UNL     1      -0.802   3.275  25.402  0.00  0.00    +0.002 C 
ATOM      7  C   UNL     1      -0.313   2.812  24.927  0.00  0.00    +0.022 C 
ATOM      8  C   UNL     1      -0.629   2.402  24.283  0.00  0.00    +0.095 C 
ATOM     18  C   UNL     1      -1.434   2.457  24.116  0.00  0.00    +0.019 C 
ATOM     19  C   UNL     1      -1.751   2.048  23.473  0.00  0.00    +0.002 C 
ATOM     20  C   UNL     1      -1.925   2.921  24.591  0.00  0.00    +0.045 C 
ATOM     21  C   UNL     1      -2.730   2.976  24.423  0.00  0.00    +0.145 C 
ATOM     22  O   UNL     1      -3.046   2.567  23.780  0.00  0.00    -0.224 OA
ENDROOT
BRANCH   8   9
ATOM      9  N   UNL     1      -0.139   1.939  23.808  0.00  0.00    -0.202 NA
ATOM     10  C   UNL     1       0.360   1.379  24.152  0.00  0.00    +0.282 C 
ATOM     11  O   UNL     1       0.369   1.282  24.972  0.00  0.00    -0.267 OA
BRANCH  10  12
ATOM     12  C   UNL     1       0.850   0.916  23.677  0.00  0.00    +0.136 A 
ATOM     13  N   UNL     1       1.628   1.150  23.534  0.00  0.00    -0.239 NA
ATOM     14  C   UNL     1       2.118   0.686  23.059  0.00  0.00    +0.099 A 
ATOM     15  C   UNL     1       1.830  -0.012  22.727  0.00  0.00    +0.021 A 
ATOM     16  C   UNL     1       1.051  -0.247  22.870  0.00  0.00    +0.003 A 
ATOM     17  C   UNL     1       0.562   0.218  23.345  0.00  0.00    +0.024 A 
ENDBRANCH  10  12
ENDBRANCH   8   9
BRANCH   1  23
ATOM     23  C   UNL     1      -4.026   3.494  24.730  0.00  0.00    +0.077 C 
ATOM     24  C   UNL     1      -4.281   3.885  24.050  0.00  0.00    +0.009 C 
BRANCH  23  25
ATOM     25  C   UNL     1      -4.577   3.158  25.244  0.00  0.00    +0.241 C 
ATOM     26  O   UNL     1      -4.570   3.356  26.045  0.00  0.00    -0.273 OA
ATOM     27  N   UNL     1      -5.136   2.622  24.957  0.00  0.00    -0.209 NA
BRANCH  27  28
ATOM     28  C   UNL     1      -5.687   2.286  25.469  0.00  0.00    +0.079 C 
ATOM     29  C   UNL     1      -6.238   1.950  25.983  0.00  0.00    +0.022 C 
ATOM     30  C   UNL     1      -5.335   1.547  25.363  0.00  0.00    +0.022 C 
ATOM     31  C   UNL     1      -6.038   3.026  25.576  0.00  0.00    +0.022 C 
ENDBRANCH  27  28
ENDBRANCH  23  25
ENDBRANCH   1  23
TORSDOF 5
ENDMDL
MODEL 5
REMARK VINA RESULT:     -11.0      1.894      2.562
REMARK  Name = 
REMARK  5 active torsions:
REMARK  status: ('A' for Active; 'I' for Inactive)
REMARK    1  A    between atoms: C_2  and  C_25
REMARK    2  A    between atoms: C_9  and  N_10
REMARK    3  A    between atoms: C_11  and  C_13
REMARK    4  A    between atoms: C_25  and  C_27
REMARK    5  A    between atoms: N_29  and  C_30
REMARK                            x       y       z     vdW  Elec       q    Type
REMARK                         _______ _______ _______ _____ _____    ______ ____
ROOT
ATOM      1  C   UNL     1      -0.692   2.383  24.877  0.00  0.00    +0.052 C 
ATOM      2  C   UNL     1      -0.326   2.203  25.595  0.00  0.00    -0.001 C 
ATOM      3  C   UNL     1      -0.440   1.464  25.942  0.00  0.00    -0.000 C 
ATOM      4  C   UNL     1      -0.920   0.905  25.573  0.00  0.00    -0.001 C 
ATOM      5  C   UNL     1      -0.555   0.725  26.289  0.00  0.00    -0.000 C 
ATOM      6  C   UNL     1      -1.035   0.165  25.920  0.00  0.00    +0.002 C 
ATOM      7  C   UNL     1      -1.516  -0.394  25.550  0.00  0.00    +0.022 C 
ATOM      8  C   UNL     1      -1.882  -0.214  24.833  0.00  0.00    +0.095 C 
ATOM     18  C   UNL     1      -1.768   0.525  24.486  0.00  0.00    +0.019 C 
ATOM     19  C   UNL     1      -2.134   0.705  23.769  0.00  0.00    +0.002 C 
ATOM     20  C   UNL     1      -1.287   1.085  24.855  0.00  0.00    +0.045 C 
ATOM     21  C   UNL     1      -1.172   1.824  24.508  0.00  0.00    +0.145 C 
ATOM     22  O   UNL     1      -1.539   2.004  23.791  0.00  0.00    -0.224 OA
ENDROOT
BRANCH   8   9
ATOM      9  N   UNL     1      -2.363  -0.774  24.463  0.00  0.00    -0.202 NA
ATOM     10  C   UNL     1      -2.926  -1.188  24.901  0.00  0.00    +0.282 C 
ATOM     11  O   UNL     1      -3.009  -1.042  25.710  0.00  0.00    -0.267 OA
BRANCH  10  12
ATOM     12  C   UNL     1      -3.406  -1.748  24.532  0.00  0.00    +0.136 A 
ATOM     13  N   UNL     1      -4.079  -1.508  24.120  0.00  0.00    -0.239 NA
ATOM     14  C   UNL     1      -4.560  -2.068  23.751  0.00  0.00    +0.099 A 
ATOM     15  C   UNL     1      -4.366  -2.869  23.794  0.00  0.00    +0.021 A 
ATOM     16  C   UNL     1      -3.692  -3.110  24.206  0.00  0.00    +0.003 A 
ATOM     17  C   UNL     1      -3.213  -2.549  24.574  0.00  0.00    +0.024 A 
ENDBRANCH  10  12
ENDBRANCH   8   9
BRANCH   1  23
ATOM     23  C   UNL     1      -0.577   3.123  24.530  0.00  0.00    +0.077 C 
ATOM     24  C   UNL     1      -0.221   3.181  23.788  0.00  0.00    +0.009 C 
BRANCH  23  25
ATOM     25  C   UNL     1      -0.819   3.805  24.926  0.00  0.00    +0.241 C 
ATOM     26  O   UNL     1      -0.482   4.002  25.654  0.00  0.00    -0.273 OA
ATOM     27  N   UNL     1      -1.397   4.292  24.594  0.00  0.00    -0.209 NA
BRANCH  27  28
ATOM     28  C   UNL     1      -1.639   4.974  24.989  0.00  0.00    +0.079 C 
ATOM     29  C   UNL     1      -1.880   5.656  25.385  0.00  0.00    +0.022 C 
ATOM     30  C   UNL     1      -0.957   5.363  24.735  0.00  0.00    +0.022 C 
ATOM     31  C   UNL     1      -2.321   4.585  25.244  0.00  0.00    +0.022 C 
ENDBRANCH  27  28
ENDBRANCH  23  25
ENDBRANCH   1  23
TORSDOF 5
ENDMDL
MODEL 6
REMARK VINA RESULT:     -10.8      3.156      4.501
REMARK  Name = 
REMARK  5 active torsions:
REMARK  status: ('A' for Active; 'I' for Inactive)
REMARK    1  A    between atoms: C_2  and  C_25
REMARK    2  A    between atoms: C_9  and  N_10
REMARK    3  A    between atoms: C_11  and  C_13
REMARK    4  A    between atoms: C_25  and  C_27
REMARK    5  A    between atoms: N_29  and  C_30
REMARK                            x       y       z     vdW  Elec       q    Type
REMARK                         _______ _______ _______ _____ _____    ______ ____
ROOT
ATOM      1  C   UNL     1      -3.150   1.418  24.248  0.00  0.00    +0.052 C 
ATOM      2  C   UNL     1      -3.324   0.712  24.640  0.00  0.00    -0.001 C 
ATOM      3  C   UNL     1      -2.736   0.144  24.746  0.00  0.00    -0.000 C 
ATOM      4  C   UNL     1      -1.974   0.281  24.461  0.00  0.00    -0.001 C 
ATOM      5  C   UNL     1      -2.148  -0.423  24.852  0.00  0.00    -0.000 C 
ATOM      6  C   UNL     1      -1.385  -0.287  24.567  0.00  0.00    +0.002 C 
ATOM      7  C   UNL     1      -0.624  -0.151  24.282  0.00  0.00    +0.022 C 
ATOM      8  C   UNL     1      -0.451   0.555  23.889  0.00  0.00    +0.095 C 
ATOM     18  C   UNL     1      -1.039   1.123  23.783  0.00  0.00    +0.019 C 
ATOM     19  C   UNL     1      -0.865   1.828  23.392  0.00  0.00    +0.002 C 
ATOM     20  C   UNL     1      -1.801   0.987  24.069  0.00  0.00    +0.045 C 
ATOM     21  C   UNL     1      -2.389   1.555  23.963  0.00  0.00    +0.145 C 
ATOM     22  O   UNL     1      -2.216   2.260  23.571  0.00  0.00    -0.224 OA
ENDROOT
BRANCH   8   9
ATOM      9  N   UNL     1       0.312   0.691  23.604  0.00  0.00    -0.202 NA
ATOM     10  C   UNL     1       0.759   0.066  23.307  0.00  0.00    +0.282 C 
ATOM     11  O   UNL     1       0.444  -0.698  23.294  0.00  0.00    -0.267 OA
BRANCH  10  12
ATOM     12  C   UNL     1       1.521   0.202  23.021  0.00  0.00    +0.136 A 
ATOM     13  N   UNL     1       2.030   0.708  23.427  0.00  0.00    -0.239 NA
ATOM     14  C   UNL     1       2.792   0.844  23.141  0.00  0.00    +0.099 A 
ATOM     15  C   UNL     1       3.045   0.473  22.449  0.00  0.00    +0.021 A 
ATOM     16  C   UNL     1       2.536  -0.034  22.043  0.00  0.00    +0.003 A 
ATOM     17  C   UNL     1       1.774  -0.169  22.329  0.00  0.00    +0.024 A 
ENDBRANCH  10  12
ENDBRANCH   8   9
BRANCH   1  23
ATOM     23  C   UNL     1      -3.739   1.986  24.142  0.00  0.00    +0.077 C 
ATOM     24  C   UNL     1      -3.929   2.249  23.383  0.00  0.00    +0.009 C 
BRANCH  23  25
ATOM     25  C   UNL     1      -4.139   2.292  24.796  0.00  0.00    +0.241 C 
ATOM     26  O   UNL     1      -3.721   2.493  25.479  0.00  0.00    -0.273 OA
ATOM     27  N   UNL     1      -4.958   2.396  24.768  0.00  0.00    -0.209 NA
BRANCH  27  28
ATOM     28  C   UNL     1      -5.358   2.701  25.421  0.00  0.00    +0.079 C 
ATOM     29  C   UNL     1      -5.758   3.006  26.074  0.00  0.00    +0.022 C 
ATOM     30  C   UNL     1      -5.674   1.954  25.576  0.00  0.00    +0.022 C 
ATOM     31  C   UNL     1      -5.041   3.448  25.265  0.00  0.00    +0.022 C 
ENDBRANCH  27  28
ENDBRANCH  23  25
ENDBRANCH   1  23
TORSDOF 5
ENDMDL
MODEL 7
REMARK VINA RESULT:      -9.8      2.493      4.739
REMARK  Name = 
REMARK  5 active torsions:
REMARK  status: ('A' for Active; 'I' for Inactive)
REMARK    1  A    between atoms: C_2  and  C_25
REMARK    2  A    between atoms: C_9  and  N_10
REMARK    3  A    between atoms: C_11  and  C_13
REMARK    4  A    between atoms: C_25  and  C_27
REMARK    5  A    between atoms: N_29  and  C_30
REMARK                            x       y       z     vdW  Elec       q    Type
REMARK                         _______ _______ _______ _____ _____    ______ ____
ROOT
ATOM      1  C   UNL     1      -1.707  -1.056  24.682  0.00  0.00    +0.052 C 
ATOM      2  C   UNL     1      -2.173  -1.644  24.337  0.00  0.00    -0.001 C 
ATOM      3  C   UNL     1      -2.988  -1.539  24.271  0.00  0.00    -0.000 C 
ATOM      4  C   UNL     1      -3.338  -0.846  24.548  0.00  0.00    -0.001 C 
ATOM      5  C   UNL     1      -3.803  -1.433  24.205  0.00  0.00    -0.000 C 
ATOM      6  C   UNL     1      -4.154  -0.740  24.482  0.00  0.00    +0.002 C 
ATOM      7  C   UNL     1      -4.504  -0.047  24.760  0.00  0.00    +0.022 C 
ATOM      8  C   UNL     1      -4.038   0.541  25.105  0.00  0.00    +0.095 C 
ATOM     18  C   UNL     1      -3.223   0.436  25.171  0.00  0.00    +0.019 C 
ATOM     19  C   UNL     1      -2.758   1.024  25.515  0.00  0.00    +0.002 C 
ATOM     20  C   UNL     1      -2.872  -0.258  24.893  0.00  0.00    +0.045 C 
ATOM     21  C   UNL     1      -2.057  -0.363  24.959  0.00  0.00    +0.145 C 
ATOM     22  O   UNL     1      -1.592   0.225  25.304  0.00  0.00    -0.224 OA
ENDROOT
BRANCH   8   9
ATOM      9  N   UNL     1      -4.389   1.235  25.382  0.00  0.00    -0.202 NA
ATOM     10  C   UNL     1      -4.770   1.744  24.857  0.00  0.00    +0.282 C 
ATOM     11  O   UNL     1      -4.800   1.560  24.053  0.00  0.00    -0.267 OA
BRANCH  10  12
ATOM     12  C   UNL     1      -5.120   2.437  25.135  0.00  0.00    +0.136 A 
ATOM     13  N   UNL     1      -5.824   2.401  25.563  0.00  0.00    -0.239 NA
ATOM     14  C   UNL     1      -6.175   3.094  25.841  0.00  0.00    +0.099 A 
ATOM     15  C   UNL     1      -5.821   3.824  25.690  0.00  0.00    +0.021 A 
ATOM     16  C   UNL     1      -5.116   3.861  25.261  0.00  0.00    +0.003 A 
ATOM     17  C   UNL     1      -4.767   3.167  24.984  0.00  0.00    +0.024 A 
ENDBRANCH  10  12
ENDBRANCH   8   9
BRANCH   1  23
ATOM     23  C   UNL     1      -0.892  -1.162  24.748  0.00  0.00    +0.077 C 
ATOM     24  C   UNL     1      -0.562  -1.400  25.466  0.00  0.00    +0.009 C 
BRANCH  23  25
ATOM     25  C   UNL     1      -0.405  -1.030  24.095  0.00  0.00    +0.241 C 
ATOM     26  O   UNL     1      -0.485  -1.498  23.419  0.00  0.00    -0.273 OA
ATOM     27  N   UNL     1       0.163  -0.431  24.117  0.00  0.00    -0.209 NA
BRANCH  27  28
ATOM     28  C   UNL     1       0.649  -0.300  23.465  0.00  0.00    +0.079 C 
ATOM     29  C   UNL     1       1.136  -0.168  22.812  0.00  0.00    +0.022 C 
ATOM     30  C   UNL     1       0.251   0.406  23.311  0.00  0.00    +0.022 C 
ATOM     31  C   UNL     1       1.047  -1.007  23.619  0.00  0.00    +0.022 C 
ENDBRANCH  27  28
ENDBRANCH  23  25
ENDBRANCH   1  23
TORSDOF 5
ENDMDL
MODEL 8
REMARK VINA RESULT:      -9.7      3.120      4.851
REMARK  Name = 
REMARK  5 active torsions:
REMARK  status: ('A' for Active; 'I' for Inactive)
REMARK    1  A    between atoms: C_2  and  C_25
REMARK    2  A    between atoms: C_9  and  N_10
REMARK    3  A    between atoms: C_11  and  C_13
REMARK    4  A    between atoms: C_25  and  C_27
REMARK    5  A    between atoms: N_29  and  C_30
REMARK                            x       y       z     vdW  Elec       q    Type
REMARK                         _______ _______ _______ _____ _____    ______ ____
ROOT
ATOM      1  C   UNL     1      -0.116   0.759  24.141  0.00  0.00    +0.052 C 
ATOM      2  C   UNL     1       0.301   1.454  24.297  0.00  0.00    -0.001 C 
ATOM      3  C   UNL     1      -0.093   2.113  24.598  0.00  0.00    -0.000 C 
ATOM      4  C   UNL     1      -0.904   2.077  24.743  0.00  0.00    -0.001 C 
ATOM      5  C   UNL     1      -0.487   2.771  24.899  0.00  0.00    -0.000 C 
ATOM      6  C   UNL     1      -1.299   2.736  25.045  0.00  0.00    +0.002 C 
ATOM      7  C   UNL     1      -2.109   2.701  25.190  0.00  0.00    +0.022 C 
ATOM      8  C   UNL     1      -2.527   2.006  25.033  0.00  0.00    +0.095 C 
ATOM     18  C   UNL     1      -2.133   1.347  24.732  0.00  0.00    +0.019 C 
ATOM     19  C   UNL     1      -2.550   0.653  24.576  0.00  0.00    +0.002 C 
ATOM     20  C   UNL     1      -1.321   1.382  24.587  0.00  0.00    +0.045 C 
ATOM     21  C   UNL     1      -0.927   0.724  24.286  0.00  0.00    +0.145 C 
ATOM     22  O   UNL     1      -1.344   0.029  24.130  0.00  0.00    -0.224 OA
ENDROOT
BRANCH   8   9
ATOM      9  N   UNL     1      -3.338   1.971  25.179  0.00  0.00    -0.202 NA
ATOM     10  C   UNL     1      -3.824   2.603  24.966  0.00  0.00    +0.282 C 
ATOM     11  O   UNL     1      -3.497   3.271  24.607  0.00  0.00    -0.267 OA
BRANCH  10  12
ATOM     12  C   UNL     1      -4.635   2.568  25.111  0.00  0.00    +0.136 A 
ATOM     13  N   UNL     1      -5.109   2.044  24.686  0.00  0.00    -0.239 NA
ATOM     14  C   UNL     1      -5.920   2.009  24.831  0.00  0.00    +0.099 A 
ATOM     15  C   UNL     1      -6.258   2.499  25.402  0.00  0.00    +0.021 A 
ATOM     16  C   UNL     1      -5.784   3.024  25.828  0.00  0.00    +0.003 A 
ATOM     17  C   UNL     1      -4.973   3.058  25.682  0.00  0.00    +0.024 A 
ENDBRANCH  10  12
ENDBRANCH   8   9
BRANCH   1  23
ATOM     23  C   UNL     1       0.279   0.100  23.840  0.00  0.00    +0.077 C 
ATOM     24  C   UNL     1       0.208  -0.632  24.214  0.00  0.00    +0.009 C 
BRANCH  23  25
ATOM     25  C   UNL     1       0.745   0.173  23.163  0.00  0.00    +0.241 C 
ATOM     26  O   UNL     1       0.461   0.587  22.508  0.00  0.00    -0.273 OA
ATOM     27  N   UNL     1       1.497  -0.168  23.141  0.00  0.00    -0.209 NA
BRANCH  27  28
ATOM     28  C   UNL     1       1.963  -0.095  22.465  0.00  0.00    +0.079 C 
ATOM     29  C   UNL     1       2.429  -0.021  21.789  0.00  0.00    +0.022 C 
ATOM     30  C   UNL     1       2.507   0.359  22.889  0.00  0.00    +0.022 C 
ATOM     31  C   UNL     1       1.419  -0.549  22.041  0.00  0.00    +0.022 C 
ENDBRANCH  27  28
ENDBRANCH  23  25
ENDBRANCH   1  23
TORSDOF 5
ENDMDL
MODEL 9
REMARK VINA RESULT:      -9.6      2.011      3.103
REMARK  Name = 
REMARK  5 active torsions:
REMARK  status: ('A' for Active; 'I' for Inactive)
REMARK    1  A    between atoms: C_2  and  C_25
REMARK    2  A    between atoms: C_9  and  N_10
REMARK    3  A    between atoms: C_11  and  C_13
REMARK    4  A    between atoms: C_25  and  C_27
REMARK    5  A    between atoms: N_29  and  C_30
REMARK                            x       y       z     vdW  Elec       q    Type
REMARK                         _______ _______ _______ _____ _____    ______ ____
ROOT
ATOM      1  C   UNL     1      -2.802   3.313  24.994  0.00  0.00    +0.052 C 
ATOM      2  C   UNL     1      -2.241   3.686  25.472  0.00  0.00    -0.001 C 
ATOM      3  C   UNL     1      -1.573   3.272  25.723  0.00  0.00    -0.000 C 
ATOM      4  C   UNL     1      -1.466   2.486  25.497  0.00  0.00    -0.001 C 
ATOM      5  C   UNL     1      -0.906   2.858  25.973  0.00  0.00    -0.000 C 
ATOM      6  C   UNL     1      -0.798   2.071  25.748  0.00  0.00    +0.002 C 
ATOM      7  C   UNL     1      -0.691   1.286  25.523  0.00  0.00    +0.022 C 
ATOM      8  C   UNL     1      -1.253   0.913  25.046  0.00  0.00    +0.095 C 
ATOM     18  C   UNL     1      -1.920   1.327  24.795  0.00  0.00    +0.019 C 
ATOM     19  C   UNL     1      -2.481   0.955  24.318  0.00  0.00    +0.002 C 
ATOM     20  C   UNL     1      -2.028   2.113  25.020  0.00  0.00    +0.045 C 
ATOM     21  C   UNL     1      -2.695   2.527  24.769  0.00  0.00    +0.145 C 
ATOM     22  O   UNL     1      -3.256   2.155  24.292  0.00  0.00    -0.224 OA
ENDROOT
BRANCH   8   9
ATOM      9  N   UNL     1      -1.145   0.126  24.820  0.00  0.00    -0.202 NA
ATOM     10  C   UNL     1      -1.123  -0.467  25.392  0.00  0.00    +0.282 C 
ATOM     11  O   UNL     1      -1.207  -0.275  26.190  0.00  0.00    -0.267 OA
BRANCH  10  12
ATOM     12  C   UNL     1      -1.015  -1.254  25.166  0.00  0.00    +0.136 A 
ATOM     13  N   UNL     1      -0.281  -1.615  25.265  0.00  0.00    -0.239 NA
ATOM     14  C   UNL     1      -0.173  -2.402  25.040  0.00  0.00    +0.099 A 
ATOM     15  C   UNL     1      -0.801  -2.827  24.716  0.00  0.00    +0.021 A 
ATOM     16  C   UNL     1      -1.537  -2.465  24.616  0.00  0.00    +0.003 A 
ATOM     17  C   UNL     1      -1.643  -1.679  24.842  0.00  0.00    +0.024 A 
ENDBRANCH  10  12
ENDBRANCH   8   9
BRANCH   1  23
ATOM     23  C   UNL     1      -3.470   3.728  24.743  0.00  0.00    +0.077 C 
ATOM     24  C   UNL     1      -3.488   4.068  23.992  0.00  0.00    +0.009 C 
BRANCH  23  25
ATOM     25  C   UNL     1      -4.121   3.802  25.245  0.00  0.00    +0.241 C 
ATOM     26  O   UNL     1      -4.023   4.101  26.008  0.00  0.00    -0.273 OA
ATOM     27  N   UNL     1      -4.871   3.577  24.983  0.00  0.00    -0.209 NA
BRANCH  27  28
ATOM     28  C   UNL     1      -5.522   3.652  25.484  0.00  0.00    +0.079 C 
ATOM     29  C   UNL     1      -6.173   3.726  25.985  0.00  0.00    +0.022 C 
ATOM     30  C   UNL     1      -5.502   4.471  25.387  0.00  0.00    +0.022 C 
ATOM     31  C   UNL     1      -5.541   2.832  25.581  0.00  0.00    +0.022 C 
ENDBRANCH  27  28
ENDBRANCH  23  25
ENDBRANCH   1  23
TORSDOF 5
ENDMDL
