MODEL 1
REMARK VINA RESULT:     -11.1      0.000      0.000
REMARK  Name = 
REMARK  8 active torsions:
REMARK  status: ('A' for Active; 'I' for Inactive)
REMARK    1  A    between atoms: C_5  and  S_8
REMARK    2  A    between atoms: S_8  and  N_11
REMARK    3  A    between atoms: N_11  and  C_12
REMARK    4  A    between atoms: C_12  and  C_13
REMARK    5  A    between atoms: C_15  and  C_16
REMARK    6  A    between atoms: C_16  and  C_17
REMARK    7  A    between atoms: N_19  and  C_20
REMARK    8  A    between atoms: C_20  and  C_21
REMARK                            x       y       z     vdW  Elec       q    Type
REMARK                         _______ _______ _______ _____ _____    ______ ____
ROOT
ATOM     13  C   UNL     1      -4.856   1.949  25.195  0.00  0.00    +0.167 C 
ATOM     14  O   UNL     1      -4.245   2.504  25.189  0.00  0.00    -0.351 OA
ATOM     15  C   UNL     1      -4.569   3.241  25.371  0.00  0.00    +0.157 C 
ATOM     23  C   UNL     1      -5.379   3.142  25.490  0.00  0.00    +0.212 C 
ATOM     24  O   UNL     1      -5.918   3.736  25.684  0.00  0.00    -0.218 OA
ATOM     25  C   UNL     1      -5.557   2.344  25.381  0.00  0.00    +0.213 C 
ATOM     26  O   UNL     1      -6.303   1.999  25.447  0.00  0.00    -0.218 OA
ENDROOT
BRANCH  13  12
ATOM     12  C   UNL     1      -4.779   1.143  25.042  0.00  0.00    +0.148 C 
BRANCH  12  11
ATOM     11  N   UNL     1      -4.031   0.811  24.943  0.00  0.00    -0.075 NA
BRANCH  11   8
ATOM      8  S   UNL     1      -3.953   0.001  24.807  0.00  0.00    +0.077 S 
ATOM      9  O   UNL     1      -3.836   0.147  24.003  0.00  0.00    -0.152 OA
ATOM     10  O   UNL     1      -4.070  -0.145  25.610  0.00  0.00    -0.152 OA
BRANCH   8   5
ATOM      1  C   UNL     1      -3.642  -3.239  24.264  0.00  0.00    +0.031 C 
ATOM      2  C   UNL     1      -3.720  -2.429  24.400  0.00  0.00    -0.022 A 
ATOM      3  C   UNL     1      -3.360  -2.085  25.057  0.00  0.00    -0.003 A 
ATOM      4  C   UNL     1      -3.437  -1.274  25.193  0.00  0.00    +0.020 A 
ATOM      5  C   UNL     1      -3.875  -0.809  24.671  0.00  0.00    +0.124 A 
ATOM      6  C   UNL     1      -4.236  -1.154  24.014  0.00  0.00    +0.020 A 
ATOM      7  C   UNL     1      -4.158  -1.963  23.878  0.00  0.00    -0.003 A 
ENDBRANCH   8   5
ENDBRANCH  11   8
ENDBRANCH  12  11
ENDBRANCH  13  12
BRANCH  15  16
ATOM     16  C   UNL     1      -4.155   3.953  25.425  0.00  0.00    +0.119 C 
BRANCH  16  17
ATOM     17  C   UNL     1      -3.395   3.964  25.746  0.00  0.00    +0.245 C 
ATOM     18  O   UNL     1      -3.276   3.746  26.533  0.00  0.00    -0.273 OA
ATOM     19  N   UNL     1      -2.755   4.193  25.280  0.00  0.00    -0.191 NA
BRANCH  19  20
ATOM     20  C   UNL     1      -1.994   4.204  25.601  0.00  0.00    +0.191 C 
BRANCH  20  21
ATOM     21  C   UNL     1      -1.378   4.566  25.188  0.00  0.00    -0.054 C 
ATOM     22  C   UNL     1      -0.763   4.929  24.775  0.00  0.00    -0.012 C 
ENDBRANCH  20  21
ENDBRANCH  19  20
ENDBRANCH  16  17
ENDBRANCH  15  16
TORSDOF 8
ENDMDL
MODEL 2
REMARK VINA RESULT:      -9.3      2.537      6.093
REMARK  Name = 
REMARK  8 active torsions:
REMARK  status: ('A' for Active; 'I' for Inactive)
REMARK    1  A    between atoms: C_5  and  S_8
REMARK    2  A    between atoms: S_8  and  N_11
REMARK    3  A    between atoms: N_11  and  C_12
REMARK    4  A    between atoms: C_12  and  C_13
REMARK    5  A    between atoms: C_15  and  C_16
REMARK    6  A    between atoms: C_16  and  C_17
REMARK    7  A    between atoms: N_19  and  C_20
REMARK    8  A    between atoms: C_20  and  C_21
REMARK                            x       y       z     vdW  Elec       q    Type
REMARK                         _______ _______ _______ _____ _____    ______ ____
ROOT
ATOM     13  C   UNL     1      -0.608   0.618  24.529  0.00  0.00    +0.167 C 
ATOM     14  O   UNL     1      -1.066   0.081  24.957  0.00  0.00    -0.351 OA
ATOM     15  C   UNL     1      -0.825  -0.681  24.751  0.00  0.00    +0.157 C 
ATOM     23  C   UNL     1      -0.218  -0.615  24.196  0.00  0.00    +0.212 C 
ATOM     24  O   UNL     1       0.184  -1.242  23.841  0.00  0.00    -0.218 OA
ATOM     25  C   UNL     1      -0.083   0.187  24.059  0.00  0.00    +0.213 C 
ATOM     26  O   UNL     1       0.476   0.504  23.543  0.00  0.00    -0.218 OA
ENDROOT
BRANCH  13  12
ATOM     12  C   UNL     1      -0.664   1.439  24.566  0.00  0.00    +0.148 C 
BRANCH  12  11
ATOM     11  N   UNL     1      -1.102   1.797  25.166  0.00  0.00    -0.075 NA
BRANCH  11   8
ATOM      8  S   UNL     1      -1.214   2.614  25.163  0.00  0.00    +0.077 S 
ATOM      9  O   UNL     1      -1.790   2.535  24.577  0.00  0.00    -0.152 OA
ATOM     10  O   UNL     1      -0.639   2.695  25.749  0.00  0.00    -0.152 OA
BRANCH   8   5
ATOM      1  C   UNL     1      -1.665   5.883  25.155  0.00  0.00    +0.031 C 
ATOM      2  C   UNL     1      -1.552   5.067  25.157  0.00  0.00    -0.022 A 
ATOM      3  C   UNL     1      -2.130   4.571  25.475  0.00  0.00    -0.003 A 
ATOM      4  C   UNL     1      -2.018   3.753  25.477  0.00  0.00    +0.020 A 
ATOM      5  C   UNL     1      -1.327   3.432  25.161  0.00  0.00    +0.124 A 
ATOM      6  C   UNL     1      -0.749   3.927  24.844  0.00  0.00    +0.020 A 
ATOM      7  C   UNL     1      -0.861   4.744  24.842  0.00  0.00    -0.003 A 
ENDBRANCH   8   5
ENDBRANCH  11   8
ENDBRANCH  12  11
ENDBRANCH  13  12
BRANCH  15  16
ATOM     16  C   UNL     1      -1.137  -1.385  25.048  0.00  0.00    +0.119 C 
BRANCH  16  17
ATOM     17  C   UNL     1      -1.939  -1.435  25.232  0.00  0.00    +0.245 C 
ATOM     18  O   UNL     1      -2.223  -1.107  25.934  0.00  0.00    -0.273 OA
ATOM     19  N   UNL     1      -2.458  -1.813  24.714  0.00  0.00    -0.191 NA
BRANCH  19  20
ATOM     20  C   UNL     1      -3.261  -1.863  24.898  0.00  0.00    +0.191 C 
BRANCH  20  21
ATOM     21  C   UNL     1      -3.796  -2.140  24.335  0.00  0.00    -0.054 C 
ATOM     22  C   UNL     1      -4.330  -2.419  23.771  0.00  0.00    -0.012 C 
ENDBRANCH  20  21
ENDBRANCH  19  20
ENDBRANCH  16  17
ENDBRANCH  15  16
TORSDOF 8
ENDMDL
MODEL 3
REMARK VINA RESULT:      -9.2      2.488      3.531
REMARK  Name = 
REMARK  8 active torsions:
REMARK  status: ('A' for Active; 'I' for Inactive)
REMARK    1  A    between atoms: C_5  and  S_8
REMARK    2  A    between atoms: S_8  and  N_11
REMARK    3  A    between atoms: N_11  and  C_12
REMARK    4  A    between atoms: C_12  and  C_13
REMARK    5  A    between atoms: C_15  and  C_16
REMARK    6  A    between atoms: C_16  and  C_17
REMARK    7  A    between atoms: N_19  and  C_20
REMARK    8  A    between atoms: C_20  and  C_21
REMARK                            x       y       z     vdW  Elec       q    Type
REMARK                         _______ _______ _______ _____ _____    ______ ____
ROOT
ATOM     13  C   UNL     1      -0.594   0.719  24.463  0.00  0.00    +0.167 C 
ATOM     14  O   UNL     1      -0.684   1.310  25.032  0.00  0.00    -0.351 OA
ATOM     15  C   UNL     1      -0.044   1.827  24.966  0.00  0.00    +0.157 C 
ATOM     23  C   UNL     1       0.442   1.555  24.358  0.00  0.00    +0.212 C 
ATOM     24  O   UNL     1       1.145   1.906  24.105  0.00  0.00    -0.218 OA
ATOM     25  C   UNL     1       0.103   0.870  24.047  0.00  0.00    +0.213 C 
ATOM     26  O   UNL     1       0.406   0.417  23.428  0.00  0.00    -0.218 OA
ENDROOT
BRANCH  13  12
ATOM     12  C   UNL     1      -1.108   0.088  24.334  0.00  0.00    +0.148 C 
BRANCH  12  11
ATOM     11  N   UNL     1      -1.762  -0.019  24.825  0.00  0.00    -0.075 NA
BRANCH  11   8
ATOM      8  S   UNL     1      -2.321  -0.599  24.648  0.00  0.00    +0.077 S 
ATOM      9  O   UNL     1      -1.854  -1.165  25.027  0.00  0.00    -0.152 OA
ATOM     10  O   UNL     1      -2.787  -0.034  24.270  0.00  0.00    -0.152 OA
BRANCH   8   5
ATOM      1  C   UNL     1      -4.557  -2.920  23.939  0.00  0.00    +0.031 C 
ATOM      2  C   UNL     1      -3.998  -2.340  24.116  0.00  0.00    -0.022 A 
ATOM      3  C   UNL     1      -4.164  -1.547  23.963  0.00  0.00    -0.003 A 
ATOM      4  C   UNL     1      -3.605  -0.966  24.141  0.00  0.00    +0.020 A 
ATOM      5  C   UNL     1      -2.880  -1.180  24.471  0.00  0.00    +0.124 A 
ATOM      6  C   UNL     1      -2.714  -1.973  24.624  0.00  0.00    +0.020 A 
ATOM      7  C   UNL     1      -3.273  -2.553  24.447  0.00  0.00    -0.003 A 
ENDBRANCH   8   5
ENDBRANCH  11   8
ENDBRANCH  12  11
ENDBRANCH  13  12
BRANCH  15  16
ATOM     16  C   UNL     1       0.087   2.498  25.429  0.00  0.00    +0.119 C 
BRANCH  16  17
ATOM     17  C   UNL     1      -0.552   2.952  25.686  0.00  0.00    +0.245 C 
ATOM     18  O   UNL     1      -0.988   2.716  26.345  0.00  0.00    -0.273 OA
ATOM     19  N   UNL     1      -0.754   3.642  25.282  0.00  0.00    -0.191 NA
BRANCH  19  20
ATOM     20  C   UNL     1      -1.394   4.097  25.538  0.00  0.00    +0.191 C 
BRANCH  20  21
ATOM     21  C   UNL     1      -1.501   4.860  25.243  0.00  0.00    -0.054 C 
ATOM     22  C   UNL     1      -1.608   5.623  24.948  0.00  0.00    -0.012 C 
ENDBRANCH  20  21
ENDBRANCH  19  20
ENDBRANCH  16  17
ENDBRANCH  15  16
TORSDOF 8
ENDMDL
MODEL 4
REMARK VINA RESULT:      -9.1      1.664      2.891
REMARK  Name = 
REMARK  8 active torsions:
REMARK  status: ('A' for Active; 'I' for Inactive)
REMARK    1  A    between atoms: C_5  and  S_8
REMARK    2  A    between atoms: S_8  and  N_11
REMARK    3  A    between atoms: N_11  and  C_12
REMARK    4  A    between atoms: C_12  and  C_13
REMARK    5  A    between atoms: C_15  and  C_16
REMARK    6  A    between atoms: C_16  and  C_17
REMARK    7  A    between atoms: N_19  and  C_20
REMARK    8  A    between atoms: C_20  and  C_21
REMARK                            x       y       z     vdW  Elec       q    Type
REMARK                         _______ _______ _______ _____ _____    ______ ____
ROOT
ATOM     13  C   UNL     1      -1.664   1.491  25.220  0.00  0.00    +0.167 C 
ATOM     14  O   UNL     1      -2.144   2.153  25.325  0.00  0.00    -0.351 OA
ATOM     15  C   UNL     1      -1.661   2.786  25.544  0.00  0.00    +0.157 C 
ATOM     23  C   UNL     1      -0.883   2.514  25.575  0.00  0.00    +0.212 C 
ATOM     24  O   UNL     1      -0.219   2.963  25.771  0.00  0.00    -0.218 OA
ATOM     25  C   UNL     1      -0.884   1.713  25.374  0.00  0.00    +0.213 C 
ATOM     26  O   UNL     1      -0.224   1.221  25.335  0.00  0.00    -0.218 OA
ENDROOT
BRANCH  13  12
ATOM     12  C   UNL     1      -1.919   0.738  25.000  0.00  0.00    +0.148 C 
BRANCH  12  11
ATOM     11  N   UNL     1      -2.723   0.554  25.013  0.00  0.00    -0.075 NA
BRANCH  11   8
ATOM      8  S   UNL     1      -2.976  -0.204  24.808  0.00  0.00    +0.077 S 
ATOM      9  O   UNL     1      -3.024  -0.405  25.607  0.00  0.00    -0.152 OA
ATOM     10  O   UNL     1      -2.929  -0.003  24.009  0.00  0.00    -0.152 OA
BRANCH   8   5
ATOM      1  C   UNL     1      -3.990  -3.235  23.987  0.00  0.00    +0.031 C 
ATOM      2  C   UNL     1      -3.737  -2.477  24.192  0.00  0.00    -0.022 A 
ATOM      3  C   UNL     1      -4.171  -1.818  23.953  0.00  0.00    -0.003 A 
ATOM      4  C   UNL     1      -3.918  -1.060  24.158  0.00  0.00    +0.020 A 
ATOM      5  C   UNL     1      -3.230  -0.962  24.603  0.00  0.00    +0.124 A 
ATOM      6  C   UNL     1      -2.795  -1.621  24.842  0.00  0.00    +0.020 A 
ATOM      7  C   UNL     1      -3.049  -2.379  24.637  0.00  0.00    -0.003 A 
ENDBRANCH   8   5
ENDBRANCH  11   8
ENDBRANCH  12  11
ENDBRANCH  13  12
BRANCH  15  16
ATOM     16  C   UNL     1      -1.912   3.556  25.705  0.00  0.00    +0.119 C 
BRANCH  16  17
ATOM     17  C   UNL     1      -2.584   3.855  25.332  0.00  0.00    +0.245 C 
ATOM     18  O   UNL     1      -2.518   4.225  24.597  0.00  0.00    -0.273 OA
ATOM     19  N   UNL     1      -3.322   3.785  25.694  0.00  0.00    -0.191 NA
BRANCH  19  20
ATOM     20  C   UNL     1      -3.994   4.085  25.321  0.00  0.00    +0.191 C 
BRANCH  20  21
ATOM     21  C   UNL     1      -4.734   3.757  25.481  0.00  0.00    -0.054 C 
ATOM     22  C   UNL     1      -5.474   3.430  25.643  0.00  0.00    -0.012 C 
ENDBRANCH  20  21
ENDBRANCH  19  20
ENDBRANCH  16  17
ENDBRANCH  15  16
TORSDOF 8
ENDMDL
MODEL 5
REMARK VINA RESULT:      -8.8      2.451      5.343
REMARK  Name = 
REMARK  8 active torsions:
REMARK  status: ('A' for Active; 'I' for Inactive)
REMARK    1  A    between atoms: C_5  and  S_8
REMARK    2  A    between atoms: S_8  and  N_11
REMARK    3  A    between atoms: N_11  and  C_12
REMARK    4  A    between atoms: C_12  and  C_13
REMARK    5  A    between atoms: C_15  and  C_16
REMARK    6  A    between atoms: C_16  and  C_17
REMARK    7  A    between atoms: N_19  and  C_20
REMARK    8  A    between atoms: C_20  and  C_21
REMARK                            x       y       z     vdW  Elec       q    Type
REMARK                         _______ _______ _______ _____ _____    ______ ____
ROOT
ATOM     13  C   UNL     1      -1.388   1.117  24.315  0.00  0.00    +0.167 C 
ATOM     14  O   UNL     1      -1.442   0.299  24.402  0.00  0.00    -0.351 OA
ATOM     15  C   UNL     1      -0.714  -0.028  24.189  0.00  0.00    +0.157 C 
ATOM     23  C   UNL     1      -0.212   0.588  23.971  0.00  0.00    +0.212 C 
ATOM     24  O   UNL     1       0.570   0.510  23.719  0.00  0.00    -0.218 OA
ATOM     25  C   UNL     1      -0.628   1.296  24.048  0.00  0.00    +0.213 C 
ATOM     26  O   UNL     1      -0.336   2.051  23.888  0.00  0.00    -0.218 OA
ENDROOT
BRANCH  13  12
ATOM     12  C   UNL     1      -1.989   1.661  24.467  0.00  0.00    +0.148 C 
BRANCH  12  11
ATOM     11  N   UNL     1      -2.776   1.456  24.331  0.00  0.00    -0.075 NA
BRANCH  11   8
ATOM      8  S   UNL     1      -3.382   1.952  24.588  0.00  0.00    +0.077 S 
ATOM      9  O   UNL     1      -3.476   2.237  23.819  0.00  0.00    -0.152 OA
ATOM     10  O   UNL     1      -3.289   1.667  25.356  0.00  0.00    -0.152 OA
BRANCH   8   5
ATOM      1  C   UNL     1      -5.809   3.938  25.617  0.00  0.00    +0.031 C 
ATOM      2  C   UNL     1      -5.202   3.442  25.360  0.00  0.00    -0.022 A 
ATOM      3  C   UNL     1      -4.440   3.740  25.261  0.00  0.00    -0.003 A 
ATOM      4  C   UNL     1      -3.832   3.243  25.003  0.00  0.00    +0.020 A 
ATOM      5  C   UNL     1      -3.989   2.449  24.845  0.00  0.00    +0.124 A 
ATOM      6  C   UNL     1      -4.752   2.151  24.945  0.00  0.00    +0.020 A 
ATOM      7  C   UNL     1      -5.358   2.647  25.202  0.00  0.00    -0.003 A 
ENDBRANCH   8   5
ENDBRANCH  11   8
ENDBRANCH  12  11
ENDBRANCH  13  12
BRANCH  15  16
ATOM     16  C   UNL     1      -0.523  -0.832  24.194  0.00  0.00    +0.119 C 
BRANCH  16  17
ATOM     17  C   UNL     1      -0.944  -1.352  24.677  0.00  0.00    +0.245 C 
ATOM     18  O   UNL     1      -0.747  -1.425  25.475  0.00  0.00    -0.273 OA
ATOM     19  N   UNL     1      -1.561  -1.798  24.361  0.00  0.00    -0.191 NA
BRANCH  19  20
ATOM     20  C   UNL     1      -1.983  -2.318  24.844  0.00  0.00    +0.191 C 
BRANCH  20  21
ATOM     21  C   UNL     1      -2.734  -2.572  24.619  0.00  0.00    -0.054 C 
ATOM     22  C   UNL     1      -3.486  -2.827  24.393  0.00  0.00    -0.012 C 
ENDBRANCH  20  21
ENDBRANCH  19  20
ENDBRANCH  16  17
ENDBRANCH  15  16
TORSDOF 8
ENDMDL
MODEL 6
REMARK VINA RESULT:      -8.6      2.162      4.845
REMARK  Name = 
REMARK  8 active torsions:
REMARK  status: ('A' for Active; 'I' for Inactive)
REMARK    1  A    between atoms: C_5  and  S_8
REMARK    2  A    between atoms: S_8  and  N_11
REMARK    3  A    between atoms: N_11  and  C_12
REMARK    4  A    between atoms: C_12  and  C_13
REMARK    5  A    between atoms: C_15  and  C_16
REMARK    6  A    between atoms: C_16  and  C_17
REMARK    7  A    between atoms: N_19  and  C_20
REMARK    8  A    between atoms: C_20  and  C_21
REMARK                            x       y       z     vdW  Elec       q    Type
REMARK                         _______ _______ _______ _____ _____    ______ ____
ROOT
ATOM     13  C   UNL     1      -3.503  -0.908  24.602  0.00  0.00    +0.167 C 
ATOM     14  O   UNL     1      -2.686  -0.935  24.714  0.00  0.00    -0.351 OA
ATOM     15  C   UNL     1      -2.438  -1.712  24.590  0.00  0.00    +0.157 C 
ATOM     23  C   UNL     1      -3.101  -2.165  24.403  0.00  0.00    +0.212 C 
ATOM     24  O   UNL     1      -3.105  -2.973  24.237  0.00  0.00    -0.218 OA
ATOM     25  C   UNL     1      -3.760  -1.669  24.410  0.00  0.00    +0.213 C 
ATOM     26  O   UNL     1      -4.538  -1.892  24.253  0.00  0.00    -0.218 OA
ENDROOT
BRANCH  13  12
ATOM     12  C   UNL     1      -3.980  -0.239  24.671  0.00  0.00    +0.148 C 
BRANCH  12  11
ATOM     11  N   UNL     1      -3.684   0.502  24.464  0.00  0.00    -0.075 NA
BRANCH  11   8
ATOM      8  S   UNL     1      -4.081   1.186  24.699  0.00  0.00    +0.077 S 
ATOM      9  O   UNL     1      -4.733   0.964  24.243  0.00  0.00    -0.152 OA
ATOM     10  O   UNL     1      -3.430   1.408  25.154  0.00  0.00    -0.152 OA
BRANCH   8   5
ATOM      1  C   UNL     1      -5.669   3.922  25.636  0.00  0.00    +0.031 C 
ATOM      2  C   UNL     1      -5.272   3.239  25.402  0.00  0.00    -0.022 A 
ATOM      3  C   UNL     1      -4.555   3.296  25.000  0.00  0.00    -0.003 A 
ATOM      4  C   UNL     1      -4.157   2.611  24.765  0.00  0.00    +0.020 A 
ATOM      5  C   UNL     1      -4.478   1.870  24.933  0.00  0.00    +0.124 A 
ATOM      6  C   UNL     1      -5.196   1.813  25.335  0.00  0.00    +0.020 A 
ATOM      7  C   UNL     1      -5.593   2.497  25.570  0.00  0.00    -0.003 A 
ENDBRANCH   8   5
ENDBRANCH  11   8
ENDBRANCH  12  11
ENDBRANCH  13  12
BRANCH  15  16
ATOM     16  C   UNL     1      -1.661  -1.988  24.645  0.00  0.00    +0.119 C 
BRANCH  16  17
ATOM     17  C   UNL     1      -1.044  -1.456  24.771  0.00  0.00    +0.245 C 
ATOM     18  O   UNL     1      -0.871  -1.197  25.535  0.00  0.00    -0.273 OA
ATOM     19  N   UNL     1      -0.599  -1.183  24.132  0.00  0.00    -0.191 NA
BRANCH  19  20
ATOM     20  C   UNL     1       0.019  -0.651  24.257  0.00  0.00    +0.191 C 
BRANCH  20  21
ATOM     21  C   UNL     1       0.446  -0.356  23.615  0.00  0.00    -0.054 C 
ATOM     22  C   UNL     1       0.871  -0.062  22.972  0.00  0.00    -0.012 C 
ENDBRANCH  20  21
ENDBRANCH  19  20
ENDBRANCH  16  17
ENDBRANCH  15  16
TORSDOF 8
ENDMDL
MODEL 7
REMARK VINA RESULT:      -8.3      1.472      5.065
REMARK  Name = 
REMARK  8 active torsions:
REMARK  status: ('A' for Active; 'I' for Inactive)
REMARK    1  A    between atoms: C_5  and  S_8
REMARK    2  A    between atoms: S_8  and  N_11
REMARK    3  A    between atoms: N_11  and  C_12
REMARK    4  A    between atoms: C_12  and  C_13
REMARK    5  A    between atoms: C_15  and  C_16
REMARK    6  A    between atoms: C_16  and  C_17
REMARK    7  A    between atoms: N_19  and  C_20
REMARK    8  A    between atoms: C_20  and  C_21
REMARK                            x       y       z     vdW  Elec       q    Type
REMARK                         _______ _______ _______ _____ _____    ______ ____
ROOT
ATOM     13  C   UNL     1      -3.986   1.563  24.916  0.00  0.00    +0.167 C 
ATOM     14  O   UNL     1      -3.688   0.795  24.954  0.00  0.00    -0.351 OA
ATOM     15  C   UNL     1      -4.318   0.271  24.855  0.00  0.00    +0.157 C 
ATOM     23  C   UNL     1      -5.006   0.715  24.755  0.00  0.00    +0.212 C 
ATOM     24  O   UNL     1      -5.765   0.414  24.639  0.00  0.00    -0.218 OA
ATOM     25  C   UNL     1      -4.801   1.514  24.793  0.00  0.00    +0.213 C 
ATOM     26  O   UNL     1      -5.319   2.151  24.721  0.00  0.00    -0.218 OA
ENDROOT
BRANCH  13  12
ATOM     12  C   UNL     1      -3.548   2.257  24.988  0.00  0.00    +0.148 C 
BRANCH  12  11
ATOM     11  N   UNL     1      -2.724   2.227  24.994  0.00  0.00    -0.075 NA
BRANCH  11   8
ATOM      8  S   UNL     1      -2.285   2.924  24.978  0.00  0.00    +0.077 S 
ATOM      9  O   UNL     1      -2.428   3.034  25.784  0.00  0.00    -0.152 OA
ATOM     10  O   UNL     1      -2.141   2.816  24.173  0.00  0.00    -0.152 OA
BRANCH   8   5
ATOM      1  C   UNL     1      -0.529   5.718  24.916  0.00  0.00    +0.031 C 
ATOM      2  C   UNL     1      -0.968   5.020  24.932  0.00  0.00    -0.022 A 
ATOM      3  C   UNL     1      -1.758   5.035  25.167  0.00  0.00    -0.003 A 
ATOM      4  C   UNL     1      -2.198   4.336  25.183  0.00  0.00    +0.020 A 
ATOM      5  C   UNL     1      -1.846   3.623  24.962  0.00  0.00    +0.124 A 
ATOM      6  C   UNL     1      -1.055   3.609  24.727  0.00  0.00    +0.020 A 
ATOM      7  C   UNL     1      -0.616   4.306  24.712  0.00  0.00    -0.003 A 
ENDBRANCH   8   5
ENDBRANCH  11   8
ENDBRANCH  12  11
ENDBRANCH  13  12
BRANCH  15  16
ATOM     16  C   UNL     1      -4.269  -0.553  24.855  0.00  0.00    +0.119 C 
BRANCH  16  17
ATOM     17  C   UNL     1      -3.637  -0.928  25.231  0.00  0.00    +0.245 C 
ATOM     18  O   UNL     1      -3.572  -0.901  26.053  0.00  0.00    -0.273 OA
ATOM     19  N   UNL     1      -3.072  -1.329  24.785  0.00  0.00    -0.191 NA
BRANCH  19  20
ATOM     20  C   UNL     1      -2.440  -1.704  25.161  0.00  0.00    +0.191 C 
BRANCH  20  21
ATOM     21  C   UNL     1      -1.911  -2.160  24.722  0.00  0.00    -0.054 C 
ATOM     22  C   UNL     1      -1.382  -2.616  24.282  0.00  0.00    -0.012 C 
ENDBRANCH  20  21
ENDBRANCH  19  20
ENDBRANCH  16  17
ENDBRANCH  15  16
TORSDOF 8
ENDMDL
