MODEL 1
REMARK VINA RESULT:     -15.6      0.000      0.000
REMARK  Name = 
REMARK  4 active torsions:
REMARK  status: ('A' for Active; 'I' for Inactive)
REMARK    1  A    between atoms: O_2  and  C_3
REMARK    2  A    between atoms: C_8  and  N_9
REMARK    3  A    between atoms: N_12  and  C_13
REMARK    4  A    between atoms: C_23  and  C_25
REMARK                            x       y       z     vdW  Elec       q    Type
REMARK                         _______ _______ _______ _____ _____    ______ ____
ROOT
ATOM     13  C   UNL     1      -3.953   1.332  24.269  0.00  0.00    +0.131 A 
ATOM     14  C   UNL     1      -4.721   1.038  24.337  0.00  0.00    +0.023 A 
ATOM     15  C   UNL     1      -5.283   1.449  24.778  0.00  0.00    +0.014 A 
ATOM     16  C   UNL     1      -5.077   2.155  25.152  0.00  0.00    +0.041 A 
ATOM     17  C   UNL     1      -5.438   2.814  25.681  0.00  0.00    +0.058 C 
ATOM     18  C   UNL     1      -6.037   3.002  25.995  0.00  0.00    +0.011 C 
ATOM     19  C   UNL     1      -5.279   3.289  25.926  0.00  0.00    +0.043 C 
ATOM     20  C   UNL     1      -4.428   3.791  25.961  0.00  0.00    +0.096 C 
ATOM     21  N   UNL     1      -3.951   3.291  25.492  0.00  0.00    -0.276 N 
ATOM     22  C   UNL     1      -4.624   3.311  25.725  0.00  0.00    +0.099 C 
ATOM     23  C   UNL     1      -3.280   3.014  25.099  0.00  0.00    +0.249 C 
ATOM     24  O   UNL     1      -3.314   2.309  24.670  0.00  0.00    -0.270 OA
ATOM     32  C   UNL     1      -4.893   2.606  25.373  0.00  0.00    +0.110 C 
ATOM     33  N   UNL     1      -4.309   2.450  25.084  0.00  0.00    -0.298 N 
ATOM     34  C   UNL     1      -3.747   2.038  24.642  0.00  0.00    +0.276 A 
ATOM     35  O   UNL     1      -2.954   2.119  24.433  0.00  0.00    -0.266 OA
ENDROOT
BRANCH  23  25
ATOM     25  C   UNL     1      -2.576   3.441  25.135  0.00  0.00    +0.054 A 
ATOM     26  C   UNL     1      -1.976   3.207  25.650  0.00  0.00    +0.007 A 
ATOM     27  C   UNL     1      -1.271   3.634  25.686  0.00  0.00    +0.030 A 
ATOM     28  C   UNL     1      -1.166   4.297  25.206  0.00  0.00    +0.140 A 
ATOM     29  F   UNL     1      -0.461   4.725  25.242  0.00  0.00    -0.204 F 
ATOM     30  C   UNL     1      -1.765   4.532  24.690  0.00  0.00    +0.030 A 
ATOM     31  C   UNL     1      -2.470   4.104  24.655  0.00  0.00    +0.007 A 
ENDBRANCH  23  25
BRANCH  13  12
ATOM      9  N   UNL     1      -3.830  -0.307  24.414  0.00  0.00    -0.158 NA
ATOM     10  C   UNL     1      -3.330   0.101  23.900  0.00  0.00    +0.348 C 
ATOM     11  O   UNL     1      -2.767  -0.312  23.457  0.00  0.00    -0.248 OA
ATOM     12  N   UNL     1      -3.391   0.920  23.827  0.00  0.00    -0.156 NA
BRANCH   9   8
ATOM      3  C   UNL     1      -3.530  -1.462  25.201  0.00  0.00    +0.154 A 
ATOM      4  C   UNL     1      -3.468  -2.281  25.272  0.00  0.00    +0.038 A 
ATOM      5  C   UNL     1      -3.644  -2.766  24.628  0.00  0.00    +0.003 A 
ATOM      6  C   UNL     1      -3.882  -2.431  23.913  0.00  0.00    +0.002 A 
ATOM      7  C   UNL     1      -3.944  -1.612  23.842  0.00  0.00    +0.020 A 
ATOM      8  C   UNL     1      -3.768  -1.127  24.486  0.00  0.00    +0.109 A 
BRANCH   3   2
ATOM      1  C   UNL     1      -3.132  -1.313  26.566  0.00  0.00    +0.253 C 
ATOM      2  O   UNL     1      -3.354  -0.977  25.845  0.00  0.00    -0.470 OA
ENDBRANCH   3   2
ENDBRANCH   9   8
ENDBRANCH  13  12
TORSDOF 4
ENDMDL
MODEL 2
REMARK VINA RESULT:     -14.6      1.846      4.250
REMARK  Name = 
REMARK  4 active torsions:
REMARK  status: ('A' for Active; 'I' for Inactive)
REMARK    1  A    between atoms: O_2  and  C_3
REMARK    2  A    between atoms: C_8  and  N_9
REMARK    3  A    between atoms: N_12  and  C_13
REMARK    4  A    between atoms: C_23  and  C_25
REMARK                            x       y       z     vdW  Elec       q    Type
REMARK                         _______ _______ _______ _____ _____    ______ ____
ROOT
ATOM     13  C   UNL     1      -3.316   1.923  23.781  0.00  0.00    +0.131 A 
ATOM     14  C   UNL     1      -3.621   2.689  23.818  0.00  0.00    +0.023 A 
ATOM     15  C   UNL     1      -4.328   2.832  24.219  0.00  0.00    +0.014 A 
ATOM     16  C   UNL     1      -4.729   2.210  24.582  0.00  0.00    +0.041 A 
ATOM     17  C   UNL     1      -5.487   2.040  25.074  0.00  0.00    +0.058 C 
ATOM     18  C   UNL     1      -6.047   2.360  25.351  0.00  0.00    +0.011 C 
ATOM     19  C   UNL     1      -5.742   1.605  25.313  0.00  0.00    +0.043 C 
ATOM     20  C   UNL     1      -5.539   0.640  25.377  0.00  0.00    +0.096 C 
ATOM     21  N   UNL     1      -4.823   0.619  24.947  0.00  0.00    -0.276 N 
ATOM     22  C   UNL     1      -5.305   1.105  25.145  0.00  0.00    +0.099 C 
ATOM     23  C   UNL     1      -4.145   0.305  24.596  0.00  0.00    +0.249 C 
ATOM     24  O   UNL     1      -3.626   0.799  24.186  0.00  0.00    -0.270 OA
ATOM     32  C   UNL     1      -4.948   1.773  24.799  0.00  0.00    +0.110 C 
ATOM     33  N   UNL     1      -4.424   1.444  24.545  0.00  0.00    -0.298 N 
ATOM     34  C   UNL     1      -3.717   1.301  24.144  0.00  0.00    +0.276 A 
ATOM     35  O   UNL     1      -3.229   0.658  23.973  0.00  0.00    -0.266 OA
ENDROOT
BRANCH  23  25
ATOM     25  C   UNL     1      -3.986  -0.502  24.656  0.00  0.00    +0.054 A 
ATOM     26  C   UNL     1      -4.232  -1.016  24.061  0.00  0.00    +0.007 A 
ATOM     27  C   UNL     1      -4.073  -1.824  24.120  0.00  0.00    +0.030 A 
ATOM     28  C   UNL     1      -3.667  -2.116  24.776  0.00  0.00    +0.140 A 
ATOM     29  F   UNL     1      -3.507  -2.924  24.836  0.00  0.00    -0.204 F 
ATOM     30  C   UNL     1      -3.420  -1.603  25.372  0.00  0.00    +0.030 A 
ATOM     31  C   UNL     1      -3.580  -0.795  25.312  0.00  0.00    +0.007 A 
ENDBRANCH  23  25
BRANCH  13  12
ATOM      9  N   UNL     1      -1.944   2.732  24.213  0.00  0.00    -0.158 NA
ATOM     10  C   UNL     1      -1.924   2.185  23.596  0.00  0.00    +0.348 C 
ATOM     11  O   UNL     1      -1.216   2.042  23.194  0.00  0.00    -0.248 OA
ATOM     12  N   UNL     1      -2.609   1.781  23.380  0.00  0.00    -0.156 NA
BRANCH   9   8
ATOM      3  C   UNL     1      -0.972   3.083  25.201  0.00  0.00    +0.154 A 
ATOM      4  C   UNL     1      -0.286   3.487  25.416  0.00  0.00    +0.038 A 
ATOM      5  C   UNL     1       0.115   3.945  24.858  0.00  0.00    +0.003 A 
ATOM      6  C   UNL     1      -0.171   3.999  24.086  0.00  0.00    +0.002 A 
ATOM      7  C   UNL     1      -0.857   3.595  23.871  0.00  0.00    +0.020 A 
ATOM      8  C   UNL     1      -1.258   3.137  24.429  0.00  0.00    +0.109 A 
BRANCH   3   2
ATOM      1  C   UNL     1      -1.062   2.533  26.517  0.00  0.00    +0.253 C 
ATOM      2  O   UNL     1      -1.373   2.625  25.758  0.00  0.00    -0.470 OA
ENDBRANCH   3   2
ENDBRANCH   9   8
ENDBRANCH  13  12
TORSDOF 4
ENDMDL
MODEL 3
REMARK VINA RESULT:     -14.0      1.355      2.591
REMARK  Name = 
REMARK  4 active torsions:
REMARK  status: ('A' for Active; 'I' for Inactive)
REMARK    1  A    between atoms: O_2  and  C_3
REMARK    2  A    between atoms: C_8  and  N_9
REMARK    3  A    between atoms: N_12  and  C_13
REMARK    4  A    between atoms: C_23  and  C_25
REMARK                            x       y       z     vdW  Elec       q    Type
REMARK                         _______ _______ _______ _____ _____    ______ ____
ROOT
ATOM     13  C   UNL     1      -2.716   1.058  24.065  0.00  0.00    +0.131 A 
ATOM     14  C   UNL     1      -1.947   0.762  24.032  0.00  0.00    +0.023 A 
ATOM     15  C   UNL     1      -1.338   1.148  24.433  0.00  0.00    +0.014 A 
ATOM     16  C   UNL     1      -1.499   1.831  24.867  0.00  0.00    +0.041 A 
ATOM     17  C   UNL     1      -1.080   2.459  25.392  0.00  0.00    +0.058 C 
ATOM     18  C   UNL     1      -0.449   2.629  25.648  0.00  0.00    +0.011 C 
ATOM     19  C   UNL     1      -1.210   2.919  25.679  0.00  0.00    +0.043 C 
ATOM     20  C   UNL     1      -2.049   3.416  25.835  0.00  0.00    +0.096 C 
ATOM     21  N   UNL     1      -2.577   2.943  25.392  0.00  0.00    -0.276 N 
ATOM     22  C   UNL     1      -1.883   2.951  25.551  0.00  0.00    +0.099 C 
ATOM     23  C   UNL     1      -3.288   2.688  25.059  0.00  0.00    +0.249 C 
ATOM     24  O   UNL     1      -3.303   2.010  24.589  0.00  0.00    -0.270 OA
ATOM     32  C   UNL     1      -1.657   2.268  25.132  0.00  0.00    +0.110 C 
ATOM     33  N   UNL     1      -2.269   2.128  24.900  0.00  0.00    -0.298 N 
ATOM     34  C   UNL     1      -2.877   1.741  24.499  0.00  0.00    +0.276 A 
ATOM     35  O   UNL     1      -3.688   1.832  24.382  0.00  0.00    -0.266 OA
ENDROOT
BRANCH  23  25
ATOM     25  C   UNL     1      -3.982   3.111  25.196  0.00  0.00    +0.054 A 
ATOM     26  C   UNL     1      -4.157   3.776  24.740  0.00  0.00    +0.007 A 
ATOM     27  C   UNL     1      -4.853   4.199  24.877  0.00  0.00    +0.030 A 
ATOM     28  C   UNL     1      -5.372   3.957  25.470  0.00  0.00    +0.140 A 
ATOM     29  F   UNL     1      -6.068   4.381  25.607  0.00  0.00    -0.204 F 
ATOM     30  C   UNL     1      -5.198   3.293  25.926  0.00  0.00    +0.030 A 
ATOM     31  C   UNL     1      -4.503   2.869  25.789  0.00  0.00    +0.007 A 
ENDBRANCH  23  25
BRANCH  13  12
ATOM      9  N   UNL     1      -3.044  -0.525  24.394  0.00  0.00    -0.158 NA
ATOM     10  C   UNL     1      -3.488  -0.120  23.828  0.00  0.00    +0.348 C 
ATOM     11  O   UNL     1      -4.097  -0.507  23.426  0.00  0.00    -0.248 OA
ATOM     12  N   UNL     1      -3.324   0.671  23.664  0.00  0.00    -0.156 NA
BRANCH   9   8
ATOM      3  C   UNL     1      -3.213  -1.586  25.337  0.00  0.00    +0.154 A 
ATOM      4  C   UNL     1      -3.378  -2.377  25.500  0.00  0.00    +0.038 A 
ATOM      5  C   UNL     1      -3.539  -2.901  24.883  0.00  0.00    +0.003 A 
ATOM      6  C   UNL     1      -3.536  -2.632  24.103  0.00  0.00    +0.002 A 
ATOM      7  C   UNL     1      -3.371  -1.841  23.940  0.00  0.00    +0.020 A 
ATOM      8  C   UNL     1      -3.209  -1.318  24.557  0.00  0.00    +0.109 A 
BRANCH   3   2
ATOM      1  C   UNL     1      -3.022  -1.338  26.732  0.00  0.00    +0.253 C 
ATOM      2  O   UNL     1      -3.051  -1.063  25.955  0.00  0.00    -0.470 OA
ENDBRANCH   3   2
ENDBRANCH   9   8
ENDBRANCH  13  12
TORSDOF 4
ENDMDL
MODEL 4
REMARK VINA RESULT:     -13.6      2.020      4.611
REMARK  Name = 
REMARK  4 active torsions:
REMARK  status: ('A' for Active; 'I' for Inactive)
REMARK    1  A    between atoms: O_2  and  C_3
REMARK    2  A    between atoms: C_8  and  N_9
REMARK    3  A    between atoms: N_12  and  C_13
REMARK    4  A    between atoms: C_23  and  C_25
REMARK                            x       y       z     vdW  Elec       q    Type
REMARK                         _______ _______ _______ _____ _____    ______ ____
ROOT
ATOM     13  C   UNL     1      -2.337   1.574  23.811  0.00  0.00    +0.131 A 
ATOM     14  C   UNL     1      -3.024   1.993  23.629  0.00  0.00    +0.023 A 
ATOM     15  C   UNL     1      -3.761   1.683  23.830  0.00  0.00    +0.014 A 
ATOM     16  C   UNL     1      -3.812   0.955  24.214  0.00  0.00    +0.041 A 
ATOM     17  C   UNL     1      -4.433   0.369  24.553  0.00  0.00    +0.058 C 
ATOM     18  C   UNL     1      -5.126   0.286  24.634  0.00  0.00    +0.011 C 
ATOM     19  C   UNL     1      -4.445  -0.125  24.812  0.00  0.00    +0.043 C 
ATOM     20  C   UNL     1      -3.750  -0.762  25.108  0.00  0.00    +0.096 C 
ATOM     21  N   UNL     1      -3.068  -0.351  24.857  0.00  0.00    -0.276 N 
ATOM     22  C   UNL     1      -3.774  -0.257  24.845  0.00  0.00    +0.099 C 
ATOM     23  C   UNL     1      -2.267  -0.192  24.731  0.00  0.00    +0.249 C 
ATOM     24  O   UNL     1      -2.039   0.506  24.354  0.00  0.00    -0.270 OA
ATOM     32  C   UNL     1      -3.789   0.481  24.460  0.00  0.00    +0.110 C 
ATOM     33  N   UNL     1      -3.125   0.536  24.396  0.00  0.00    -0.298 N 
ATOM     34  C   UNL     1      -2.387   0.846  24.195  0.00  0.00    +0.276 A 
ATOM     35  O   UNL     1      -1.594   0.632  24.264  0.00  0.00    -0.266 OA
ENDROOT
BRANCH  23  25
ATOM     25  C   UNL     1      -1.696  -0.731  24.982  0.00  0.00    +0.054 A 
ATOM     26  C   UNL     1      -1.480  -1.361  24.496  0.00  0.00    +0.007 A 
ATOM     27  C   UNL     1      -0.908  -1.900  24.747  0.00  0.00    +0.030 A 
ATOM     28  C   UNL     1      -0.552  -1.809  25.486  0.00  0.00    +0.140 A 
ATOM     29  F   UNL     1       0.020  -2.348  25.738  0.00  0.00    -0.204 F 
ATOM     30  C   UNL     1      -0.768  -1.180  25.973  0.00  0.00    +0.030 A 
ATOM     31  C   UNL     1      -1.340  -0.640  25.722  0.00  0.00    +0.007 A 
ENDBRANCH  23  25
BRANCH  13  12
ATOM      9  N   UNL     1      -1.882   3.056  24.376  0.00  0.00    -0.158 NA
ATOM     10  C   UNL     1      -1.372   2.625  23.892  0.00  0.00    +0.348 C 
ATOM     11  O   UNL     1      -0.634   2.935  23.690  0.00  0.00    -0.248 OA
ATOM     12  N   UNL     1      -1.599   1.884  23.610  0.00  0.00    -0.156 NA
BRANCH   9   8
ATOM      3  C   UNL     1      -2.046   4.133  25.301  0.00  0.00    +0.154 A 
ATOM      4  C   UNL     1      -1.818   4.874  25.583  0.00  0.00    +0.038 A 
ATOM      5  C   UNL     1      -1.197   5.280  25.220  0.00  0.00    +0.003 A 
ATOM      6  C   UNL     1      -0.805   4.944  24.577  0.00  0.00    +0.002 A 
ATOM      7  C   UNL     1      -1.034   4.204  24.296  0.00  0.00    +0.020 A 
ATOM      8  C   UNL     1      -1.654   3.798  24.658  0.00  0.00    +0.109 A 
BRANCH   3   2
ATOM      1  C   UNL     1      -3.062   4.065  26.305  0.00  0.00    +0.253 C 
ATOM      2  O   UNL     1      -2.667   3.728  25.664  0.00  0.00    -0.470 OA
ENDBRANCH   3   2
ENDBRANCH   9   8
ENDBRANCH  13  12
TORSDOF 4
ENDMDL
MODEL 5
REMARK VINA RESULT:     -13.2      2.202      4.981
REMARK  Name = 
REMARK  4 active torsions:
REMARK  status: ('A' for Active; 'I' for Inactive)
REMARK    1  A    between atoms: O_2  and  C_3
REMARK    2  A    between atoms: C_8  and  N_9
REMARK    3  A    between atoms: N_12  and  C_13
REMARK    4  A    between atoms: C_23  and  C_25
REMARK                            x       y       z     vdW  Elec       q    Type
REMARK                         _______ _______ _______ _____ _____    ______ ____
ROOT
ATOM     13  C   UNL     1      -2.863   1.283  23.725  0.00  0.00    +0.131 A 
ATOM     14  C   UNL     1      -2.358   1.887  23.479  0.00  0.00    +0.023 A 
ATOM     15  C   UNL     1      -1.540   1.787  23.525  0.00  0.00    +0.014 A 
ATOM     16  C   UNL     1      -1.228   1.082  23.817  0.00  0.00    +0.041 A 
ATOM     17  C   UNL     1      -0.421   0.676  23.989  0.00  0.00    +0.058 C 
ATOM     18  C   UNL     1       0.271   0.787  23.948  0.00  0.00    +0.011 C 
ATOM     19  C   UNL     1      -0.230   0.192  24.190  0.00  0.00    +0.043 C 
ATOM     20  C   UNL     1      -0.663  -0.630  24.526  0.00  0.00    +0.096 C 
ATOM     21  N   UNL     1      -1.465  -0.414  24.433  0.00  0.00    -0.276 N 
ATOM     22  C   UNL     1      -0.824  -0.125  24.317  0.00  0.00    +0.099 C 
ATOM     23  C   UNL     1      -2.287  -0.480  24.455  0.00  0.00    +0.249 C 
ATOM     24  O   UNL     1      -2.759   0.146  24.195  0.00  0.00    -0.270 OA
ATOM     32  C   UNL     1      -1.078   0.608  24.014  0.00  0.00    +0.110 C 
ATOM     33  N   UNL     1      -1.732   0.477  24.064  0.00  0.00    -0.298 N 
ATOM     34  C   UNL     1      -2.550   0.578  24.018  0.00  0.00    +0.276 A 
ATOM     35  O   UNL     1      -3.231   0.146  24.192  0.00  0.00    -0.266 OA
ENDROOT
BRANCH  23  25
ATOM     25  C   UNL     1      -2.638  -1.171  24.738  0.00  0.00    +0.054 A 
ATOM     26  C   UNL     1      -2.865  -1.225  25.529  0.00  0.00    +0.007 A 
ATOM     27  C   UNL     1      -3.216  -1.916  25.812  0.00  0.00    +0.030 A 
ATOM     28  C   UNL     1      -3.340  -2.553  25.303  0.00  0.00    +0.140 A 
ATOM     29  F   UNL     1      -3.691  -3.245  25.586  0.00  0.00    -0.204 F 
ATOM     30  C   UNL     1      -3.113  -2.500  24.512  0.00  0.00    +0.030 A 
ATOM     31  C   UNL     1      -2.762  -1.809  24.229  0.00  0.00    +0.007 A 
ENDBRANCH  23  25
BRANCH  13  12
ATOM      9  N   UNL     1      -3.598   2.474  24.599  0.00  0.00    -0.158 NA
ATOM     10  C   UNL     1      -4.047   1.979  24.116  0.00  0.00    +0.348 C 
ATOM     11  O   UNL     1      -4.866   2.080  24.069  0.00  0.00    -0.248 OA
ATOM     12  N   UNL     1      -3.680   1.384  23.679  0.00  0.00    -0.156 NA
BRANCH   9   8
ATOM      3  C   UNL     1      -3.530   3.517  25.574  0.00  0.00    +0.154 A 
ATOM      4  C   UNL     1      -3.899   4.112  26.011  0.00  0.00    +0.038 A 
ATOM      5  C   UNL     1      -4.704   4.259  25.908  0.00  0.00    +0.003 A 
ATOM      6  C   UNL     1      -5.141   3.812  25.370  0.00  0.00    +0.002 A 
ATOM      7  C   UNL     1      -4.772   3.217  24.934  0.00  0.00    +0.020 A 
ATOM      8  C   UNL     1      -3.966   3.069  25.036  0.00  0.00    +0.109 A 
BRANCH   3   2
ATOM      1  C   UNL     1      -2.273   3.862  26.160  0.00  0.00    +0.253 C 
ATOM      2  O   UNL     1      -2.725   3.369  25.677  0.00  0.00    -0.470 OA
ENDBRANCH   3   2
ENDBRANCH   9   8
ENDBRANCH  13  12
TORSDOF 4
ENDMDL
MODEL 6
REMARK VINA RESULT:     -13.2      1.799      2.980
REMARK  Name = 
REMARK  4 active torsions:
REMARK  status: ('A' for Active; 'I' for Inactive)
REMARK    1  A    between atoms: O_2  and  C_3
REMARK    2  A    between atoms: C_8  and  N_9
REMARK    3  A    between atoms: N_12  and  C_13
REMARK    4  A    between atoms: C_23  and  C_25
REMARK                            x       y       z     vdW  Elec       q    Type
REMARK                         _______ _______ _______ _____ _____    ______ ____
ROOT
ATOM     13  C   UNL     1      -2.206   0.868  24.547  0.00  0.00    +0.131 A 
ATOM     14  C   UNL     1      -1.650   0.718  23.956  0.00  0.00    +0.023 A 
ATOM     15  C   UNL     1      -1.697   1.115  23.234  0.00  0.00    +0.014 A 
ATOM     16  C   UNL     1      -2.300   1.662  23.104  0.00  0.00    +0.041 A 
ATOM     17  C   UNL     1      -2.617   2.236  22.459  0.00  0.00    +0.058 C 
ATOM     18  C   UNL     1      -2.485   2.456  21.806  0.00  0.00    +0.011 C 
ATOM     19  C   UNL     1      -3.032   2.601  22.391  0.00  0.00    +0.043 C 
ATOM     20  C   UNL     1      -3.776   2.909  22.964  0.00  0.00    +0.096 C 
ATOM     21  N   UNL     1      -3.626   2.451  23.646  0.00  0.00    -0.276 N 
ATOM     22  C   UNL     1      -3.340   2.544  23.001  0.00  0.00    +0.099 C 
ATOM     23  C   UNL     1      -3.725   2.150  24.409  0.00  0.00    +0.249 C 
ATOM     24  O   UNL     1      -3.199   1.585  24.701  0.00  0.00    -0.270 OA
ATOM     32  C   UNL     1      -2.709   2.005  23.071  0.00  0.00    +0.110 C 
ATOM     33  N   UNL     1      -2.857   1.812  23.695  0.00  0.00    -0.298 N 
ATOM     34  C   UNL     1      -2.809   1.415  24.416  0.00  0.00    +0.276 A 
ATOM     35  O   UNL     1      -3.222   1.389  25.130  0.00  0.00    -0.266 OA
ENDROOT
BRANCH  23  25
ATOM     25  C   UNL     1      -4.349   2.414  24.878  0.00  0.00    +0.054 A 
ATOM     26  C   UNL     1      -4.258   3.088  25.345  0.00  0.00    +0.007 A 
ATOM     27  C   UNL     1      -4.883   3.353  25.815  0.00  0.00    +0.030 A 
ATOM     28  C   UNL     1      -5.599   2.943  25.818  0.00  0.00    +0.140 A 
ATOM     29  F   UNL     1      -6.224   3.207  26.288  0.00  0.00    -0.204 F 
ATOM     30  C   UNL     1      -5.691   2.269  25.351  0.00  0.00    +0.030 A 
ATOM     31  C   UNL     1      -5.066   2.005  24.881  0.00  0.00    +0.007 A 
ENDBRANCH  23  25
BRANCH  13  12
ATOM      9  N   UNL     1      -2.361  -0.774  24.596  0.00  0.00    -0.158 NA
ATOM     10  C   UNL     1      -2.235  -0.350  25.293  0.00  0.00    +0.348 C 
ATOM     11  O   UNL     1      -2.187  -0.747  26.015  0.00  0.00    -0.248 OA
ATOM     12  N   UNL     1      -2.158   0.471  25.268  0.00  0.00    -0.156 NA
BRANCH   9   8
ATOM      3  C   UNL     1      -3.135  -1.953  24.364  0.00  0.00    +0.154 A 
ATOM      4  C   UNL     1      -3.212  -2.773  24.390  0.00  0.00    +0.038 A 
ATOM      5  C   UNL     1      -2.591  -3.237  24.674  0.00  0.00    +0.003 A 
ATOM      6  C   UNL     1      -1.894  -2.880  24.932  0.00  0.00    +0.002 A 
ATOM      7  C   UNL     1      -1.817  -2.059  24.906  0.00  0.00    +0.020 A 
ATOM      8  C   UNL     1      -2.438  -1.596  24.622  0.00  0.00    +0.109 A 
BRANCH   3   2
ATOM      1  C   UNL     1      -4.429  -1.848  23.765  0.00  0.00    +0.253 C 
ATOM      2  O   UNL     1      -3.756  -1.489  24.080  0.00  0.00    -0.470 OA
ENDBRANCH   3   2
ENDBRANCH   9   8
ENDBRANCH  13  12
TORSDOF 4
ENDMDL
MODEL 7
REMARK VINA RESULT:     -12.4      1.815      4.052
REMARK  Name = 
REMARK  4 active torsions:
REMARK  status: ('A' for Active; 'I' for Inactive)
REMARK    1  A    between atoms: O_2  and  C_3
REMARK    2  A    between atoms: C_8  and  N_9
REMARK    3  A    between atoms: N_12  and  C_13
REMARK    4  A    between atoms: C_23  and  C_25
REMARK                            x       y       z     vdW  Elec       q    Type
REMARK                         _______ _______ _______ _____ _____    ______ ____
ROOT
ATOM     13  C   UNL     1      -3.409   0.765  23.894  0.00  0.00    +0.131 A 
ATOM     14  C   UNL     1      -4.068   0.303  24.075  0.00  0.00    +0.023 A 
ATOM     15  C   UNL     1      -3.974  -0.408  24.484  0.00  0.00    +0.014 A 
ATOM     16  C   UNL     1      -3.221  -0.656  24.711  0.00  0.00    +0.041 A 
ATOM     17  C   UNL     1      -2.798  -1.346  25.146  0.00  0.00    +0.058 C 
ATOM     18  C   UNL     1      -2.929  -1.955  25.470  0.00  0.00    +0.011 C 
ATOM     19  C   UNL     1      -2.281  -1.496  25.290  0.00  0.00    +0.043 C 
ATOM     20  C   UNL     1      -1.389  -1.089  25.167  0.00  0.00    +0.096 C 
ATOM     21  N   UNL     1      -1.607  -0.396  24.754  0.00  0.00    -0.276 N 
ATOM     22  C   UNL     1      -1.929  -0.966  25.035  0.00  0.00    +0.099 C 
ATOM     23  C   UNL     1      -1.522   0.325  24.361  0.00  0.00    +0.249 C 
ATOM     24  O   UNL     1      -2.187   0.715  24.065  0.00  0.00    -0.270 OA
ATOM     32  C   UNL     1      -2.713  -0.770  24.834  0.00  0.00    +0.110 C 
ATOM     33  N   UNL     1      -2.562  -0.194  24.529  0.00  0.00    -0.298 N 
ATOM     34  C   UNL     1      -2.656   0.517  24.121  0.00  0.00    +0.276 A 
ATOM     35  O   UNL     1      -2.180   1.127  23.836  0.00  0.00    -0.266 OA
ENDROOT
BRANCH  23  25
ATOM     25  C   UNL     1      -0.773   0.656  24.264  0.00  0.00    +0.054 A 
ATOM     26  C   UNL     1      -0.293   0.414  23.638  0.00  0.00    +0.007 A 
ATOM     27  C   UNL     1       0.457   0.745  23.541  0.00  0.00    +0.030 A 
ATOM     28  C   UNL     1       0.726   1.318  24.070  0.00  0.00    +0.140 A 
ATOM     29  F   UNL     1       1.476   1.649  23.973  0.00  0.00    -0.204 F 
ATOM     30  C   UNL     1       0.246   1.560  24.695  0.00  0.00    +0.030 A 
ATOM     31  C   UNL     1      -0.504   1.229  24.793  0.00  0.00    +0.007 A 
ENDBRANCH  23  25
BRANCH  13  12
ATOM      9  N   UNL     1      -4.214   2.021  24.599  0.00  0.00    -0.158 NA
ATOM     10  C   UNL     1      -3.906   2.103  23.838  0.00  0.00    +0.348 C 
ATOM     11  O   UNL     1      -4.001   2.814  23.429  0.00  0.00    -0.248 OA
ATOM     12  N   UNL     1      -3.504   1.475  23.486  0.00  0.00    -0.156 NA
BRANCH   9   8
ATOM      3  C   UNL     1      -5.319   2.512  25.362  0.00  0.00    +0.154 A 
ATOM      4  C   UNL     1      -5.722   3.141  25.713  0.00  0.00    +0.038 A 
ATOM      5  C   UNL     1      -5.422   3.907  25.654  0.00  0.00    +0.003 A 
ATOM      6  C   UNL     1      -4.719   4.045  25.243  0.00  0.00    +0.002 A 
ATOM      7  C   UNL     1      -4.317   3.416  24.892  0.00  0.00    +0.020 A 
ATOM      8  C   UNL     1      -4.617   2.650  24.951  0.00  0.00    +0.109 A 
BRANCH   3   2
ATOM      1  C   UNL     1      -6.296   1.601  25.870  0.00  0.00    +0.253 C 
ATOM      2  O   UNL     1      -5.619   1.746  25.421  0.00  0.00    -0.470 OA
ENDBRANCH   3   2
ENDBRANCH   9   8
ENDBRANCH  13  12
TORSDOF 4
ENDMDL
