MODEL 1
REMARK VINA RESULT:     -13.9      0.000      0.000
REMARK  Name = 
REMARK  3 active torsions:
REMARK  status: ('A' for Active; 'I' for Inactive)
REMARK    1  A    between atoms: N_9  and  C_10
REMARK    2  A    between atoms: C_10  and  C_11
REMARK    3  A    between atoms: C_20  and  C_21
REMARK                            x       y       z     vdW  Elec       q    Type
REMARK                         _______ _______ _______ _____ _____    ______ ____
ROOT
ATOM      1  O   UNL     1      -2.624   0.416  24.854  0.00  0.00    -0.267 OA
ATOM      2  C   UNL     1      -3.404   0.685  24.880  0.00  0.00    +0.261 A 
ATOM      3  N   UNL     1      -3.560   1.495  24.906  0.00  0.00    -0.299 N 
ATOM      4  C   UNL     1      -4.328   1.166  24.915  0.00  0.00    +0.110 C 
ATOM      5  C   UNL     1      -4.863   1.995  24.950  0.00  0.00    +0.039 C 
ATOM      6  C   UNL     1      -5.437   2.573  24.980  0.00  0.00    +0.011 C 
ATOM      7  C   UNL     1      -4.736   2.538  24.963  0.00  0.00    +0.054 C 
ATOM      8  C   UNL     1      -3.988   3.072  24.961  0.00  0.00    +0.078 C 
ATOM      9  N   UNL     1      -3.418   2.494  24.931  0.00  0.00    -0.268 NA
ATOM     16  C   UNL     1      -4.076   2.545  24.948  0.00  0.00    +0.074 C 
ATOM     17  C   UNL     1      -4.338   1.764  24.932  0.00  0.00    +0.041 A 
ATOM     18  C   UNL     1      -4.961   1.223  24.931  0.00  0.00    +0.013 A 
ATOM     19  C   UNL     1      -4.806   0.414  24.904  0.00  0.00    +0.006 A 
ATOM     20  C   UNL     1      -4.027   0.145  24.879  0.00  0.00    +0.058 A 
ENDROOT
BRANCH  20  21
ATOM     21  C   UNL     1      -3.871  -0.665  24.852  0.00  0.00    +0.024 A 
ATOM     22  C   UNL     1      -3.961  -1.080  24.144  0.00  0.00    +0.003 A 
ATOM     23  C   UNL     1      -3.805  -1.890  24.118  0.00  0.00    +0.021 A 
ATOM     24  C   UNL     1      -3.559  -2.285  24.799  0.00  0.00    +0.099 A 
ATOM     25  N   UNL     1      -3.468  -1.870  25.506  0.00  0.00    -0.242 NA
ATOM     26  C   UNL     1      -3.625  -1.061  25.533  0.00  0.00    +0.099 A 
ENDBRANCH  20  21
BRANCH   9  10
ATOM     10  C   UNL     1      -2.672   2.146  24.904  0.00  0.00    +0.106 C 
BRANCH  10  11
ATOM     11  C   UNL     1      -1.996   2.618  24.929  0.00  0.00    +0.023 A 
ATOM     12  C   UNL     1      -1.660   2.950  25.606  0.00  0.00    +0.004 A 
ATOM     13  C   UNL     1      -0.993   3.378  25.376  0.00  0.00    +0.007 A 
ATOM     14  C   UNL     1      -0.916   3.311  24.557  0.00  0.00    +0.035 A 
ATOM     15  S   UNL     1      -1.536   2.840  24.281  0.00  0.00    -0.089 S 
ENDBRANCH  10  11
ENDBRANCH   9  10
TORSDOF 3
ENDMDL
MODEL 2
REMARK VINA RESULT:     -13.2      1.147      3.645
REMARK  Name = 
REMARK  3 active torsions:
REMARK  status: ('A' for Active; 'I' for Inactive)
REMARK    1  A    between atoms: N_9  and  C_10
REMARK    2  A    between atoms: C_10  and  C_11
REMARK    3  A    between atoms: C_20  and  C_21
REMARK                            x       y       z     vdW  Elec       q    Type
REMARK                         _______ _______ _______ _____ _____    ______ ____
ROOT
ATOM      1  O   UNL     1      -2.304   1.270  24.822  0.00  0.00    -0.267 OA
ATOM      2  C   UNL     1      -2.977   1.747  24.870  0.00  0.00    +0.261 A 
ATOM      3  N   UNL     1      -3.726   1.402  24.892  0.00  0.00    -0.299 N 
ATOM      4  C   UNL     1      -3.904   2.217  24.929  0.00  0.00    +0.110 C 
ATOM      5  C   UNL     1      -4.890   2.169  24.972  0.00  0.00    +0.039 C 
ATOM      6  C   UNL     1      -5.693   2.299  25.014  0.00  0.00    +0.011 C 
ATOM      7  C   UNL     1      -5.258   1.750  24.974  0.00  0.00    +0.054 C 
ATOM      8  C   UNL     1      -5.257   0.831  24.942  0.00  0.00    +0.078 C 
ATOM      9  N   UNL     1      -4.456   0.705  24.901  0.00  0.00    -0.268 NA
ATOM     16  C   UNL     1      -4.880   1.209  24.938  0.00  0.00    +0.074 C 
ATOM     17  C   UNL     1      -4.397   1.878  24.939  0.00  0.00    +0.041 A 
ATOM     18  C   UNL     1      -4.320   2.698  24.965  0.00  0.00    +0.013 A 
ATOM     19  C   UNL     1      -3.571   3.043  24.943  0.00  0.00    +0.006 A 
ATOM     20  C   UNL     1      -2.899   2.567  24.895  0.00  0.00    +0.058 A 
ENDROOT
BRANCH  20  21
ATOM     21  C   UNL     1      -2.150   2.912  24.873  0.00  0.00    +0.024 A 
ATOM     22  C   UNL     1      -1.818   3.223  25.562  0.00  0.00    +0.003 A 
ATOM     23  C   UNL     1      -1.069   3.568  25.539  0.00  0.00    +0.021 A 
ATOM     24  C   UNL     1      -0.651   3.601  24.828  0.00  0.00    +0.099 A 
ATOM     25  N   UNL     1      -0.983   3.291  24.140  0.00  0.00    -0.242 NA
ATOM     26  C   UNL     1      -1.732   2.946  24.162  0.00  0.00    +0.099 A 
ENDBRANCH  20  21
BRANCH   9  10
ATOM     10  C   UNL     1      -3.739   0.301  24.854  0.00  0.00    +0.106 C 
BRANCH  10  11
ATOM     11  C   UNL     1      -3.732  -0.522  24.808  0.00  0.00    +0.023 A 
ATOM     12  C   UNL     1      -3.898  -0.972  24.136  0.00  0.00    +0.004 A 
ATOM     13  C   UNL     1      -3.826  -1.769  24.339  0.00  0.00    +0.007 A 
ATOM     14  C   UNL     1      -3.616  -1.812  25.136  0.00  0.00    +0.035 A 
ATOM     15  S   UNL     1      -3.558  -1.041  25.425  0.00  0.00    -0.089 S 
ENDBRANCH  10  11
ENDBRANCH   9  10
TORSDOF 3
ENDMDL
MODEL 3
REMARK VINA RESULT:     -12.9      1.678      3.662
REMARK  Name = 
REMARK  3 active torsions:
REMARK  status: ('A' for Active; 'I' for Inactive)
REMARK    1  A    between atoms: N_9  and  C_10
REMARK    2  A    between atoms: C_10  and  C_11
REMARK    3  A    between atoms: C_20  and  C_21
REMARK                            x       y       z     vdW  Elec       q    Type
REMARK                         _______ _______ _______ _____ _____    ______ ____
ROOT
ATOM      1  O   UNL     1      -2.887   0.656  24.945  0.00  0.00    -0.267 OA
ATOM      2  C   UNL     1      -3.452   0.114  24.684  0.00  0.00    +0.261 A 
ATOM      3  N   UNL     1      -3.241  -0.675  24.563  0.00  0.00    -0.299 N 
ATOM      4  C   UNL     1      -4.051  -0.675  24.361  0.00  0.00    +0.110 C 
ATOM      5  C   UNL     1      -4.163  -1.628  24.124  0.00  0.00    +0.039 C 
ATOM      6  C   UNL     1      -4.416  -2.368  23.898  0.00  0.00    +0.011 C 
ATOM      7  C   UNL     1      -3.819  -2.067  24.113  0.00  0.00    +0.054 C 
ATOM      8  C   UNL     1      -2.938  -2.259  24.291  0.00  0.00    +0.078 C 
ATOM      9  N   UNL     1      -2.690  -1.519  24.516  0.00  0.00    -0.268 NA
ATOM     16  C   UNL     1      -3.241  -1.818  24.312  0.00  0.00    +0.074 C 
ATOM     17  C   UNL     1      -3.805  -1.217  24.303  0.00  0.00    +0.041 A 
ATOM     18  C   UNL     1      -4.579  -0.972  24.164  0.00  0.00    +0.013 A 
ATOM     19  C   UNL     1      -4.790  -0.184  24.284  0.00  0.00    +0.006 A 
ATOM     20  C   UNL     1      -4.227   0.359  24.544  0.00  0.00    +0.058 A 
ENDROOT
BRANCH  20  21
ATOM     21  C   UNL     1      -4.438   1.148  24.665  0.00  0.00    +0.024 A 
ATOM     22  C   UNL     1      -4.914   1.354  25.307  0.00  0.00    +0.003 A 
ATOM     23  C   UNL     1      -5.125   2.142  25.427  0.00  0.00    +0.021 A 
ATOM     24  C   UNL     1      -4.860   2.725  24.906  0.00  0.00    +0.099 A 
ATOM     25  N   UNL     1      -4.383   2.519  24.265  0.00  0.00    -0.242 NA
ATOM     26  C   UNL     1      -4.173   1.730  24.145  0.00  0.00    +0.099 A 
ENDBRANCH  20  21
BRANCH   9  10
ATOM     10  C   UNL     1      -2.188  -0.918  24.773  0.00  0.00    +0.106 C 
BRANCH  10  11
ATOM     11  C   UNL     1      -1.389  -1.076  24.906  0.00  0.00    +0.023 A 
ATOM     12  C   UNL     1      -1.070  -1.432  25.579  0.00  0.00    +0.004 A 
ATOM     13  C   UNL     1      -0.252  -1.482  25.477  0.00  0.00    +0.007 A 
ATOM     14  C   UNL     1      -0.066  -1.158  24.742  0.00  0.00    +0.035 A 
ATOM     15  S   UNL     1      -0.769  -0.907  24.389  0.00  0.00    -0.089 S 
ENDBRANCH  10  11
ENDBRANCH   9  10
TORSDOF 3
ENDMDL
MODEL 4
REMARK VINA RESULT:     -12.6      1.456      2.365
REMARK  Name = 
REMARK  3 active torsions:
REMARK  status: ('A' for Active; 'I' for Inactive)
REMARK    1  A    between atoms: N_9  and  C_10
REMARK    2  A    between atoms: C_10  and  C_11
REMARK    3  A    between atoms: C_20  and  C_21
REMARK                            x       y       z     vdW  Elec       q    Type
REMARK                         _______ _______ _______ _____ _____    ______ ____
ROOT
ATOM      1  O   UNL     1      -4.385   0.221  25.080  0.00  0.00    -0.267 OA
ATOM      2  C   UNL     1      -3.871   0.419  24.466  0.00  0.00    +0.261 A 
ATOM      3  N   UNL     1      -3.796   1.206  24.228  0.00  0.00    -0.299 N 
ATOM      4  C   UNL     1      -3.267   0.814  23.713  0.00  0.00    +0.110 C 
ATOM      5  C   UNL     1      -2.938   1.587  23.194  0.00  0.00    +0.039 C 
ATOM      6  C   UNL     1      -2.573   2.108  22.685  0.00  0.00    +0.011 C 
ATOM      7  C   UNL     1      -3.043   2.135  23.205  0.00  0.00    +0.054 C 
ATOM      8  C   UNL     1      -3.566   2.727  23.675  0.00  0.00    +0.078 C 
ATOM      9  N   UNL     1      -3.928   2.205  24.181  0.00  0.00    -0.268 NA
ATOM     16  C   UNL     1      -3.487   2.198  23.690  0.00  0.00    +0.074 C 
ATOM     17  C   UNL     1      -3.282   1.404  23.615  0.00  0.00    +0.041 A 
ATOM     18  C   UNL     1      -2.843   0.816  23.238  0.00  0.00    +0.013 A 
ATOM     19  C   UNL     1      -2.918   0.030  23.475  0.00  0.00    +0.006 A 
ATOM     20  C   UNL     1      -3.432  -0.169  24.089  0.00  0.00    +0.058 A 
ENDROOT
BRANCH  20  21
ATOM     21  C   UNL     1      -3.507  -0.956  24.326  0.00  0.00    +0.024 A 
ATOM     22  C   UNL     1      -4.012  -1.464  23.917  0.00  0.00    +0.003 A 
ATOM     23  C   UNL     1      -4.088  -2.251  24.154  0.00  0.00    +0.021 A 
ATOM     24  C   UNL     1      -3.657  -2.529  24.801  0.00  0.00    +0.099 A 
ATOM     25  N   UNL     1      -3.152  -2.021  25.210  0.00  0.00    -0.242 NA
ATOM     26  C   UNL     1      -3.077  -1.235  24.973  0.00  0.00    +0.099 A 
ENDBRANCH  20  21
BRANCH   9  10
ATOM     10  C   UNL     1      -4.417   1.926  24.783  0.00  0.00    +0.106 C 
BRANCH  10  11
ATOM     11  C   UNL     1      -4.912   2.448  25.187  0.00  0.00    +0.023 A 
ATOM     12  C   UNL     1      -5.735   2.482  25.125  0.00  0.00    +0.004 A 
ATOM     13  C   UNL     1      -6.002   3.083  25.624  0.00  0.00    +0.007 A 
ATOM     14  C   UNL     1      -5.346   3.419  25.994  0.00  0.00    +0.035 A 
ATOM     15  S   UNL     1      -4.672   3.027  25.723  0.00  0.00    -0.089 S 
ENDBRANCH  10  11
ENDBRANCH   9  10
TORSDOF 3
ENDMDL
MODEL 5
REMARK VINA RESULT:     -12.1      2.287      3.292
REMARK  Name = 
REMARK  3 active torsions:
REMARK  status: ('A' for Active; 'I' for Inactive)
REMARK    1  A    between atoms: N_9  and  C_10
REMARK    2  A    between atoms: C_10  and  C_11
REMARK    3  A    between atoms: C_20  and  C_21
REMARK                            x       y       z     vdW  Elec       q    Type
REMARK                         _______ _______ _______ _____ _____    ______ ____
ROOT
ATOM      1  O   UNL     1      -3.257   1.780  24.944  0.00  0.00    -0.267 OA
ATOM      2  C   UNL     1      -3.102   2.583  25.062  0.00  0.00    +0.261 A 
ATOM      3  N   UNL     1      -2.329   2.865  25.014  0.00  0.00    -0.299 N 
ATOM      4  C   UNL     1      -2.760   3.559  25.187  0.00  0.00    +0.110 C 
ATOM      5  C   UNL     1      -2.020   4.213  25.207  0.00  0.00    +0.039 C 
ATOM      6  C   UNL     1      -1.533   4.864  25.258  0.00  0.00    +0.011 C 
ATOM      7  C   UNL     1      -1.469   4.177  25.132  0.00  0.00    +0.054 C 
ATOM      8  C   UNL     1      -0.839   3.535  24.944  0.00  0.00    +0.078 C 
ATOM      9  N   UNL     1      -1.327   2.888  24.894  0.00  0.00    -0.268 NA
ATOM     16  C   UNL     1      -1.369   3.536  25.010  0.00  0.00    +0.074 C 
ATOM     17  C   UNL     1      -2.174   3.666  25.132  0.00  0.00    +0.041 A 
ATOM     18  C   UNL     1      -2.792   4.185  25.299  0.00  0.00    +0.013 A 
ATOM     19  C   UNL     1      -3.566   3.903  25.347  0.00  0.00    +0.006 A 
ATOM     20  C   UNL     1      -3.721   3.102  25.228  0.00  0.00    +0.058 A 
ENDROOT
BRANCH  20  21
ATOM     21  C   UNL     1      -4.495   2.820  25.276  0.00  0.00    +0.024 A 
ATOM     22  C   UNL     1      -4.860   2.501  24.608  0.00  0.00    +0.003 A 
ATOM     23  C   UNL     1      -5.634   2.219  24.656  0.00  0.00    +0.021 A 
ATOM     24  C   UNL     1      -6.043   2.256  25.372  0.00  0.00    +0.099 A 
ATOM     25  N   UNL     1      -5.678   2.574  26.040  0.00  0.00    -0.242 NA
ATOM     26  C   UNL     1      -4.904   2.856  25.992  0.00  0.00    +0.099 A 
ENDBRANCH  20  21
BRANCH   9  10
ATOM     10  C   UNL     1      -1.564   2.105  24.789  0.00  0.00    +0.106 C 
BRANCH  10  11
ATOM     11  C   UNL     1      -1.009   1.531  24.581  0.00  0.00    +0.023 A 
ATOM     12  C   UNL     1      -0.737   1.372  23.818  0.00  0.00    +0.004 A 
ATOM     13  C   UNL     1      -0.189   0.757  23.866  0.00  0.00    +0.007 A 
ATOM     14  C   UNL     1      -0.122   0.536  24.658  0.00  0.00    +0.035 A 
ATOM     15  S   UNL     1      -0.629   1.014  25.100  0.00  0.00    -0.089 S 
ENDBRANCH  10  11
ENDBRANCH   9  10
TORSDOF 3
ENDMDL
