MODEL 1
REMARK VINA RESULT:     -12.1      0.000      0.000
REMARK  Name = 
REMARK  4 active torsions:
REMARK  status: ('A' for Active; 'I' for Inactive)
REMARK    1  A    between atoms: C_4  and  C_13
REMARK    2  A    between atoms: N_5  and  C_7
REMARK    3  A    between atoms: C_15  and  C_16
REMARK    4  A    between atoms: C_16  and  C_17
REMARK                            x       y       z     vdW  Elec       q    Type
REMARK                         _______ _______ _______ _____ _____    ______ ____
ROOT
ATOM     13  C   UNL     1      -3.183   1.709  24.714  0.00  0.00    +0.251 A 
ATOM     14  N   UNL     1      -3.406   1.121  25.249  0.00  0.00    -0.193 NA
ATOM     15  C   UNL     1      -3.882   0.580  24.848  0.00  0.00    +0.185 A 
ATOM     25  N   UNL     1      -3.954   0.832  24.066  0.00  0.00    -0.060 NA
ATOM     26  O   UNL     1      -3.522   1.530  23.983  0.00  0.00    -0.336 OA
ENDROOT
BRANCH  13   4
ATOM      1  O   UNL     1      -2.315   4.378  25.458  0.00  0.00    -0.222 OA
ATOM      2  C   UNL     1      -2.306   3.588  25.223  0.00  0.00    +0.170 C 
ATOM      3  C   UNL     1      -2.968   3.106  25.117  0.00  0.00    +0.060 C 
ATOM      4  C   UNL     1      -2.706   2.360  24.881  0.00  0.00    +0.140 C 
ATOM      5  N   UNL     1      -1.882   2.381  24.840  0.00  0.00    -0.265 NA
ATOM      6  C   UNL     1      -1.635   3.140  25.052  0.00  0.00    +0.106 C 
BRANCH   5   7
ATOM      7  C   UNL     1      -1.391   1.754  24.626  0.00  0.00    +0.058 C 
ATOM      8  C   UNL     1      -1.059   1.272  25.208  0.00  0.00    +0.016 C 
ATOM      9  C   UNL     1      -0.568   0.645  24.994  0.00  0.00    +0.001 C 
ATOM     10  C   UNL     1      -0.408   0.499  24.198  0.00  0.00    +0.000 C 
ATOM     11  C   UNL     1      -0.739   0.981  23.615  0.00  0.00    +0.001 C 
ATOM     12  C   UNL     1      -1.230   1.608  23.830  0.00  0.00    +0.016 C 
ENDBRANCH   5   7
ENDBRANCH  13   4
BRANCH  15  16
ATOM     16  C   UNL     1      -4.227  -0.096  25.173  0.00  0.00    +0.096 C 
BRANCH  16  17
ATOM     17  C   UNL     1      -4.008  -0.843  24.899  0.00  0.00    -0.004 A 
ATOM     18  C   UNL     1      -4.140  -1.049  24.112  0.00  0.00    -0.001 A 
ATOM     19  C   UNL     1      -3.922  -1.796  23.839  0.00  0.00    +0.029 A 
ATOM     20  C   UNL     1      -3.570  -2.336  24.353  0.00  0.00    +0.141 A 
ATOM     21  F   UNL     1      -3.351  -3.084  24.081  0.00  0.00    -0.204 F 
ATOM     22  C   UNL     1      -3.438  -2.130  25.142  0.00  0.00    +0.041 A 
ATOM     23  C   UNL     1      -3.657  -1.384  25.414  0.00  0.00    +0.056 A 
ATOM     24 CL   UNL     1      -3.524  -1.177  26.202  0.00  0.00    -0.082 Cl
ENDBRANCH  16  17
ENDBRANCH  15  16
TORSDOF 4
ENDMDL
MODEL 2
REMARK VINA RESULT:     -12.1      2.246      3.753
REMARK  Name = 
REMARK  4 active torsions:
REMARK  status: ('A' for Active; 'I' for Inactive)
REMARK    1  A    between atoms: C_4  and  C_13
REMARK    2  A    between atoms: N_5  and  C_7
REMARK    3  A    between atoms: C_15  and  C_16
REMARK    4  A    between atoms: C_16  and  C_17
REMARK                            x       y       z     vdW  Elec       q    Type
REMARK                         _______ _______ _______ _____ _____    ______ ____
ROOT
ATOM     13  C   UNL     1      -2.272   1.023  23.972  0.00  0.00    +0.251 A 
ATOM     14  N   UNL     1      -2.462   1.686  24.425  0.00  0.00    -0.193 NA
ATOM     15  C   UNL     1      -3.082   2.081  24.051  0.00  0.00    +0.185 A 
ATOM     25  N   UNL     1      -3.277   1.662  23.368  0.00  0.00    -0.060 NA
ATOM     26  O   UNL     1      -2.777   1.009  23.318  0.00  0.00    -0.336 OA
ENDROOT
BRANCH  13   4
ATOM      1  O   UNL     1       0.320  -0.265  24.207  0.00  0.00    -0.222 OA
ATOM      2  C   UNL     1      -0.491  -0.121  24.250  0.00  0.00    +0.170 C 
ATOM      3  C   UNL     1      -0.876   0.563  23.994  0.00  0.00    +0.060 C 
ATOM      4  C   UNL     1      -1.683   0.472  24.141  0.00  0.00    +0.140 C 
ATOM      5  N   UNL     1      -1.797  -0.269  24.488  0.00  0.00    -0.265 NA
ATOM      6  C   UNL     1      -1.060  -0.634  24.555  0.00  0.00    +0.106 C 
BRANCH   5   7
ATOM      7  C   UNL     1      -2.519  -0.587  24.725  0.00  0.00    +0.058 C 
ATOM      8  C   UNL     1      -2.763  -0.516  25.510  0.00  0.00    +0.016 C 
ATOM      9  C   UNL     1      -3.486  -0.835  25.748  0.00  0.00    +0.001 C 
ATOM     10  C   UNL     1      -3.965  -1.225  25.202  0.00  0.00    +0.000 C 
ATOM     11  C   UNL     1      -3.721  -1.296  24.416  0.00  0.00    +0.001 C 
ATOM     12  C   UNL     1      -2.999  -0.977  24.178  0.00  0.00    +0.016 C 
ENDBRANCH   5   7
ENDBRANCH  13   4
BRANCH  15  16
ATOM     16  C   UNL     1      -3.445   2.773  24.316  0.00  0.00    +0.096 C 
BRANCH  16  17
ATOM     17  C   UNL     1      -4.149   2.733  24.744  0.00  0.00    -0.004 A 
ATOM     18  C   UNL     1      -4.773   2.271  24.468  0.00  0.00    -0.001 A 
ATOM     19  C   UNL     1      -5.478   2.230  24.896  0.00  0.00    +0.029 A 
ATOM     20  C   UNL     1      -5.556   2.652  25.601  0.00  0.00    +0.141 A 
ATOM     21  F   UNL     1      -6.260   2.613  26.029  0.00  0.00    -0.204 F 
ATOM     22  C   UNL     1      -4.931   3.115  25.877  0.00  0.00    +0.041 A 
ATOM     23  C   UNL     1      -4.228   3.155  25.449  0.00  0.00    +0.056 A 
ATOM     24 CL   UNL     1      -3.603   3.617  25.725  0.00  0.00    -0.082 Cl
ENDBRANCH  16  17
ENDBRANCH  15  16
TORSDOF 4
ENDMDL
MODEL 3
REMARK VINA RESULT:     -12.0      1.472      2.137
REMARK  Name = 
REMARK  4 active torsions:
REMARK  status: ('A' for Active; 'I' for Inactive)
REMARK    1  A    between atoms: C_4  and  C_13
REMARK    2  A    between atoms: N_5  and  C_7
REMARK    3  A    between atoms: C_15  and  C_16
REMARK    4  A    between atoms: C_16  and  C_17
REMARK                            x       y       z     vdW  Elec       q    Type
REMARK                         _______ _______ _______ _____ _____    ______ ____
ROOT
ATOM     13  C   UNL     1      -3.841   1.999  24.724  0.00  0.00    +0.251 A 
ATOM     14  N   UNL     1      -3.570   1.322  25.110  0.00  0.00    -0.193 NA
ATOM     15  C   UNL     1      -3.161   0.863  24.560  0.00  0.00    +0.185 A 
ATOM     25  N   UNL     1      -3.179   1.255  23.835  0.00  0.00    -0.060 NA
ATOM     26  O   UNL     1      -3.600   1.957  23.936  0.00  0.00    -0.336 OA
ENDROOT
BRANCH  13   4
ATOM      1  O   UNL     1      -6.056   3.571  25.753  0.00  0.00    -0.222 OA
ATOM      2  C   UNL     1      -5.296   3.332  25.539  0.00  0.00    +0.170 C 
ATOM      3  C   UNL     1      -5.095   2.616  25.181  0.00  0.00    +0.060 C 
ATOM      4  C   UNL     1      -4.277   2.610  25.066  0.00  0.00    +0.140 C 
ATOM      5  N   UNL     1      -3.974   3.321  25.353  0.00  0.00    -0.265 NA
ATOM      6  C   UNL     1      -4.603   3.768  25.645  0.00  0.00    +0.106 C 
BRANCH   5   7
ATOM      7  C   UNL     1      -3.181   3.547  25.348  0.00  0.00    +0.058 C 
ATOM      8  C   UNL     1      -2.701   3.382  25.999  0.00  0.00    +0.016 C 
ATOM      9  C   UNL     1      -1.908   3.608  25.995  0.00  0.00    +0.001 C 
ATOM     10  C   UNL     1      -1.593   3.998  25.340  0.00  0.00    +0.000 C 
ATOM     11  C   UNL     1      -2.072   4.163  24.688  0.00  0.00    +0.001 C 
ATOM     12  C   UNL     1      -2.866   3.937  24.693  0.00  0.00    +0.016 C 
ENDBRANCH   5   7
ENDBRANCH  13   4
BRANCH  15  16
ATOM     16  C   UNL     1      -2.797   0.137  24.709  0.00  0.00    +0.096 C 
BRANCH  16  17
ATOM     17  C   UNL     1      -3.203  -0.566  24.563  0.00  0.00    -0.004 A 
ATOM     18  C   UNL     1      -3.695  -0.629  23.905  0.00  0.00    -0.001 A 
ATOM     19  C   UNL     1      -4.101  -1.332  23.759  0.00  0.00    +0.029 A 
ATOM     20  C   UNL     1      -4.014  -1.972  24.272  0.00  0.00    +0.141 A 
ATOM     21  F   UNL     1      -4.419  -2.676  24.127  0.00  0.00    -0.204 F 
ATOM     22  C   UNL     1      -3.520  -1.909  24.931  0.00  0.00    +0.041 A 
ATOM     23  C   UNL     1      -3.115  -1.206  25.076  0.00  0.00    +0.056 A 
ATOM     24 CL   UNL     1      -2.622  -1.143  25.735  0.00  0.00    -0.082 Cl
ENDBRANCH  16  17
ENDBRANCH  15  16
TORSDOF 4
ENDMDL
MODEL 4
REMARK VINA RESULT:     -11.9      2.446      4.539
REMARK  Name = 
REMARK  4 active torsions:
REMARK  status: ('A' for Active; 'I' for Inactive)
REMARK    1  A    between atoms: C_4  and  C_13
REMARK    2  A    between atoms: N_5  and  C_7
REMARK    3  A    between atoms: C_15  and  C_16
REMARK    4  A    between atoms: C_16  and  C_17
REMARK                            x       y       z     vdW  Elec       q    Type
REMARK                         _______ _______ _______ _____ _____    ______ ____
ROOT
ATOM     13  C   UNL     1      -3.700   1.819  24.575  0.00  0.00    +0.251 A 
ATOM     14  N   UNL     1      -3.130   2.058  25.122  0.00  0.00    -0.193 NA
ATOM     15  C   UNL     1      -2.428   2.200  24.712  0.00  0.00    +0.185 A 
ATOM     25  N   UNL     1      -2.563   2.048  23.913  0.00  0.00    -0.060 NA
ATOM     26  O   UNL     1      -3.349   1.813  23.828  0.00  0.00    -0.336 OA
ENDROOT
BRANCH  13   4
ATOM      1  O   UNL     1      -6.545   2.022  25.121  0.00  0.00    -0.222 OA
ATOM      2  C   UNL     1      -5.790   1.713  24.996  0.00  0.00    +0.170 C 
ATOM      3  C   UNL     1      -5.110   2.149  24.828  0.00  0.00    +0.060 C 
ATOM      4  C   UNL     1      -4.482   1.620  24.745  0.00  0.00    +0.140 C 
ATOM      5  N   UNL     1      -4.774   0.857  24.862  0.00  0.00    -0.265 NA
ATOM      6  C   UNL     1      -5.583   0.915  25.017  0.00  0.00    +0.106 C 
BRANCH   5   7
ATOM      7  C   UNL     1      -4.336   0.160  24.829  0.00  0.00    +0.058 C 
ATOM      8  C   UNL     1      -4.238  -0.233  24.110  0.00  0.00    +0.016 C 
ATOM      9  C   UNL     1      -3.799  -0.931  24.077  0.00  0.00    +0.001 C 
ATOM     10  C   UNL     1      -3.459  -1.237  24.763  0.00  0.00    +0.000 C 
ATOM     11  C   UNL     1      -3.557  -0.845  25.483  0.00  0.00    +0.001 C 
ATOM     12  C   UNL     1      -3.996  -0.147  25.515  0.00  0.00    +0.016 C 
ENDBRANCH   5   7
ENDBRANCH  13   4
BRANCH  15  16
ATOM     16  C   UNL     1      -1.716   2.450  25.044  0.00  0.00    +0.096 C 
BRANCH  16  17
ATOM     17  C   UNL     1      -1.527   3.253  25.060  0.00  0.00    -0.004 A 
ATOM     18  C   UNL     1      -2.081   3.802  25.328  0.00  0.00    -0.001 A 
ATOM     19  C   UNL     1      -1.892   4.605  25.344  0.00  0.00    +0.029 A 
ATOM     20  C   UNL     1      -1.149   4.858  25.092  0.00  0.00    +0.141 A 
ATOM     21  F   UNL     1      -0.959   5.661  25.108  0.00  0.00    -0.204 F 
ATOM     22  C   UNL     1      -0.594   4.309  24.825  0.00  0.00    +0.041 A 
ATOM     23  C   UNL     1      -0.783   3.507  24.809  0.00  0.00    +0.056 A 
ATOM     24 CL   UNL     1      -0.228   2.958  24.541  0.00  0.00    -0.082 Cl
ENDBRANCH  16  17
ENDBRANCH  15  16
TORSDOF 4
ENDMDL
MODEL 5
REMARK VINA RESULT:     -11.8      1.233      2.357
REMARK  Name = 
REMARK  4 active torsions:
REMARK  status: ('A' for Active; 'I' for Inactive)
REMARK    1  A    between atoms: C_4  and  C_13
REMARK    2  A    between atoms: N_5  and  C_7
REMARK    3  A    between atoms: C_15  and  C_16
REMARK    4  A    between atoms: C_16  and  C_17
REMARK                            x       y       z     vdW  Elec       q    Type
REMARK                         _______ _______ _______ _____ _____    ______ ____
ROOT
ATOM     13  C   UNL     1      -1.949   2.243  24.514  0.00  0.00    +0.251 A 
ATOM     14  N   UNL     1      -1.993   1.581  25.005  0.00  0.00    -0.193 NA
ATOM     15  C   UNL     1      -2.002   0.910  24.525  0.00  0.00    +0.185 A 
ATOM     25  N   UNL     1      -1.964   1.156  23.739  0.00  0.00    -0.060 NA
ATOM     26  O   UNL     1      -1.932   1.980  23.732  0.00  0.00    -0.336 OA
ENDROOT
BRANCH  13   4
ATOM      1  O   UNL     1      -0.977   4.854  25.335  0.00  0.00    -0.222 OA
ATOM      2  C   UNL     1      -1.480   4.230  25.139  0.00  0.00    +0.170 C 
ATOM      3  C   UNL     1      -1.246   3.475  24.902  0.00  0.00    +0.060 C 
ATOM      4  C   UNL     1      -1.927   3.030  24.761  0.00  0.00    +0.140 C 
ATOM      5  N   UNL     1      -2.581   3.510  24.911  0.00  0.00    -0.265 NA
ATOM      6  C   UNL     1      -2.304   4.252  25.144  0.00  0.00    +0.106 C 
BRANCH   5   7
ATOM      7  C   UNL     1      -3.372   3.288  24.840  0.00  0.00    +0.058 C 
ATOM      8  C   UNL     1      -3.744   3.317  24.104  0.00  0.00    +0.016 C 
ATOM      9  C   UNL     1      -4.536   3.095  24.033  0.00  0.00    +0.001 C 
ATOM     10  C   UNL     1      -4.955   2.844  24.697  0.00  0.00    +0.000 C 
ATOM     11  C   UNL     1      -4.583   2.814  25.433  0.00  0.00    +0.001 C 
ATOM     12  C   UNL     1      -3.792   3.036  25.504  0.00  0.00    +0.016 C 
ENDBRANCH   5   7
ENDBRANCH  13   4
BRANCH  15  16
ATOM     16  C   UNL     1      -2.042   0.128  24.788  0.00  0.00    +0.096 C 
BRANCH  16  17
ATOM     17  C   UNL     1      -2.723  -0.318  24.653  0.00  0.00    -0.004 A 
ATOM     18  C   UNL     1      -3.095  -0.291  23.918  0.00  0.00    -0.001 A 
ATOM     19  C   UNL     1      -3.775  -0.737  23.783  0.00  0.00    +0.029 A 
ATOM     20  C   UNL     1      -4.084  -1.210  24.385  0.00  0.00    +0.141 A 
ATOM     21  F   UNL     1      -4.764  -1.657  24.251  0.00  0.00    -0.204 F 
ATOM     22  C   UNL     1      -3.711  -1.237  25.121  0.00  0.00    +0.041 A 
ATOM     23  C   UNL     1      -3.031  -0.791  25.255  0.00  0.00    +0.056 A 
ATOM     24 CL   UNL     1      -2.658  -0.818  25.990  0.00  0.00    -0.082 Cl
ENDBRANCH  16  17
ENDBRANCH  15  16
TORSDOF 4
ENDMDL
MODEL 6
REMARK VINA RESULT:     -11.8      2.218      4.078
REMARK  Name = 
REMARK  4 active torsions:
REMARK  status: ('A' for Active; 'I' for Inactive)
REMARK    1  A    between atoms: C_4  and  C_13
REMARK    2  A    between atoms: N_5  and  C_7
REMARK    3  A    between atoms: C_15  and  C_16
REMARK    4  A    between atoms: C_16  and  C_17
REMARK                            x       y       z     vdW  Elec       q    Type
REMARK                         _______ _______ _______ _____ _____    ______ ____
ROOT
ATOM     13  C   UNL     1      -3.595   0.458  23.981  0.00  0.00    +0.251 A 
ATOM     14  N   UNL     1      -3.991   1.015  24.443  0.00  0.00    -0.193 NA
ATOM     15  C   UNL     1      -3.866   1.758  24.109  0.00  0.00    +0.185 A 
ATOM     25  N   UNL     1      -3.393   1.662  23.440  0.00  0.00    -0.060 NA
ATOM     26  O   UNL     1      -3.225   0.858  23.361  0.00  0.00    -0.336 OA
ENDROOT
BRANCH  13   4
ATOM      1  O   UNL     1      -4.329  -2.351  24.052  0.00  0.00    -0.222 OA
ATOM      2  C   UNL     1      -3.909  -1.647  24.147  0.00  0.00    +0.170 C 
ATOM      3  C   UNL     1      -4.162  -0.897  23.913  0.00  0.00    +0.060 C 
ATOM      4  C   UNL     1      -3.572  -0.355  24.114  0.00  0.00    +0.140 C 
ATOM      5  N   UNL     1      -2.956  -0.771  24.472  0.00  0.00    -0.265 NA
ATOM      6  C   UNL     1      -3.165  -1.570  24.492  0.00  0.00    +0.106 C 
BRANCH   5   7
ATOM      7  C   UNL     1      -2.254  -0.447  24.760  0.00  0.00    +0.058 C 
ATOM      8  C   UNL     1      -2.190  -0.244  25.557  0.00  0.00    +0.016 C 
ATOM      9  C   UNL     1      -1.488   0.081  25.845  0.00  0.00    +0.001 C 
ATOM     10  C   UNL     1      -0.851   0.203  25.336  0.00  0.00    +0.000 C 
ATOM     11  C   UNL     1      -0.915   0.000  24.538  0.00  0.00    +0.001 C 
ATOM     12  C   UNL     1      -1.616  -0.325  24.251  0.00  0.00    +0.016 C 
ENDBRANCH   5   7
ENDBRANCH  13   4
BRANCH  15  16
ATOM     16  C   UNL     1      -4.162   2.474  24.394  0.00  0.00    +0.096 C 
BRANCH  16  17
ATOM     17  C   UNL     1      -3.668   2.991  24.806  0.00  0.00    -0.004 A 
ATOM     18  C   UNL     1      -2.916   3.162  24.515  0.00  0.00    -0.001 A 
ATOM     19  C   UNL     1      -2.422   3.679  24.927  0.00  0.00    +0.029 A 
ATOM     20  C   UNL     1      -2.681   4.023  25.630  0.00  0.00    +0.141 A 
ATOM     21  F   UNL     1      -2.188   4.540  26.043  0.00  0.00    -0.204 F 
ATOM     22  C   UNL     1      -3.434   3.851  25.921  0.00  0.00    +0.041 A 
ATOM     23  C   UNL     1      -3.927   3.335  25.509  0.00  0.00    +0.056 A 
ATOM     24 CL   UNL     1      -4.680   3.163  25.800  0.00  0.00    -0.082 Cl
ENDBRANCH  16  17
ENDBRANCH  15  16
TORSDOF 4
ENDMDL
MODEL 7
REMARK VINA RESULT:     -11.8      2.165      3.116
REMARK  Name = 
REMARK  4 active torsions:
REMARK  status: ('A' for Active; 'I' for Inactive)
REMARK    1  A    between atoms: C_4  and  C_13
REMARK    2  A    between atoms: N_5  and  C_7
REMARK    3  A    between atoms: C_15  and  C_16
REMARK    4  A    between atoms: C_16  and  C_17
REMARK                            x       y       z     vdW  Elec       q    Type
REMARK                         _______ _______ _______ _____ _____    ______ ____
ROOT
ATOM     13  C   UNL     1      -1.701   1.931  23.919  0.00  0.00    +0.251 A 
ATOM     14  N   UNL     1      -2.242   1.391  24.228  0.00  0.00    -0.193 NA
ATOM     15  C   UNL     1      -2.949   1.472  23.809  0.00  0.00    +0.185 A 
ATOM     25  N   UNL     1      -2.844   2.061  23.242  0.00  0.00    -0.060 NA
ATOM     26  O   UNL     1      -2.073   2.346  23.310  0.00  0.00    -0.336 OA
ENDROOT
BRANCH  13   4
ATOM      1  O   UNL     1       1.161   1.591  24.276  0.00  0.00    -0.222 OA
ATOM      2  C   UNL     1       0.392   1.883  24.338  0.00  0.00    +0.170 C 
ATOM      3  C   UNL     1      -0.274   1.581  23.954  0.00  0.00    +0.060 C 
ATOM      4  C   UNL     1      -0.924   2.039  24.174  0.00  0.00    +0.140 C 
ATOM      5  N   UNL     1      -0.661   2.624  24.693  0.00  0.00    -0.265 NA
ATOM      6  C   UNL     1       0.153   2.527  24.794  0.00  0.00    +0.106 C 
BRANCH   5   7
ATOM      7  C   UNL     1      -1.127   3.203  25.049  0.00  0.00    +0.058 C 
ATOM      8  C   UNL     1      -1.465   3.065  25.788  0.00  0.00    +0.016 C 
ATOM      9  C   UNL     1      -1.932   3.644  26.144  0.00  0.00    +0.001 C 
ATOM     10  C   UNL     1      -2.062   4.362  25.760  0.00  0.00    +0.000 C 
ATOM     11  C   UNL     1      -1.724   4.502  25.020  0.00  0.00    +0.001 C 
ATOM     12  C   UNL     1      -1.257   3.922  24.665  0.00  0.00    +0.016 C 
ENDBRANCH   5   7
ENDBRANCH  13   4
BRANCH  15  16
ATOM     16  C   UNL     1      -3.639   1.038  23.936  0.00  0.00    +0.096 C 
BRANCH  16  17
ATOM     17  C   UNL     1      -4.253   1.360  24.383  0.00  0.00    -0.004 A 
ATOM     18  C   UNL     1      -4.529   2.119  24.218  0.00  0.00    -0.001 A 
ATOM     19  C   UNL     1      -5.143   2.441  24.666  0.00  0.00    +0.029 A 
ATOM     20  C   UNL     1      -5.480   2.003  25.278  0.00  0.00    +0.141 A 
ATOM     21  F   UNL     1      -6.094   2.325  25.726  0.00  0.00    -0.204 F 
ATOM     22  C   UNL     1      -5.203   1.243  25.443  0.00  0.00    +0.041 A 
ATOM     23  C   UNL     1      -4.590   0.922  24.996  0.00  0.00    +0.056 A 
ATOM     24 CL   UNL     1      -4.314   0.162  25.161  0.00  0.00    -0.082 Cl
ENDBRANCH  16  17
ENDBRANCH  15  16
TORSDOF 4
ENDMDL
