MODEL 1
REMARK VINA RESULT:      -6.4      0.000      0.000
REMARK  Name = 
REMARK  7 active torsions:
REMARK  status: ('A' for Active; 'I' for Inactive)
REMARK    1  A    between atoms: O_2  and  C_3
REMARK    2  A    between atoms: C_5  and  N_11
REMARK    3  A    between atoms: C_7  and  O_8
REMARK    4  A    between atoms: C_16  and  N_22
REMARK    5  A    between atoms: C_23  and  C_25
REMARK    6  A    between atoms: C_28  and  S_29
REMARK    7  A    between atoms: C_32  and  O_33
REMARK                            x       y       z     vdW  Elec       q    Type
REMARK                         _______ _______ _______ _____ _____    ______ ____
ROOT
ATOM     11  N   UNL     1      -3.385   2.995  25.222  0.00  0.00    -0.191 N 
ATOM     12  C   UNL     1      -3.058   2.536  24.619  0.00  0.00    +0.254 C 
ATOM     13  O   UNL     1      -3.478   2.110  24.051  0.00  0.00    -0.272 OA
ATOM     14  C   UNL     1      -2.237   2.579  24.684  0.00  0.00    +0.156 C 
ATOM     15  C   UNL     1      -1.629   2.239  24.241  0.00  0.00    +0.051 C 
ATOM     16  C   UNL     1      -0.843   2.383  24.440  0.00  0.00    +0.099 C 
ATOM     17  C   UNL     1      -0.663   2.868  25.083  0.00  0.00    +0.043 C 
ATOM     18  C   UNL     1      -1.269   3.209  25.526  0.00  0.00    +0.097 C 
ATOM     19  N   UNL     1      -2.057   3.064  25.327  0.00  0.00    -0.257 N 
ATOM     20  C   UNL     1      -2.767   3.321  25.659  0.00  0.00    +0.317 C 
ATOM     21  O   UNL     1      -2.844   3.817  26.314  0.00  0.00    -0.252 OA
ENDROOT
BRANCH  11   5
ATOM      3  C   UNL     1      -5.443   2.618  25.846  0.00  0.00    +0.143 A 
ATOM      4  C   UNL     1      -4.638   2.505  25.706  0.00  0.00    +0.052 A 
ATOM      5  C   UNL     1      -4.191   3.108  25.362  0.00  0.00    +0.068 A 
ATOM      6  C   UNL     1      -4.549   3.823  25.160  0.00  0.00    +0.052 A 
ATOM      7  C   UNL     1      -5.354   3.935  25.301  0.00  0.00    +0.143 A 
ATOM     10  C   UNL     1      -5.801   3.333  25.643  0.00  0.00    +0.074 A 
BRANCH   3   2
ATOM      1  C   UNL     1      -6.356   1.527  25.715  0.00  0.00    +0.252 C 
ATOM      2  O   UNL     1      -5.890   2.016  26.189  0.00  0.00    -0.471 OA
ENDBRANCH   3   2
BRANCH   7   8
ATOM      8  O   UNL     1      -5.711   4.651  25.098  0.00  0.00    -0.471 OA
ATOM      9  C   UNL     1      -6.083   5.105  25.678  0.00  0.00    +0.252 C 
ENDBRANCH   7   8
ENDBRANCH  11   5
BRANCH  16  22
ATOM     22  N   UNL     1      -0.235   2.043  23.998  0.00  0.00    -0.203 NA
ATOM     23  C   UNL     1       0.111   1.338  24.247  0.00  0.00    +0.268 C 
ATOM     24  O   UNL     1      -0.150   0.972  24.940  0.00  0.00    -0.268 OA
BRANCH  23  25
ATOM     25  C   UNL     1       0.719   0.997  23.806  0.00  0.00    +0.089 A 
ATOM     26  C   UNL     1       1.409   1.423  23.654  0.00  0.00    +0.008 A 
ATOM     27  C   UNL     1       2.016   1.081  23.212  0.00  0.00    +0.006 A 
ATOM     28  C   UNL     1       1.934   0.314  22.922  0.00  0.00    +0.028 A 
ATOM     31  C   UNL     1       1.244  -0.113  23.074  0.00  0.00    +0.043 A 
ATOM     32  C   UNL     1       0.637   0.228  23.516  0.00  0.00    +0.144 A 
BRANCH  28  29
ATOM     29  S   UNL     1       2.541  -0.028  22.480  0.00  0.00    -0.113 S 
ATOM     30  C   UNL     1       3.284   0.328  22.456  0.00  0.00    +0.074 C 
ENDBRANCH  28  29
BRANCH  32  33
ATOM     33  O   UNL     1      -0.053  -0.199  23.668  0.00  0.00    -0.471 OA
ATOM     34  C   UNL     1      -0.049  -1.022  23.612  0.00  0.00    +0.252 C 
ENDBRANCH  32  33
ENDBRANCH  23  25
ENDBRANCH  16  22
TORSDOF 7
ENDMDL
MODEL 2
REMARK VINA RESULT:      -6.2      2.376      6.685
REMARK  Name = 
REMARK  7 active torsions:
REMARK  status: ('A' for Active; 'I' for Inactive)
REMARK    1  A    between atoms: O_2  and  C_3
REMARK    2  A    between atoms: C_5  and  N_11
REMARK    3  A    between atoms: C_7  and  O_8
REMARK    4  A    between atoms: C_16  and  N_22
REMARK    5  A    between atoms: C_23  and  C_25
REMARK    6  A    between atoms: C_28  and  S_29
REMARK    7  A    between atoms: C_32  and  O_33
REMARK                            x       y       z     vdW  Elec       q    Type
REMARK                         _______ _______ _______ _____ _____    ______ ____
ROOT
ATOM     11  N   UNL     1       0.349   0.153  23.599  0.00  0.00    -0.191 N 
ATOM     12  C   UNL     1      -0.213   0.758  23.629  0.00  0.00    +0.254 C 
ATOM     13  O   UNL     1      -0.162   1.486  23.247  0.00  0.00    -0.272 OA
ATOM     14  C   UNL     1      -0.834   0.504  24.109  0.00  0.00    +0.156 C 
ATOM     15  C   UNL     1      -1.539   0.867  24.338  0.00  0.00    +0.051 C 
ATOM     16  C   UNL     1      -2.065   0.470  24.832  0.00  0.00    +0.099 C 
ATOM     17  C   UNL     1      -1.888  -0.290  25.099  0.00  0.00    +0.043 C 
ATOM     18  C   UNL     1      -1.183  -0.654  24.871  0.00  0.00    +0.097 C 
ATOM     19  N   UNL     1      -0.656  -0.256  24.375  0.00  0.00    -0.257 N 
ATOM     20  C   UNL     1       0.075  -0.473  24.061  0.00  0.00    +0.317 C 
ATOM     21  O   UNL     1       0.464  -1.190  24.185  0.00  0.00    -0.252 OA
ENDROOT
BRANCH  11   5
ATOM      3  C   UNL     1       2.430   0.572  23.086  0.00  0.00    +0.143 A 
ATOM      4  C   UNL     1       1.719   0.553  23.504  0.00  0.00    +0.052 A 
ATOM      5  C   UNL     1       1.060   0.173  23.182  0.00  0.00    +0.068 A 
ATOM      6  C   UNL     1       1.114  -0.187  22.441  0.00  0.00    +0.052 A 
ATOM      7  C   UNL     1       1.825  -0.167  22.023  0.00  0.00    +0.143 A 
ATOM     10  C   UNL     1       2.482   0.212  22.346  0.00  0.00    +0.074 A 
BRANCH   3   2
ATOM      1  C   UNL     1       3.808   0.939  23.008  0.00  0.00    +0.252 C 
ATOM      2  O   UNL     1       3.087   0.952  23.409  0.00  0.00    -0.471 OA
ENDBRANCH   3   2
BRANCH   7   8
ATOM      8  O   UNL     1       1.878  -0.527  21.283  0.00  0.00    -0.471 OA
ATOM      9  C   UNL     1       1.193  -0.685  20.852  0.00  0.00    +0.252 C 
ENDBRANCH   7   8
ENDBRANCH  11   5
BRANCH  16  22
ATOM     22  N   UNL     1      -2.770   0.833  25.061  0.00  0.00    -0.203 NA
ATOM     23  C   UNL     1      -3.406   0.865  24.536  0.00  0.00    +0.268 C 
ATOM     24  O   UNL     1      -3.337   0.535  23.783  0.00  0.00    -0.268 OA
BRANCH  23  25
ATOM     25  C   UNL     1      -4.111   1.228  24.764  0.00  0.00    +0.089 A 
ATOM     26  C   UNL     1      -4.629   0.839  25.275  0.00  0.00    +0.008 A 
ATOM     27  C   UNL     1      -5.334   1.202  25.502  0.00  0.00    +0.006 A 
ATOM     28  C   UNL     1      -5.522   1.953  25.219  0.00  0.00    +0.028 A 
ATOM     31  C   UNL     1      -5.003   2.342  24.708  0.00  0.00    +0.043 A 
ATOM     32  C   UNL     1      -4.298   1.980  24.480  0.00  0.00    +0.144 A 
BRANCH  28  29
ATOM     29  S   UNL     1      -6.227   2.317  25.446  0.00  0.00    -0.113 S 
ATOM     30  C   UNL     1      -6.462   2.302  26.236  0.00  0.00    +0.074 C 
ENDBRANCH  28  29
BRANCH  32  33
ATOM     33  O   UNL     1      -3.780   2.369  23.970  0.00  0.00    -0.471 OA
ATOM     34  C   UNL     1      -3.960   3.128  23.699  0.00  0.00    +0.252 C 
ENDBRANCH  32  33
ENDBRANCH  23  25
ENDBRANCH  16  22
TORSDOF 7
ENDMDL
MODEL 3
REMARK VINA RESULT:      -6.2      1.207      1.718
REMARK  Name = 
REMARK  7 active torsions:
REMARK  status: ('A' for Active; 'I' for Inactive)
REMARK    1  A    between atoms: O_2  and  C_3
REMARK    2  A    between atoms: C_5  and  N_11
REMARK    3  A    between atoms: C_7  and  O_8
REMARK    4  A    between atoms: C_16  and  N_22
REMARK    5  A    between atoms: C_23  and  C_25
REMARK    6  A    between atoms: C_28  and  S_29
REMARK    7  A    between atoms: C_32  and  O_33
REMARK                            x       y       z     vdW  Elec       q    Type
REMARK                         _______ _______ _______ _____ _____    ______ ____
ROOT
ATOM     11  N   UNL     1      -2.701   1.937  24.756  0.00  0.00    -0.191 N 
ATOM     12  C   UNL     1      -2.071   2.237  24.314  0.00  0.00    +0.254 C 
ATOM     13  O   UNL     1      -2.070   2.946  23.892  0.00  0.00    -0.272 OA
ATOM     14  C   UNL     1      -1.445   1.704  24.369  0.00  0.00    +0.156 C 
ATOM     15  C   UNL     1      -0.685   1.709  24.047  0.00  0.00    +0.051 C 
ATOM     16  C   UNL     1      -0.167   1.087  24.201  0.00  0.00    +0.099 C 
ATOM     17  C   UNL     1      -0.409   0.457  24.676  0.00  0.00    +0.043 C 
ATOM     18  C   UNL     1      -1.168   0.450  24.998  0.00  0.00    +0.097 C 
ATOM     19  N   UNL     1      -1.687   1.074  24.844  0.00  0.00    -0.257 N 
ATOM     20  C   UNL     1      -2.462   1.219  25.083  0.00  0.00    +0.317 C 
ATOM     21  O   UNL     1      -2.920   0.730  25.566  0.00  0.00    -0.252 OA
ENDROOT
BRANCH  11   5
ATOM      3  C   UNL     1      -4.853   2.288  24.644  0.00  0.00    +0.143 A 
ATOM      4  C   UNL     1      -4.115   1.932  24.547  0.00  0.00    +0.052 A 
ATOM      5  C   UNL     1      -3.438   2.293  24.853  0.00  0.00    +0.068 A 
ATOM      6  C   UNL     1      -3.501   3.011  25.255  0.00  0.00    +0.052 A 
ATOM      7  C   UNL     1      -4.238   3.367  25.352  0.00  0.00    +0.143 A 
ATOM     10  C   UNL     1      -4.914   3.006  25.047  0.00  0.00    +0.074 A 
BRANCH   3   2
ATOM      1  C   UNL     1      -6.152   1.729  24.841  0.00  0.00    +0.252 C 
ATOM      2  O   UNL     1      -5.528   1.927  24.339  0.00  0.00    -0.471 OA
ENDBRANCH   3   2
BRANCH   7   8
ATOM      8  O   UNL     1      -4.299   4.085  25.755  0.00  0.00    -0.471 OA
ATOM      9  C   UNL     1      -3.987   4.159  26.515  0.00  0.00    +0.252 C 
ENDBRANCH   7   8
ENDBRANCH  11   5
BRANCH  16  22
ATOM     22  N   UNL     1       0.593   1.092  23.879  0.00  0.00    -0.203 NA
ATOM     23  C   UNL     1       0.874   0.430  23.475  0.00  0.00    +0.268 C 
ATOM     24  O   UNL     1       0.395  -0.238  23.393  0.00  0.00    -0.268 OA
BRANCH  23  25
ATOM     25  C   UNL     1       1.633   0.434  23.153  0.00  0.00    +0.089 A 
ATOM     26  C   UNL     1       2.243   0.837  23.537  0.00  0.00    +0.008 A 
ATOM     27  C   UNL     1       3.002   0.840  23.214  0.00  0.00    +0.006 A 
ATOM     28  C   UNL     1       3.152   0.442  22.509  0.00  0.00    +0.028 A 
ATOM     31  C   UNL     1       2.543   0.040  22.124  0.00  0.00    +0.043 A 
ATOM     32  C   UNL     1       1.784   0.035  22.446  0.00  0.00    +0.144 A 
BRANCH  28  29
ATOM     29  S   UNL     1       3.912   0.445  22.186  0.00  0.00    -0.113 S 
ATOM     30  C   UNL     1       4.570   0.434  22.682  0.00  0.00    +0.074 C 
ENDBRANCH  28  29
BRANCH  32  33
ATOM     33  O   UNL     1       1.174  -0.367  22.062  0.00  0.00    -0.471 OA
ATOM     34  C   UNL     1       1.284  -0.643  21.292  0.00  0.00    +0.252 C 
ENDBRANCH  32  33
ENDBRANCH  23  25
ENDBRANCH  16  22
TORSDOF 7
ENDMDL
MODEL 4
REMARK VINA RESULT:      -5.7     15.436     17.646
REMARK  Name = 
REMARK  7 active torsions:
REMARK  status: ('A' for Active; 'I' for Inactive)
REMARK    1  A    between atoms: O_2  and  C_3
REMARK    2  A    between atoms: C_5  and  N_11
REMARK    3  A    between atoms: C_7  and  O_8
REMARK    4  A    between atoms: C_16  and  N_22
REMARK    5  A    between atoms: C_23  and  C_25
REMARK    6  A    between atoms: C_28  and  S_29
REMARK    7  A    between atoms: C_32  and  O_33
REMARK                            x       y       z     vdW  Elec       q    Type
REMARK                         _______ _______ _______ _____ _____    ______ ____
ROOT
ATOM     11  N   UNL     1      -6.362  -9.874  12.814  0.00  0.00    -0.191 N 
ATOM     12  C   UNL     1      -7.130  -9.842  13.116  0.00  0.00    +0.254 C 
ATOM     13  O   UNL     1      -7.811  -9.655  12.691  0.00  0.00    -0.272 OA
ATOM     14  C   UNL     1      -7.095 -10.030  13.918  0.00  0.00    +0.156 C 
ATOM     15  C   UNL     1      -7.680 -10.086  14.498  0.00  0.00    +0.051 C 
ATOM     16  C   UNL     1      -7.477 -10.290  15.271  0.00  0.00    +0.099 C 
ATOM     17  C   UNL     1      -6.688 -10.437  15.465  0.00  0.00    +0.043 C 
ATOM     18  C   UNL     1      -6.103 -10.382  14.886  0.00  0.00    +0.097 C 
ATOM     19  N   UNL     1      -6.307 -10.178  14.112  0.00  0.00    -0.257 N 
ATOM     20  C   UNL     1      -5.854 -10.081  13.430  0.00  0.00    +0.317 C 
ATOM     21  O   UNL     1      -5.036 -10.176  13.373  0.00  0.00    -0.252 OA
ENDROOT
BRANCH  11   5
ATOM      3  C   UNL     1      -5.654  -8.824  11.036  0.00  0.00    +0.143 A 
ATOM      4  C   UNL     1      -5.874  -8.974  11.816  0.00  0.00    +0.052 A 
ATOM      5  C   UNL     1      -6.142  -9.724  12.033  0.00  0.00    +0.068 A 
ATOM      6  C   UNL     1      -6.189 -10.323  11.469  0.00  0.00    +0.052 A 
ATOM      7  C   UNL     1      -5.969 -10.174  10.688  0.00  0.00    +0.143 A 
ATOM     10  C   UNL     1      -5.702  -9.424  10.472  0.00  0.00    +0.074 A 
BRANCH   3   2
ATOM      1  C   UNL     1      -4.687  -7.995  10.389  0.00  0.00    +0.252 C 
ATOM      2  O   UNL     1      -5.387  -8.075  10.819  0.00  0.00    -0.471 OA
ENDBRANCH   3   2
BRANCH   7   8
ATOM      8  O   UNL     1      -6.017 -10.774  10.124  0.00  0.00    -0.471 OA
ATOM      9  C   UNL     1      -6.637 -10.780   9.580  0.00  0.00    +0.252 C 
ENDBRANCH   7   8
ENDBRANCH  11   5
BRANCH  16  22
ATOM     22  N   UNL     1      -8.061 -10.346  15.851  0.00  0.00    -0.203 NA
ATOM     23  C   UNL     1      -8.086  -9.796  16.465  0.00  0.00    +0.268 C 
ATOM     24  O   UNL     1      -7.526  -9.190  16.500  0.00  0.00    -0.268 OA
BRANCH  23  25
ATOM     25  C   UNL     1      -8.669  -9.850  17.046  0.00  0.00    +0.089 A 
ATOM     26  C   UNL     1      -8.744 -10.540  17.492  0.00  0.00    +0.008 A 
ATOM     27  C   UNL     1      -9.328 -10.594  18.072  0.00  0.00    +0.006 A 
ATOM     28  C   UNL     1      -9.837  -9.959  18.206  0.00  0.00    +0.028 A 
ATOM     31  C   UNL     1      -9.762  -9.269  17.759  0.00  0.00    +0.043 A 
ATOM     32  C   UNL     1      -9.179  -9.215  17.179  0.00  0.00    +0.144 A 
BRANCH  28  29
ATOM     29  S   UNL     1     -10.421 -10.013  18.786  0.00  0.00    -0.113 S 
ATOM     30  C   UNL     1     -10.248 -10.359  19.515  0.00  0.00    +0.074 C 
ENDBRANCH  28  29
BRANCH  32  33
ATOM     33  O   UNL     1      -9.104  -8.525  16.733  0.00  0.00    -0.471 OA
ATOM     34  C   UNL     1      -9.663  -7.923  16.807  0.00  0.00    +0.252 C 
ENDBRANCH  32  33
ENDBRANCH  23  25
ENDBRANCH  16  22
TORSDOF 7
ENDMDL
MODEL 5
REMARK VINA RESULT:      -5.1      1.400      2.177
REMARK  Name = 
REMARK  7 active torsions:
REMARK  status: ('A' for Active; 'I' for Inactive)
REMARK    1  A    between atoms: O_2  and  C_3
REMARK    2  A    between atoms: C_5  and  N_11
REMARK    3  A    between atoms: C_7  and  O_8
REMARK    4  A    between atoms: C_16  and  N_22
REMARK    5  A    between atoms: C_23  and  C_25
REMARK    6  A    between atoms: C_28  and  S_29
REMARK    7  A    between atoms: C_32  and  O_33
REMARK                            x       y       z     vdW  Elec       q    Type
REMARK                         _______ _______ _______ _____ _____    ______ ____
ROOT
ATOM     11  N   UNL     1      -4.073   1.315  24.923  0.00  0.00    -0.191 N 
ATOM     12  C   UNL     1      -3.469   1.583  24.428  0.00  0.00    +0.254 C 
ATOM     13  O   UNL     1      -3.446   2.311  24.042  0.00  0.00    -0.272 OA
ATOM     14  C   UNL     1      -2.894   0.994  24.388  0.00  0.00    +0.156 C 
ATOM     15  C   UNL     1      -2.175   0.950  23.984  0.00  0.00    +0.051 C 
ATOM     16  C   UNL     1      -1.705   0.276  24.049  0.00  0.00    +0.099 C 
ATOM     17  C   UNL     1      -1.953  -0.355  24.519  0.00  0.00    +0.043 C 
ATOM     18  C   UNL     1      -2.671  -0.313  24.923  0.00  0.00    +0.097 C 
ATOM     19  N   UNL     1      -3.141   0.362  24.857  0.00  0.00    -0.257 N 
ATOM     20  C   UNL     1      -3.870   0.561  25.188  0.00  0.00    +0.317 C 
ATOM     21  O   UNL     1      -4.318   0.088  25.695  0.00  0.00    -0.252 OA
ENDROOT
BRANCH  11   5
ATOM      3  C   UNL     1      -5.395   2.846  25.745  0.00  0.00    +0.143 A 
ATOM      4  C   UNL     1      -4.709   2.432  25.550  0.00  0.00    +0.052 A 
ATOM      5  C   UNL     1      -4.759   1.729  25.119  0.00  0.00    +0.068 A 
ATOM      6  C   UNL     1      -5.496   1.443  24.884  0.00  0.00    +0.052 A 
ATOM      7  C   UNL     1      -6.182   1.857  25.079  0.00  0.00    +0.143 A 
ATOM     10  C   UNL     1      -6.132   2.558  25.509  0.00  0.00    +0.074 A 
BRANCH   3   2
ATOM      1  C   UNL     1      -5.429   4.273  25.793  0.00  0.00    +0.252 C 
ATOM      2  O   UNL     1      -5.344   3.547  26.176  0.00  0.00    -0.471 OA
ENDBRANCH   3   2
BRANCH   7   8
ATOM      8  O   UNL     1      -6.919   1.569  24.843  0.00  0.00    -0.471 OA
ATOM      9  C   UNL     1      -7.148   1.621  24.052  0.00  0.00    +0.252 C 
ENDBRANCH   7   8
ENDBRANCH  11   5
BRANCH  16  22
ATOM     22  N   UNL     1      -0.987   0.233  23.645  0.00  0.00    -0.203 NA
ATOM     23  C   UNL     1      -0.279   0.369  24.047  0.00  0.00    +0.268 C 
ATOM     24  O   UNL     1      -0.290   0.550  24.853  0.00  0.00    -0.268 OA
BRANCH  23  25
ATOM     25  C   UNL     1       0.439   0.326  23.645  0.00  0.00    +0.089 A 
ATOM     26  C   UNL     1       0.634  -0.354  23.220  0.00  0.00    +0.008 A 
ATOM     27  C   UNL     1       1.354  -0.396  22.818  0.00  0.00    +0.006 A 
ATOM     28  C   UNL     1       1.877   0.240  22.840  0.00  0.00    +0.028 A 
ATOM     31  C   UNL     1       1.682   0.920  23.265  0.00  0.00    +0.043 A 
ATOM     32  C   UNL     1       0.963   0.964  23.667  0.00  0.00    +0.144 A 
BRANCH  28  29
ATOM     29  S   UNL     1       2.596   0.198  22.438  0.00  0.00    -0.113 S 
ATOM     30  C   UNL     1       3.259  -0.121  22.811  0.00  0.00    +0.074 C 
ENDBRANCH  28  29
BRANCH  32  33
ATOM     33  O   UNL     1       0.768   1.644  24.092  0.00  0.00    -0.471 OA
ATOM     34  C   UNL     1       1.109   2.367  23.890  0.00  0.00    +0.252 C 
ENDBRANCH  32  33
ENDBRANCH  23  25
ENDBRANCH  16  22
TORSDOF 7
ENDMDL
MODEL 6
REMARK VINA RESULT:      -5.1     16.251     18.306
REMARK  Name = 
REMARK  7 active torsions:
REMARK  status: ('A' for Active; 'I' for Inactive)
REMARK    1  A    between atoms: O_2  and  C_3
REMARK    2  A    between atoms: C_5  and  N_11
REMARK    3  A    between atoms: C_7  and  O_8
REMARK    4  A    between atoms: C_16  and  N_22
REMARK    5  A    between atoms: C_23  and  C_25
REMARK    6  A    between atoms: C_28  and  S_29
REMARK    7  A    between atoms: C_32  and  O_33
REMARK                            x       y       z     vdW  Elec       q    Type
REMARK                         _______ _______ _______ _____ _____    ______ ____
ROOT
ATOM     11  N   UNL     1      -6.612  -9.783  10.677  0.00  0.00    -0.191 N 
ATOM     12  C   UNL     1      -7.047  -9.732  11.377  0.00  0.00    +0.254 C 
ATOM     13  O   UNL     1      -7.808  -9.426  11.453  0.00  0.00    -0.272 OA
ATOM     14  C   UNL     1      -6.585 -10.041  11.986  0.00  0.00    +0.156 C 
ATOM     15  C   UNL     1      -6.726 -10.133  12.794  0.00  0.00    +0.051 C 
ATOM     16  C   UNL     1      -6.149 -10.467  13.279  0.00  0.00    +0.099 C 
ATOM     17  C   UNL     1      -5.429 -10.709  12.957  0.00  0.00    +0.043 C 
ATOM     18  C   UNL     1      -5.287 -10.617  12.149  0.00  0.00    +0.097 C 
ATOM     19  N   UNL     1      -5.865 -10.282  11.664  0.00  0.00    -0.257 N 
ATOM     20  C   UNL     1      -5.882 -10.123  10.855  0.00  0.00    +0.317 C 
ATOM     21  O   UNL     1      -5.275 -10.277  10.318  0.00  0.00    -0.252 OA
ENDROOT
BRANCH  11   5
ATOM      3  C   UNL     1      -7.051  -8.497   8.968  0.00  0.00    +0.143 A 
ATOM      4  C   UNL     1      -6.799  -8.743   9.715  0.00  0.00    +0.052 A 
ATOM      5  C   UNL     1      -6.863  -9.537   9.931  0.00  0.00    +0.068 A 
ATOM      6  C   UNL     1      -7.179 -10.084   9.401  0.00  0.00    +0.052 A 
ATOM      7  C   UNL     1      -7.431  -9.838   8.655  0.00  0.00    +0.143 A 
ATOM     10  C   UNL     1      -7.367  -9.045   8.439  0.00  0.00    +0.074 A 
BRANCH   3   2
ATOM      1  C   UNL     1      -7.637  -7.309   8.434  0.00  0.00    +0.252 C 
ATOM      2  O   UNL     1      -6.986  -7.704   8.753  0.00  0.00    -0.471 OA
ENDBRANCH   3   2
BRANCH   7   8
ATOM      8  O   UNL     1      -7.747 -10.386   8.125  0.00  0.00    -0.471 OA
ATOM      9  C   UNL     1      -8.504 -10.689   8.248  0.00  0.00    +0.252 C 
ENDBRANCH   7   8
ENDBRANCH  11   5
BRANCH  16  22
ATOM     22  N   UNL     1      -6.291 -10.559  14.087  0.00  0.00    -0.203 NA
ATOM     23  C   UNL     1      -5.919 -10.062  14.630  0.00  0.00    +0.268 C 
ATOM     24  O   UNL     1      -5.405  -9.472  14.365  0.00  0.00    -0.268 OA
BRANCH  23  25
ATOM     25  C   UNL     1      -6.059 -10.153  15.437  0.00  0.00    +0.089 A 
ATOM     26  C   UNL     1      -6.830 -10.119  15.729  0.00  0.00    +0.008 A 
ATOM     27  C   UNL     1      -6.969 -10.211  16.537  0.00  0.00    +0.006 A 
ATOM     28  C   UNL     1      -6.339 -10.336  17.053  0.00  0.00    +0.028 A 
ATOM     31  C   UNL     1      -5.568 -10.370  16.761  0.00  0.00    +0.043 A 
ATOM     32  C   UNL     1      -5.427 -10.279  15.954  0.00  0.00    +0.144 A 
BRANCH  28  29
ATOM     29  S   UNL     1      -6.478 -10.428  17.861  0.00  0.00    -0.113 S 
ATOM     30  C   UNL     1      -7.212 -10.224  18.178  0.00  0.00    +0.074 C 
ENDBRANCH  28  29
BRANCH  32  33
ATOM     33  O   UNL     1      -4.656 -10.313  15.662  0.00  0.00    -0.471 OA
ATOM     34  C   UNL     1      -4.029 -10.470  16.174  0.00  0.00    +0.252 C 
ENDBRANCH  32  33
ENDBRANCH  23  25
ENDBRANCH  16  22
TORSDOF 7
ENDMDL
MODEL 7
REMARK VINA RESULT:      -4.7     17.852     18.976
REMARK  Name = 
REMARK  7 active torsions:
REMARK  status: ('A' for Active; 'I' for Inactive)
REMARK    1  A    between atoms: O_2  and  C_3
REMARK    2  A    between atoms: C_5  and  N_11
REMARK    3  A    between atoms: C_7  and  O_8
REMARK    4  A    between atoms: C_16  and  N_22
REMARK    5  A    between atoms: C_23  and  C_25
REMARK    6  A    between atoms: C_28  and  S_29
REMARK    7  A    between atoms: C_32  and  O_33
REMARK                            x       y       z     vdW  Elec       q    Type
REMARK                         _______ _______ _______ _____ _____    ______ ____
ROOT
ATOM     11  N   UNL     1      -7.090  -9.337   9.557  0.00  0.00    -0.191 N 
ATOM     12  C   UNL     1      -6.514  -8.936   9.992  0.00  0.00    +0.254 C 
ATOM     13  O   UNL     1      -6.652  -8.349  10.554  0.00  0.00    -0.272 OA
ATOM     14  C   UNL     1      -5.777  -9.226   9.765  0.00  0.00    +0.156 C 
ATOM     15  C   UNL     1      -5.011  -9.038  10.008  0.00  0.00    +0.051 C 
ATOM     16  C   UNL     1      -4.365  -9.429   9.676  0.00  0.00    +0.099 C 
ATOM     17  C   UNL     1      -4.485 -10.009   9.102  0.00  0.00    +0.043 C 
ATOM     18  C   UNL     1      -5.250 -10.198   8.859  0.00  0.00    +0.097 C 
ATOM     19  N   UNL     1      -5.896  -9.806   9.191  0.00  0.00    -0.257 N 
ATOM     20  C   UNL     1      -6.708  -9.875   9.063  0.00  0.00    +0.317 C 
ATOM     21  O   UNL     1      -7.074 -10.390   8.532  0.00  0.00    -0.252 OA
ENDROOT
BRANCH  11   5
ATOM      3  C   UNL     1      -9.097  -8.586   9.139  0.00  0.00    +0.143 A 
ATOM      4  C   UNL     1      -8.282  -8.703   9.087  0.00  0.00    +0.052 A 
ATOM      5  C   UNL     1      -7.905  -9.220   9.609  0.00  0.00    +0.068 A 
ATOM      6  C   UNL     1      -8.344  -9.619  10.182  0.00  0.00    +0.052 A 
ATOM      7  C   UNL     1      -9.159  -9.502  10.234  0.00  0.00    +0.143 A 
ATOM     10  C   UNL     1      -9.535  -8.986   9.712  0.00  0.00    +0.074 A 
BRANCH   3   2
ATOM      1  C   UNL     1     -10.246  -8.222   8.372  0.00  0.00    +0.252 C 
ATOM      2  O   UNL     1      -9.473  -8.070   8.617  0.00  0.00    -0.471 OA
ENDBRANCH   3   2
BRANCH   7   8
ATOM      8  O   UNL     1      -9.597  -9.902  10.807  0.00  0.00    -0.471 OA
ATOM      9  C   UNL     1      -9.853 -10.674  10.667  0.00  0.00    +0.252 C 
ENDBRANCH   7   8
ENDBRANCH  11   5
BRANCH  16  22
ATOM     22  N   UNL     1      -3.599  -9.241   9.918  0.00  0.00    -0.203 NA
ATOM     23  C   UNL     1      -3.238  -9.677  10.518  0.00  0.00    +0.268 C 
ATOM     24  O   UNL     1      -3.643 -10.301  10.876  0.00  0.00    -0.268 OA
BRANCH  23  25
ATOM     25  C   UNL     1      -2.472  -9.489  10.761  0.00  0.00    +0.089 A 
ATOM     26  C   UNL     1      -2.047  -8.899  10.371  0.00  0.00    +0.008 A 
ATOM     27  C   UNL     1      -1.281  -8.713  10.615  0.00  0.00    +0.006 A 
ATOM     28  C   UNL     1      -0.940  -9.116  11.248  0.00  0.00    +0.028 A 
ATOM     31  C   UNL     1      -1.365  -9.706  11.638  0.00  0.00    +0.043 A 
ATOM     32  C   UNL     1      -2.131  -9.893  11.395  0.00  0.00    +0.144 A 
BRANCH  28  29
ATOM     29  S   UNL     1      -0.174  -8.930  11.492  0.00  0.00    -0.113 S 
ATOM     30  C   UNL     1       0.424  -8.832  10.932  0.00  0.00    +0.074 C 
ENDBRANCH  28  29
BRANCH  32  33
ATOM     33  O   UNL     1      -2.555 -10.483  11.786  0.00  0.00    -0.471 OA
ATOM     34  C   UNL     1      -2.281 -10.781  12.505  0.00  0.00    +0.252 C 
ENDBRANCH  32  33
ENDBRANCH  23  25
ENDBRANCH  16  22
TORSDOF 7
ENDMDL
MODEL 8
REMARK VINA RESULT:      -3.8     17.278     18.922
REMARK  Name = 
REMARK  7 active torsions:
REMARK  status: ('A' for Active; 'I' for Inactive)
REMARK    1  A    between atoms: O_2  and  C_3
REMARK    2  A    between atoms: C_5  and  N_11
REMARK    3  A    between atoms: C_7  and  O_8
REMARK    4  A    between atoms: C_16  and  N_22
REMARK    5  A    between atoms: C_23  and  C_25
REMARK    6  A    between atoms: C_28  and  S_29
REMARK    7  A    between atoms: C_32  and  O_33
REMARK                            x       y       z     vdW  Elec       q    Type
REMARK                         _______ _______ _______ _____ _____    ______ ____
ROOT
ATOM     11  N   UNL     1      -7.834  -9.149   9.473  0.00  0.00    -0.191 N 
ATOM     12  C   UNL     1      -7.624  -9.244  10.266  0.00  0.00    +0.254 C 
ATOM     13  O   UNL     1      -8.074  -9.016  10.918  0.00  0.00    -0.272 OA
ATOM     14  C   UNL     1      -6.884  -9.608  10.290  0.00  0.00    +0.156 C 
ATOM     15  C   UNL     1      -6.403  -9.839  10.919  0.00  0.00    +0.051 C 
ATOM     16  C   UNL     1      -5.675 -10.198  10.772  0.00  0.00    +0.099 C 
ATOM     17  C   UNL     1      -5.429 -10.327   9.995  0.00  0.00    +0.043 C 
ATOM     18  C   UNL     1      -5.909 -10.097   9.366  0.00  0.00    +0.097 C 
ATOM     19  N   UNL     1      -6.638  -9.737   9.513  0.00  0.00    -0.257 N 
ATOM     20  C   UNL     1      -7.225  -9.453   9.009  0.00  0.00    +0.317 C 
ATOM     21  O   UNL     1      -7.206  -9.471   8.184  0.00  0.00    -0.252 OA
ENDROOT
BRANCH  11   5
ATOM      3  C   UNL     1      -9.259  -7.658   8.756  0.00  0.00    +0.143 A 
ATOM      4  C   UNL     1      -8.562  -7.999   9.034  0.00  0.00    +0.052 A 
ATOM      5  C   UNL     1      -8.532  -8.808   9.195  0.00  0.00    +0.068 A 
ATOM      6  C   UNL     1      -9.202  -9.276   9.077  0.00  0.00    +0.052 A 
ATOM      7  C   UNL     1      -9.899  -8.935   8.798  0.00  0.00    +0.143 A 
ATOM     10  C   UNL     1      -9.928  -8.127   8.638  0.00  0.00    +0.074 A 
BRANCH   3   2
ATOM      1  C   UNL     1      -9.743  -6.352   9.071  0.00  0.00    +0.252 C 
ATOM      2  O   UNL     1      -9.288  -6.850   8.596  0.00  0.00    -0.471 OA
ENDBRANCH   3   2
BRANCH   7   8
ATOM      8  O   UNL     1     -10.568  -9.404   8.680  0.00  0.00    -0.471 OA
ATOM      9  C   UNL     1     -10.492 -10.223   8.622  0.00  0.00    +0.252 C 
ENDBRANCH   7   8
ENDBRANCH  11   5
BRANCH  16  22
ATOM     22  N   UNL     1      -5.194 -10.429  11.401  0.00  0.00    -0.203 NA
ATOM     23  C   UNL     1      -4.914  -9.864  11.934  0.00  0.00    +0.268 C 
ATOM     24  O   UNL     1      -5.115  -9.070  11.838  0.00  0.00    -0.268 OA
BRANCH  23  25
ATOM     25  C   UNL     1      -4.432 -10.094  12.563  0.00  0.00    +0.089 A 
ATOM     26  C   UNL     1      -3.661 -10.349  12.421  0.00  0.00    +0.008 A 
ATOM     27  C   UNL     1      -3.180 -10.578  13.051  0.00  0.00    +0.006 A 
ATOM     28  C   UNL     1      -3.470 -10.552  13.823  0.00  0.00    +0.028 A 
ATOM     31  C   UNL     1      -4.241 -10.297  13.965  0.00  0.00    +0.043 A 
ATOM     32  C   UNL     1      -4.723 -10.068  13.336  0.00  0.00    +0.144 A 
BRANCH  28  29
ATOM     29  S   UNL     1      -2.989 -10.781  14.453  0.00  0.00    -0.113 S 
ATOM     30  C   UNL     1      -2.246 -10.437  14.551  0.00  0.00    +0.074 C 
ENDBRANCH  28  29
BRANCH  32  33
ATOM     33  O   UNL     1      -5.494  -9.812  13.478  0.00  0.00    -0.471 OA
ATOM     34  C   UNL     1      -5.905 -10.088  14.138  0.00  0.00    +0.252 C 
ENDBRANCH  32  33
ENDBRANCH  23  25
ENDBRANCH  16  22
TORSDOF 7
ENDMDL
