MODEL 1
REMARK VINA RESULT:      -9.6      0.000      0.000
REMARK  Name = 
REMARK  5 active torsions:
REMARK  status: ('A' for Active; 'I' for Inactive)
REMARK    1  A    between atoms: S_2  and  N_5
REMARK    2  A    between atoms: N_5  and  C_6
REMARK    3  A    between atoms: C_6  and  C_7
REMARK    4  A    between atoms: C_10  and  N_11
REMARK    5  A    between atoms: N_11  and  C_12
REMARK                            x       y       z     vdW  Elec       q    Type
REMARK                         _______ _______ _______ _____ _____    ______ ____
ROOT
ATOM      7  C   UNL     1      -3.259   1.768  24.733  0.00  0.00    +0.166 C 
ATOM      8  O   UNL     1      -2.733   1.290  24.315  0.00  0.00    -0.350 OA
ATOM      9  C   UNL     1      -3.086   0.551  24.213  0.00  0.00    +0.162 C 
ATOM     10  C   UNL     1      -3.831   0.573  24.568  0.00  0.00    +0.135 C 
ATOM     20  C   UNL     1      -3.937   1.326  24.889  0.00  0.00    +0.199 C 
ATOM     21  O   UNL     1      -4.605   1.589  25.295  0.00  0.00    -0.219 OA
ENDROOT
BRANCH   7   6
ATOM      6  C   UNL     1      -3.129   2.552  24.955  0.00  0.00    +0.147 C 
BRANCH   6   5
ATOM      5  N   UNL     1      -2.375   2.879  24.894  0.00  0.00    -0.079 NA
BRANCH   5   2
ATOM      1  C   UNL     1      -2.079   4.390  25.488  0.00  0.00    +0.197 C 
ATOM      2  S   UNL     1      -2.227   3.634  25.191  0.00  0.00    +0.059 S 
ATOM      3  O   UNL     1      -1.829   3.304  25.834  0.00  0.00    -0.156 OA
ATOM      4  O   UNL     1      -2.625   3.964  24.548  0.00  0.00    -0.156 OA
ENDBRANCH   5   2
ENDBRANCH   6   5
ENDBRANCH   7   6
BRANCH  10  11
ATOM     11  N   UNL     1      -4.373  -0.048  24.596  0.00  0.00    -0.216 NA
BRANCH  11  12
ATOM     12  C   UNL     1      -4.107  -0.827  24.632  0.00  0.00    +0.073 C 
ATOM     13  C   UNL     1      -3.774  -1.118  25.329  0.00  0.00    +0.023 C 
ATOM     14  C   UNL     1      -3.508  -1.898  25.365  0.00  0.00    +0.068 C 
ATOM     15  C   UNL     1      -3.574  -2.387  24.704  0.00  0.00    +0.264 C 
ATOM     16  F   UNL     1      -3.222  -2.911  25.236  0.00  0.00    -0.204 F 
ATOM     17  F   UNL     1      -3.517  -3.058  24.228  0.00  0.00    -0.204 F 
ATOM     18  C   UNL     1      -3.906  -2.096  24.008  0.00  0.00    +0.068 C 
ATOM     19  C   UNL     1      -4.172  -1.317  23.971  0.00  0.00    +0.023 C 
ENDBRANCH  11  12
ENDBRANCH  10  11
TORSDOF 5
ENDMDL
MODEL 2
REMARK VINA RESULT:      -8.8      2.975      4.848
REMARK  Name = 
REMARK  5 active torsions:
REMARK  status: ('A' for Active; 'I' for Inactive)
REMARK    1  A    between atoms: S_2  and  N_5
REMARK    2  A    between atoms: N_5  and  C_6
REMARK    3  A    between atoms: C_6  and  C_7
REMARK    4  A    between atoms: C_10  and  N_11
REMARK    5  A    between atoms: N_11  and  C_12
REMARK                            x       y       z     vdW  Elec       q    Type
REMARK                         _______ _______ _______ _____ _____    ______ ____
ROOT
ATOM      7  C   UNL     1      -3.873   0.256  24.358  0.00  0.00    +0.166 C 
ATOM      8  O   UNL     1      -4.307   0.506  25.013  0.00  0.00    -0.350 OA
ATOM      9  C   UNL     1      -4.293   1.331  25.029  0.00  0.00    +0.162 C 
ATOM     10  C   UNL     1      -3.850   1.591  24.384  0.00  0.00    +0.135 C 
ATOM     20  C   UNL     1      -3.590   0.927  23.969  0.00  0.00    +0.199 C 
ATOM     21  O   UNL     1      -3.129   0.932  23.285  0.00  0.00    -0.219 OA
ENDROOT
BRANCH   7   6
ATOM      6  C   UNL     1      -3.744  -0.527  24.132  0.00  0.00    +0.147 C 
BRANCH   6   5
ATOM      5  N   UNL     1      -4.008  -1.143  24.611  0.00  0.00    -0.079 NA
BRANCH   5   2
ATOM      1  C   UNL     1      -3.653  -2.705  24.216  0.00  0.00    +0.197 C 
ATOM      2  S   UNL     1      -3.830  -1.924  24.413  0.00  0.00    +0.059 S 
ATOM      3  O   UNL     1      -3.235  -1.934  24.985  0.00  0.00    -0.156 OA
ATOM      4  O   UNL     1      -4.426  -1.915  23.842  0.00  0.00    -0.156 OA
ENDBRANCH   5   2
ENDBRANCH   6   5
ENDBRANCH   7   6
BRANCH  10  11
ATOM     11  N   UNL     1      -3.694   2.377  24.187  0.00  0.00    -0.216 NA
BRANCH  11  12
ATOM     12  C   UNL     1      -3.427   2.901  24.765  0.00  0.00    +0.073 C 
ATOM     13  C   UNL     1      -3.968   3.317  25.227  0.00  0.00    +0.023 C 
ATOM     14  C   UNL     1      -3.701   3.842  25.806  0.00  0.00    +0.068 C 
ATOM     15  C   UNL     1      -2.891   3.950  25.920  0.00  0.00    +0.264 C 
ATOM     16  F   UNL     1      -3.188   4.466  26.492  0.00  0.00    -0.204 F 
ATOM     17  F   UNL     1      -2.185   4.239  26.233  0.00  0.00    -0.204 F 
ATOM     18  C   UNL     1      -2.349   3.535  25.457  0.00  0.00    +0.068 C 
ATOM     19  C   UNL     1      -2.617   3.010  24.880  0.00  0.00    +0.023 C 
ENDBRANCH  11  12
ENDBRANCH  10  11
TORSDOF 5
ENDMDL
MODEL 3
REMARK VINA RESULT:      -8.6      3.169      4.012
REMARK  Name = 
REMARK  5 active torsions:
REMARK  status: ('A' for Active; 'I' for Inactive)
REMARK    1  A    between atoms: S_2  and  N_5
REMARK    2  A    between atoms: N_5  and  C_6
REMARK    3  A    between atoms: C_6  and  C_7
REMARK    4  A    between atoms: C_10  and  N_11
REMARK    5  A    between atoms: N_11  and  C_12
REMARK                            x       y       z     vdW  Elec       q    Type
REMARK                         _______ _______ _______ _____ _____    ______ ____
ROOT
ATOM      7  C   UNL     1      -1.795   1.567  24.013  0.00  0.00    +0.166 C 
ATOM      8  O   UNL     1      -1.908   1.707  24.818  0.00  0.00    -0.350 OA
ATOM      9  C   UNL     1      -2.617   2.121  24.908  0.00  0.00    +0.162 C 
ATOM     10  C   UNL     1      -2.942   2.236  24.159  0.00  0.00    +0.135 C 
ATOM     20  C   UNL     1      -2.435   1.894  23.605  0.00  0.00    +0.199 C 
ATOM     21  O   UNL     1      -2.546   1.881  22.788  0.00  0.00    -0.219 OA
ENDROOT
BRANCH   7   6
ATOM      6  C   UNL     1      -1.157   1.170  23.674  0.00  0.00    +0.147 C 
BRANCH   6   5
ATOM      5  N   UNL     1      -0.627   0.758  24.153  0.00  0.00    -0.079 NA
BRANCH   5   2
ATOM      1  C   UNL     1       0.584  -0.130  23.469  0.00  0.00    +0.197 C 
ATOM      2  S   UNL     1      -0.021   0.314  23.811  0.00  0.00    +0.059 S 
ATOM      3  O   UNL     1       0.403   1.006  23.664  0.00  0.00    -0.156 OA
ATOM      4  O   UNL     1      -0.446  -0.378  23.958  0.00  0.00    -0.156 OA
ENDBRANCH   5   2
ENDBRANCH   6   5
ENDBRANCH   7   6
BRANCH  10  11
ATOM     11  N   UNL     1      -3.650   2.625  23.992  0.00  0.00    -0.216 NA
BRANCH  11  12
ATOM     12  C   UNL     1      -4.279   2.584  24.524  0.00  0.00    +0.073 C 
ATOM     13  C   UNL     1      -4.777   1.927  24.524  0.00  0.00    +0.023 C 
ATOM     14  C   UNL     1      -5.406   1.885  25.056  0.00  0.00    +0.068 C 
ATOM     15  C   UNL     1      -5.537   2.502  25.589  0.00  0.00    +0.264 C 
ATOM     16  F   UNL     1      -6.155   1.997  25.798  0.00  0.00    -0.204 F 
ATOM     17  F   UNL     1      -5.882   2.942  26.194  0.00  0.00    -0.204 F 
ATOM     18  C   UNL     1      -5.038   3.159  25.589  0.00  0.00    +0.068 C 
ATOM     19  C   UNL     1      -4.410   3.200  25.057  0.00  0.00    +0.023 C 
ENDBRANCH  11  12
ENDBRANCH  10  11
TORSDOF 5
ENDMDL
