MODEL 1
REMARK VINA RESULT:      -9.9      0.000      0.000
REMARK  Name = 
REMARK  5 active torsions:
REMARK  status: ('A' for Active; 'I' for Inactive)
REMARK    1  A    between atoms: C_2  and  N_3
REMARK    2  A    between atoms: N_6  and  C_7
REMARK    3  A    between atoms: C_7  and  C_8
REMARK    4  A    between atoms: C_15  and  C_16
REMARK    5  A    between atoms: C_18  and  C_23
REMARK                            x       y       z     vdW  Elec       q    Type
REMARK                         _______ _______ _______ _____ _____    ______ ____
ROOT
ATOM      8  C   UNL     1       0.114   0.221  23.650  0.00  0.00    +0.079 C 
ATOM      9  C   UNL     1      -0.206   0.253  24.358  0.00  0.00    +0.018 C 
ATOM     10  C   UNL     1      -0.986   0.405  24.517  0.00  0.00    +0.010 C 
ATOM     11  C   UNL     1      -1.154   0.398  25.398  0.00  0.00    +0.018 C 
ATOM     12  C   UNL     1      -0.783   0.347  24.863  0.00  0.00    +0.072 C 
ATOM     13  N   UNL     1      -0.679   0.375  23.820  0.00  0.00    -0.272 NA
ATOM     14  C   UNL     1      -1.396   0.547  23.282  0.00  0.00    +0.078 C 
ATOM     15  C   UNL     1      -1.671   0.570  23.994  0.00  0.00    +0.056 C 
ENDROOT
BRANCH  15  16
ATOM     16  C   UNL     1      -2.450   0.718  24.224  0.00  0.00    +0.063 A 
ATOM     17  C   UNL     1      -2.706   1.495  24.334  0.00  0.00    +0.034 A 
ATOM     18  C   UNL     1      -3.485   1.642  24.563  0.00  0.00    +0.084 A 
ATOM     19  N   UNL     1      -4.007   1.014  24.683  0.00  0.00    -0.231 NA
ATOM     20  C   UNL     1      -3.750   0.239  24.574  0.00  0.00    +0.139 A 
ATOM     21  C   UNL     1      -4.271  -0.390  24.693  0.00  0.00    +0.074 C 
ATOM     22  N   UNL     1      -2.971   0.090  24.344  0.00  0.00    -0.235 NA
BRANCH  18  23
ATOM     23  C   UNL     1      -3.742   2.419  24.674  0.00  0.00    +0.018 A 
ATOM     24  C   UNL     1      -3.819   2.723  25.437  0.00  0.00    +0.001 A 
ATOM     25  C   UNL     1      -4.076   3.499  25.547  0.00  0.00    +0.000 A 
ATOM     26  C   UNL     1      -4.257   3.970  24.894  0.00  0.00    +0.000 A 
ATOM     27  C   UNL     1      -4.181   3.666  24.132  0.00  0.00    +0.000 A 
ATOM     28  C   UNL     1      -3.923   2.890  24.021  0.00  0.00    +0.001 A 
ENDBRANCH  18  23
ENDBRANCH  15  16
BRANCH   8   7
ATOM      7  C   UNL     1       0.748   0.116  23.133  0.00  0.00    +0.133 C 
BRANCH   7   6
ATOM      3  N   UNL     1       2.876   0.589  23.016  0.00  0.00    -0.187 NA
ATOM      4  C   UNL     1       2.129   0.302  22.814  0.00  0.00    +0.339 C 
ATOM      5  O   UNL     1       2.016  -0.087  22.096  0.00  0.00    -0.249 OA
ATOM      6  N   UNL     1       1.495   0.404  23.334  0.00  0.00    -0.186 NA
BRANCH   3   2
ATOM      1  C   UNL     1       4.268   0.723  22.720  0.00  0.00    +0.025 C 
ATOM      2  C   UNL     1       3.510   0.487  22.497  0.00  0.00    +0.117 C 
ENDBRANCH   3   2
ENDBRANCH   7   6
ENDBRANCH   8   7
TORSDOF 5
ENDMDL
MODEL 2
REMARK VINA RESULT:      -9.8      1.745      2.272
REMARK  Name = 
REMARK  5 active torsions:
REMARK  status: ('A' for Active; 'I' for Inactive)
REMARK    1  A    between atoms: C_2  and  N_3
REMARK    2  A    between atoms: N_6  and  C_7
REMARK    3  A    between atoms: C_7  and  C_8
REMARK    4  A    between atoms: C_15  and  C_16
REMARK    5  A    between atoms: C_18  and  C_23
REMARK                            x       y       z     vdW  Elec       q    Type
REMARK                         _______ _______ _______ _____ _____    ______ ____
ROOT
ATOM      8  C   UNL     1       0.399   1.513  24.214  0.00  0.00    +0.079 C 
ATOM      9  C   UNL     1       0.153   1.735  24.919  0.00  0.00    +0.018 C 
ATOM     10  C   UNL     1      -0.454   2.250  25.065  0.00  0.00    +0.010 C 
ATOM     11  C   UNL     1      -0.581   2.375  25.944  0.00  0.00    +0.018 C 
ATOM     12  C   UNL     1      -0.295   2.122  25.414  0.00  0.00    +0.072 C 
ATOM     13  N   UNL     1      -0.219   2.037  24.372  0.00  0.00    -0.272 NA
ATOM     14  C   UNL     1      -0.781   2.501  23.823  0.00  0.00    +0.078 C 
ATOM     15  C   UNL     1      -0.992   2.693  24.531  0.00  0.00    +0.056 C 
ENDROOT
BRANCH  15  16
ATOM     16  C   UNL     1      -1.598   3.209  24.749  0.00  0.00    +0.063 A 
ATOM     17  C   UNL     1      -2.374   2.934  24.800  0.00  0.00    +0.034 A 
ATOM     18  C   UNL     1      -2.980   3.450  25.018  0.00  0.00    +0.084 A 
ATOM     19  N   UNL     1      -2.810   4.240  25.184  0.00  0.00    -0.231 NA
ATOM     20  C   UNL     1      -2.034   4.514  25.133  0.00  0.00    +0.139 A 
ATOM     21  C   UNL     1      -1.863   5.304  25.299  0.00  0.00    +0.074 C 
ATOM     22  N   UNL     1      -1.427   3.998  24.915  0.00  0.00    -0.235 NA
BRANCH  18  23
ATOM     23  C   UNL     1      -3.757   3.177  25.069  0.00  0.00    +0.018 A 
ATOM     24  C   UNL     1      -4.210   3.347  25.737  0.00  0.00    +0.001 A 
ATOM     25  C   UNL     1      -4.987   3.074  25.789  0.00  0.00    +0.000 A 
ATOM     26  C   UNL     1      -5.310   2.630  25.173  0.00  0.00    +0.000 A 
ATOM     27  C   UNL     1      -4.857   2.460  24.506  0.00  0.00    +0.000 A 
ATOM     28  C   UNL     1      -4.080   2.733  24.453  0.00  0.00    +0.001 A 
ENDBRANCH  18  23
ENDBRANCH  15  16
BRANCH   8   7
ATOM      7  C   UNL     1       0.891   1.088  23.707  0.00  0.00    +0.133 C 
BRANCH   7   6
ATOM      3  N   UNL     1       2.997   1.003  23.139  0.00  0.00    -0.187 NA
ATOM      4  C   UNL     1       2.192   0.826  23.175  0.00  0.00    +0.339 C 
ATOM      5  O   UNL     1       1.882   0.215  22.717  0.00  0.00    -0.249 OA
ATOM      6  N   UNL     1       1.696   1.263  23.671  0.00  0.00    -0.186 NA
BRANCH   3   2
ATOM      1  C   UNL     1       4.311   0.626  22.722  0.00  0.00    +0.025 C 
ATOM      2  C   UNL     1       3.493   0.566  22.644  0.00  0.00    +0.117 C 
ENDBRANCH   3   2
ENDBRANCH   7   6
ENDBRANCH   8   7
TORSDOF 5
ENDMDL
MODEL 3
REMARK VINA RESULT:      -9.6      2.108      2.969
REMARK  Name = 
REMARK  5 active torsions:
REMARK  status: ('A' for Active; 'I' for Inactive)
REMARK    1  A    between atoms: C_2  and  N_3
REMARK    2  A    between atoms: N_6  and  C_7
REMARK    3  A    between atoms: C_7  and  C_8
REMARK    4  A    between atoms: C_15  and  C_16
REMARK    5  A    between atoms: C_18  and  C_23
REMARK                            x       y       z     vdW  Elec       q    Type
REMARK                         _______ _______ _______ _____ _____    ______ ____
ROOT
ATOM      8  C   UNL     1       0.798   0.300  23.242  0.00  0.00    +0.079 C 
ATOM      9  C   UNL     1       0.177   0.687  23.509  0.00  0.00    +0.018 C 
ATOM     10  C   UNL     1      -0.411   0.374  23.969  0.00  0.00    +0.010 C 
ATOM     11  C   UNL     1      -1.036   0.984  24.171  0.00  0.00    +0.018 C 
ATOM     12  C   UNL     1      -0.486   0.765  23.896  0.00  0.00    +0.072 C 
ATOM     13  N   UNL     1       0.194  -0.011  23.711  0.00  0.00    -0.272 NA
ATOM     14  C   UNL     1       0.056  -0.846  24.052  0.00  0.00    +0.078 C 
ATOM     15  C   UNL     1      -0.538  -0.431  24.294  0.00  0.00    +0.056 C 
ENDROOT
BRANCH  15  16
ATOM     16  C   UNL     1      -1.168  -0.687  24.762  0.00  0.00    +0.063 A 
ATOM     17  C   UNL     1      -1.824  -1.043  24.412  0.00  0.00    +0.034 A 
ATOM     18  C   UNL     1      -2.453  -1.298  24.880  0.00  0.00    +0.084 A 
ATOM     19  N   UNL     1      -2.426  -1.197  25.699  0.00  0.00    -0.231 NA
ATOM     20  C   UNL     1      -1.770  -0.841  26.049  0.00  0.00    +0.139 A 
ATOM     21  C   UNL     1      -1.742  -0.740  26.867  0.00  0.00    +0.074 C 
ATOM     22  N   UNL     1      -1.140  -0.585  25.580  0.00  0.00    -0.235 NA
BRANCH  18  23
ATOM     23  C   UNL     1      -3.110  -1.655  24.531  0.00  0.00    +0.018 A 
ATOM     24  C   UNL     1      -3.719  -1.188  24.227  0.00  0.00    +0.001 A 
ATOM     25  C   UNL     1      -4.376  -1.544  23.878  0.00  0.00    +0.000 A 
ATOM     26  C   UNL     1      -4.424  -2.367  23.832  0.00  0.00    +0.000 A 
ATOM     27  C   UNL     1      -3.815  -2.832  24.135  0.00  0.00    +0.000 A 
ATOM     28  C   UNL     1      -3.158  -2.477  24.485  0.00  0.00    +0.001 A 
ENDBRANCH  18  23
ENDBRANCH  15  16
BRANCH   8   7
ATOM      7  C   UNL     1       1.504   0.245  22.820  0.00  0.00    +0.133 C 
BRANCH   7   6
ATOM      3  N   UNL     1       3.613   0.750  23.077  0.00  0.00    -0.187 NA
ATOM      4  C   UNL     1       2.923   0.419  22.769  0.00  0.00    +0.339 C 
ATOM      5  O   UNL     1       2.959  -0.066  22.103  0.00  0.00    -0.249 OA
ATOM      6  N   UNL     1       2.196   0.575  23.128  0.00  0.00    -0.186 NA
BRANCH   3   2
ATOM      1  C   UNL     1       5.027   0.565  23.174  0.00  0.00    +0.025 C 
ATOM      2  C   UNL     1       4.340   0.594  22.718  0.00  0.00    +0.117 C 
ENDBRANCH   3   2
ENDBRANCH   7   6
ENDBRANCH   8   7
TORSDOF 5
ENDMDL
MODEL 4
REMARK VINA RESULT:      -9.0      2.734      4.309
REMARK  Name = 
REMARK  5 active torsions:
REMARK  status: ('A' for Active; 'I' for Inactive)
REMARK    1  A    between atoms: C_2  and  N_3
REMARK    2  A    between atoms: N_6  and  C_7
REMARK    3  A    between atoms: C_7  and  C_8
REMARK    4  A    between atoms: C_15  and  C_16
REMARK    5  A    between atoms: C_18  and  C_23
REMARK                            x       y       z     vdW  Elec       q    Type
REMARK                         _______ _______ _______ _____ _____    ______ ____
ROOT
ATOM      8  C   UNL     1      -0.242   1.791  24.705  0.00  0.00    +0.079 C 
ATOM      9  C   UNL     1      -0.136   1.225  24.182  0.00  0.00    +0.018 C 
ATOM     10  C   UNL     1      -0.406   0.465  24.248  0.00  0.00    +0.010 C 
ATOM     11  C   UNL     1      -0.179  -0.033  23.538  0.00  0.00    +0.018 C 
ATOM     12  C   UNL     1      -0.205   0.510  23.899  0.00  0.00    +0.072 C 
ATOM     13  N   UNL     1      -0.514   1.014  24.765  0.00  0.00    -0.272 NA
ATOM     14  C   UNL     1      -0.993   0.584  25.412  0.00  0.00    +0.078 C 
ATOM     15  C   UNL     1      -0.867   0.057  24.873  0.00  0.00    +0.056 C 
ENDROOT
BRANCH  15  16
ATOM     16  C   UNL     1      -1.113  -0.731  24.879  0.00  0.00    +0.063 A 
ATOM     17  C   UNL     1      -1.883  -0.924  24.651  0.00  0.00    +0.034 A 
ATOM     18  C   UNL     1      -2.128  -1.711  24.656  0.00  0.00    +0.084 A 
ATOM     19  N   UNL     1      -1.605  -2.305  24.889  0.00  0.00    -0.231 NA
ATOM     20  C   UNL     1      -0.837  -2.112  25.117  0.00  0.00    +0.139 A 
ATOM     21  C   UNL     1      -0.313  -2.706  25.350  0.00  0.00    +0.074 C 
ATOM     22  N   UNL     1      -0.591  -1.324  25.112  0.00  0.00    -0.235 NA
BRANCH  18  23
ATOM     23  C   UNL     1      -2.897  -1.905  24.428  0.00  0.00    +0.018 A 
ATOM     24  C   UNL     1      -3.106  -2.695  24.316  0.00  0.00    +0.001 A 
ATOM     25  C   UNL     1      -3.875  -2.890  24.088  0.00  0.00    +0.000 A 
ATOM     26  C   UNL     1      -4.434  -2.294  23.973  0.00  0.00    +0.000 A 
ATOM     27  C   UNL     1      -4.225  -1.505  24.086  0.00  0.00    +0.000 A 
ATOM     28  C   UNL     1      -3.456  -1.310  24.314  0.00  0.00    +0.001 A 
ENDBRANCH  18  23
ENDBRANCH  15  16
BRANCH   8   7
ATOM      7  C   UNL     1      -0.152   2.562  24.983  0.00  0.00    +0.133 C 
BRANCH   7   6
ATOM      3  N   UNL     1      -1.104   4.508  24.702  0.00  0.00    -0.187 NA
ATOM      4  C   UNL     1      -0.669   3.895  25.042  0.00  0.00    +0.339 C 
ATOM      5  O   UNL     1      -0.315   3.999  25.780  0.00  0.00    -0.249 OA
ATOM      6  N   UNL     1      -0.588   3.176  24.643  0.00  0.00    -0.186 NA
BRANCH   3   2
ATOM      1  C   UNL     1      -1.867   5.679  25.000  0.00  0.00    +0.025 C 
ATOM      2  C   UNL     1      -1.185   5.226  25.101  0.00  0.00    +0.117 C 
ENDBRANCH   3   2
ENDBRANCH   7   6
ENDBRANCH   8   7
TORSDOF 5
ENDMDL
MODEL 5
REMARK VINA RESULT:      -8.7      2.581      4.232
REMARK  Name = 
REMARK  5 active torsions:
REMARK  status: ('A' for Active; 'I' for Inactive)
REMARK    1  A    between atoms: C_2  and  N_3
REMARK    2  A    between atoms: N_6  and  C_7
REMARK    3  A    between atoms: C_7  and  C_8
REMARK    4  A    between atoms: C_15  and  C_16
REMARK    5  A    between atoms: C_18  and  C_23
REMARK                            x       y       z     vdW  Elec       q    Type
REMARK                         _______ _______ _______ _____ _____    ______ ____
ROOT
ATOM      8  C   UNL     1      -1.242  -0.620  24.630  0.00  0.00    +0.079 C 
ATOM      9  C   UNL     1      -0.758  -0.082  24.343  0.00  0.00    +0.018 C 
ATOM     10  C   UNL     1      -0.590   0.632  24.685  0.00  0.00    +0.010 C 
ATOM     11  C   UNL     1      -0.008   1.108  24.196  0.00  0.00    +0.018 C 
ATOM     12  C   UNL     1      -0.385   0.593  24.339  0.00  0.00    +0.072 C 
ATOM     13  N   UNL     1      -1.066   0.110  24.973  0.00  0.00    -0.272 NA
ATOM     14  C   UNL     1      -1.351   0.509  25.743  0.00  0.00    +0.078 C 
ATOM     15  C   UNL     1      -0.869   1.009  25.427  0.00  0.00    +0.056 C 
ENDROOT
BRANCH  15  16
ATOM     16  C   UNL     1      -0.655   1.750  25.721  0.00  0.00    +0.063 A 
ATOM     17  C   UNL     1      -1.064   2.424  25.477  0.00  0.00    +0.034 A 
ATOM     18  C   UNL     1      -0.849   3.164  25.772  0.00  0.00    +0.084 A 
ATOM     19  N   UNL     1      -0.228   3.231  26.310  0.00  0.00    -0.231 NA
ATOM     20  C   UNL     1       0.180   2.557  26.553  0.00  0.00    +0.139 A 
ATOM     21  C   UNL     1       0.802   2.622  27.092  0.00  0.00    +0.074 C 
ATOM     22  N   UNL     1      -0.034   1.816  26.259  0.00  0.00    -0.235 NA
BRANCH  18  23
ATOM     23  C   UNL     1      -1.257   3.839  25.528  0.00  0.00    +0.018 A 
ATOM     24  C   UNL     1      -2.047   3.943  25.744  0.00  0.00    +0.001 A 
ATOM     25  C   UNL     1      -2.455   4.618  25.501  0.00  0.00    +0.000 A 
ATOM     26  C   UNL     1      -2.073   5.188  25.042  0.00  0.00    +0.000 A 
ATOM     27  C   UNL     1      -1.285   5.083  24.827  0.00  0.00    +0.000 A 
ATOM     28  C   UNL     1      -0.876   4.409  25.070  0.00  0.00    +0.001 A 
ENDBRANCH  18  23
ENDBRANCH  15  16
BRANCH   8   7
ATOM      7  C   UNL     1      -1.629  -1.348  24.610  0.00  0.00    +0.133 C 
BRANCH   7   6
ATOM      3  N   UNL     1      -3.558  -2.165  23.993  0.00  0.00    -0.187 NA
ATOM      4  C   UNL     1      -2.812  -2.105  24.342  0.00  0.00    +0.339 C 
ATOM      5  O   UNL     1      -2.504  -2.738  24.771  0.00  0.00    -0.249 OA
ATOM      6  N   UNL     1      -2.375  -1.409  24.261  0.00  0.00    -0.186 NA
BRANCH   3   2
ATOM      1  C   UNL     1      -4.715  -2.943  23.681  0.00  0.00    +0.025 C 
ATOM      2  C   UNL     1      -3.995  -2.861  24.074  0.00  0.00    +0.117 C 
ENDBRANCH   3   2
ENDBRANCH   7   6
ENDBRANCH   8   7
TORSDOF 5
ENDMDL
MODEL 6
REMARK VINA RESULT:      -8.6      1.106      2.163
REMARK  Name = 
REMARK  5 active torsions:
REMARK  status: ('A' for Active; 'I' for Inactive)
REMARK    1  A    between atoms: C_2  and  N_3
REMARK    2  A    between atoms: N_6  and  C_7
REMARK    3  A    between atoms: C_7  and  C_8
REMARK    4  A    between atoms: C_15  and  C_16
REMARK    5  A    between atoms: C_18  and  C_23
REMARK                            x       y       z     vdW  Elec       q    Type
REMARK                         _______ _______ _______ _____ _____    ______ ____
ROOT
ATOM      8  C   UNL     1       0.890   1.078  23.652  0.00  0.00    +0.079 C 
ATOM      9  C   UNL     1       0.550   1.336  24.303  0.00  0.00    +0.018 C 
ATOM     10  C   UNL     1      -0.241   1.480  24.396  0.00  0.00    +0.010 C 
ATOM     11  C   UNL     1      -0.433   1.772  25.222  0.00  0.00    +0.018 C 
ATOM     12  C   UNL     1      -0.045   1.562  24.740  0.00  0.00    +0.072 C 
ATOM     13  N   UNL     1       0.085   1.228  23.755  0.00  0.00    -0.272 NA
ATOM     14  C   UNL     1      -0.627   1.150  23.189  0.00  0.00    +0.078 C 
ATOM     15  C   UNL     1      -0.922   1.403  23.846  0.00  0.00    +0.056 C 
ENDROOT
BRANCH  15  16
ATOM     16  C   UNL     1      -1.714   1.569  24.007  0.00  0.00    +0.063 A 
ATOM     17  C   UNL     1      -2.244   0.953  24.150  0.00  0.00    +0.034 A 
ATOM     18  C   UNL     1      -3.035   1.119  24.310  0.00  0.00    +0.084 A 
ATOM     19  N   UNL     1      -3.298   1.901  24.327  0.00  0.00    -0.231 NA
ATOM     20  C   UNL     1      -2.768   2.517  24.184  0.00  0.00    +0.139 A 
ATOM     21  C   UNL     1      -3.030   3.299  24.200  0.00  0.00    +0.074 C 
ATOM     22  N   UNL     1      -1.976   2.351  24.023  0.00  0.00    -0.235 NA
BRANCH  18  23
ATOM     23  C   UNL     1      -3.566   0.503  24.454  0.00  0.00    +0.018 A 
ATOM     24  C   UNL     1      -3.738  -0.039  23.857  0.00  0.00    +0.001 A 
ATOM     25  C   UNL     1      -4.268  -0.654  24.000  0.00  0.00    +0.000 A 
ATOM     26  C   UNL     1      -4.626  -0.727  24.740  0.00  0.00    +0.000 A 
ATOM     27  C   UNL     1      -4.453  -0.185  25.336  0.00  0.00    +0.000 A 
ATOM     28  C   UNL     1      -3.923   0.431  25.194  0.00  0.00    +0.001 A 
ENDBRANCH  18  23
ENDBRANCH  15  16
BRANCH   8   7
ATOM      7  C   UNL     1       1.543   0.841  23.208  0.00  0.00    +0.133 C 
BRANCH   7   6
ATOM      3  N   UNL     1       3.723   0.929  23.303  0.00  0.00    -0.187 NA
ATOM      4  C   UNL     1       2.961   0.756  23.039  0.00  0.00    +0.339 C 
ATOM      5  O   UNL     1       2.852   0.326  22.344  0.00  0.00    -0.249 OA
ATOM      6  N   UNL     1       2.306   1.014  23.472  0.00  0.00    -0.186 NA
BRANCH   3   2
ATOM      1  C   UNL     1       5.097   0.539  23.251  0.00  0.00    +0.025 C 
ATOM      2  C   UNL     1       4.377   0.671  22.871  0.00  0.00    +0.117 C 
ENDBRANCH   3   2
ENDBRANCH   7   6
ENDBRANCH   8   7
TORSDOF 5
ENDMDL
MODEL 7
REMARK VINA RESULT:      -8.5      2.892      3.612
REMARK  Name = 
REMARK  5 active torsions:
REMARK  status: ('A' for Active; 'I' for Inactive)
REMARK    1  A    between atoms: C_2  and  N_3
REMARK    2  A    between atoms: N_6  and  C_7
REMARK    3  A    between atoms: C_7  and  C_8
REMARK    4  A    between atoms: C_15  and  C_16
REMARK    5  A    between atoms: C_18  and  C_23
REMARK                            x       y       z     vdW  Elec       q    Type
REMARK                         _______ _______ _______ _____ _____    ______ ____
ROOT
ATOM      8  C   UNL     1      -0.174   2.171  26.265  0.00  0.00    +0.079 C 
ATOM      9  C   UNL     1      -0.516   1.567  25.914  0.00  0.00    +0.018 C 
ATOM     10  C   UNL     1      -1.154   1.608  25.418  0.00  0.00    +0.010 C 
ATOM     11  C   UNL     1      -1.397   0.799  25.118  0.00  0.00    +0.018 C 
ATOM     12  C   UNL     1      -1.036   1.223  25.459  0.00  0.00    +0.072 C 
ATOM     13  N   UNL     1      -0.825   2.206  25.758  0.00  0.00    -0.272 NA
ATOM     14  C   UNL     1      -1.328   2.905  25.458  0.00  0.00    +0.078 C 
ATOM     15  C   UNL     1      -1.634   2.285  25.133  0.00  0.00    +0.056 C 
ENDROOT
BRANCH  15  16
ATOM     16  C   UNL     1      -2.281   2.258  24.621  0.00  0.00    +0.063 A 
ATOM     17  C   UNL     1      -3.048   2.252  24.926  0.00  0.00    +0.034 A 
ATOM     18  C   UNL     1      -3.694   2.224  24.415  0.00  0.00    +0.084 A 
ATOM     19  N   UNL     1      -3.575   2.203  23.598  0.00  0.00    -0.231 NA
ATOM     20  C   UNL     1      -2.808   2.210  23.294  0.00  0.00    +0.139 A 
ATOM     21  C   UNL     1      -2.688   2.189  22.478  0.00  0.00    +0.074 C 
ATOM     22  N   UNL     1      -2.161   2.237  23.806  0.00  0.00    -0.235 NA
BRANCH  18  23
ATOM     23  C   UNL     1      -4.462   2.218  24.719  0.00  0.00    +0.018 A 
ATOM     24  C   UNL     1      -4.898   1.517  24.721  0.00  0.00    +0.001 A 
ATOM     25  C   UNL     1      -5.664   1.510  25.024  0.00  0.00    +0.000 A 
ATOM     26  C   UNL     1      -5.995   2.204  25.326  0.00  0.00    +0.000 A 
ATOM     27  C   UNL     1      -5.559   2.903  25.324  0.00  0.00    +0.000 A 
ATOM     28  C   UNL     1      -4.792   2.911  25.020  0.00  0.00    +0.001 A 
ENDBRANCH  18  23
ENDBRANCH  15  16
BRANCH   8   7
ATOM      7  C   UNL     1       0.394   2.512  26.757  0.00  0.00    +0.133 C 
BRANCH   7   6
ATOM      3  N   UNL     1       1.134   2.302  28.800  0.00  0.00    -0.187 NA
ATOM      4  C   UNL     1       1.083   2.531  28.009  0.00  0.00    +0.339 C 
ATOM      5  O   UNL     1       1.670   3.008  27.679  0.00  0.00    -0.249 OA
ATOM      6  N   UNL     1       0.445   2.283  27.548  0.00  0.00    -0.186 NA
BRANCH   3   2
ATOM      1  C   UNL     1       1.845   2.288  30.039  0.00  0.00    +0.025 C 
ATOM      2  C   UNL     1       1.773   2.550  29.261  0.00  0.00    +0.117 C 
ENDBRANCH   3   2
ENDBRANCH   7   6
ENDBRANCH   8   7
TORSDOF 5
ENDMDL
MODEL 8
REMARK VINA RESULT:      -8.2      3.489      4.346
REMARK  Name = 
REMARK  5 active torsions:
REMARK  status: ('A' for Active; 'I' for Inactive)
REMARK    1  A    between atoms: C_2  and  N_3
REMARK    2  A    between atoms: N_6  and  C_7
REMARK    3  A    between atoms: C_7  and  C_8
REMARK    4  A    between atoms: C_15  and  C_16
REMARK    5  A    between atoms: C_18  and  C_23
REMARK                            x       y       z     vdW  Elec       q    Type
REMARK                         _______ _______ _______ _____ _____    ______ ____
ROOT
ATOM      8  C   UNL     1      -3.995   0.155  24.305  0.00  0.00    +0.079 C 
ATOM      9  C   UNL     1      -3.956   0.780  23.845  0.00  0.00    +0.018 C 
ATOM     10  C   UNL     1      -3.875   1.546  24.095  0.00  0.00    +0.010 C 
ATOM     11  C   UNL     1      -3.849   2.121  23.407  0.00  0.00    +0.018 C 
ATOM     12  C   UNL     1      -3.892   1.534  23.691  0.00  0.00    +0.072 C 
ATOM     13  N   UNL     1      -3.912   0.938  24.553  0.00  0.00    -0.272 NA
ATOM     14  C   UNL     1      -3.844   1.312  25.383  0.00  0.00    +0.078 C 
ATOM     15  C   UNL     1      -3.810   1.899  24.896  0.00  0.00    +0.056 C 
ENDROOT
BRANCH  15  16
ATOM     16  C   UNL     1      -3.728   2.699  25.084  0.00  0.00    +0.063 A 
ATOM     17  C   UNL     1      -2.986   3.057  25.046  0.00  0.00    +0.034 A 
ATOM     18  C   UNL     1      -2.905   3.856  25.234  0.00  0.00    +0.084 A 
ATOM     19  N   UNL     1      -3.565   4.297  25.460  0.00  0.00    -0.231 NA
ATOM     20  C   UNL     1      -4.306   3.938  25.497  0.00  0.00    +0.139 A 
ATOM     21  C   UNL     1      -4.967   4.378  25.723  0.00  0.00    +0.074 C 
ATOM     22  N   UNL     1      -4.388   3.138  25.309  0.00  0.00    -0.235 NA
BRANCH  18  23
ATOM     23  C   UNL     1      -2.162   4.216  25.196  0.00  0.00    +0.018 A 
ATOM     24  C   UNL     1      -2.101   5.010  24.982  0.00  0.00    +0.001 A 
ATOM     25  C   UNL     1      -1.360   5.370  24.944  0.00  0.00    +0.000 A 
ATOM     26  C   UNL     1      -0.680   4.936  25.121  0.00  0.00    +0.000 A 
ATOM     27  C   UNL     1      -0.743   4.142  25.335  0.00  0.00    +0.000 A 
ATOM     28  C   UNL     1      -1.484   3.781  25.373  0.00  0.00    +0.001 A 
ENDBRANCH  18  23
ENDBRANCH  15  16
BRANCH   8   7
ATOM      7  C   UNL     1      -4.064  -0.656  24.441  0.00  0.00    +0.133 C 
BRANCH   7   6
ATOM      3  N   UNL     1      -2.804  -2.410  24.124  0.00  0.00    -0.187 NA
ATOM      4  C   UNL     1      -3.338  -1.887  24.473  0.00  0.00    +0.339 C 
ATOM      5  O   UNL     1      -3.681  -2.071  25.201  0.00  0.00    -0.249 OA
ATOM      6  N   UNL     1      -3.530  -1.180  24.093  0.00  0.00    -0.186 NA
BRANCH   3   2
ATOM      1  C   UNL     1      -1.842  -3.410  24.469  0.00  0.00    +0.025 C 
ATOM      2  C   UNL     1      -2.612  -3.118  24.505  0.00  0.00    +0.117 C 
ENDBRANCH   3   2
ENDBRANCH   7   6
ENDBRANCH   8   7
TORSDOF 5
ENDMDL
