MODEL 1
REMARK VINA RESULT:     -11.9      0.000      0.000
REMARK  Name = 
REMARK  6 active torsions:
REMARK  status: ('A' for Active; 'I' for Inactive)
REMARK    1  A    between atoms: C_2  and  C_4
REMARK    2  A    between atoms: C_6  and  C_7
REMARK    3  A    between atoms: C_7  and  C_8
REMARK    4  A    between atoms: C_11  and  C_13
REMARK    5  A    between atoms: C_23  and  C_24
REMARK    6  A    between atoms: C_24  and  N_25
REMARK                            x       y       z     vdW  Elec       q    Type
REMARK                         _______ _______ _______ _____ _____    ______ ____
ROOT
ATOM      4  C   UNL     1      -1.807   2.101  24.747  0.00  0.00    +0.006 C 
ATOM      5  C   UNL     1      -2.409   1.665  24.390  0.00  0.00    +0.005 C 
ATOM      6  C   UNL     1      -3.100   2.044  24.142  0.00  0.00    +0.027 C 
ATOM     20  C   UNL     1      -3.187   2.857  24.251  0.00  0.00    -0.048 C 
ATOM     21  C   UNL     1      -3.876   3.235  24.003  0.00  0.00    +0.026 C 
ATOM     22  C   UNL     1      -2.583   3.292  24.609  0.00  0.00    -0.034 C 
ATOM     23  C   UNL     1      -1.894   2.914  24.857  0.00  0.00    +0.037 C 
ENDROOT
BRANCH   4   2
ATOM      1  C   UNL     1      -0.519   1.557  24.450  0.00  0.00    +0.000 C 
ATOM      2  C   UNL     1      -1.117   1.722  24.995  0.00  0.00    +0.000 C 
ATOM      3  C   UNL     1      -1.025   1.509  25.786  0.00  0.00    +0.000 C 
ENDBRANCH   4   2
BRANCH   6   7
ATOM      7  C   UNL     1      -3.702   1.609  23.785  0.00  0.00    +0.091 C 
BRANCH   7   8
ATOM      8  C   UNL     1      -3.955   0.900  24.121  0.00  0.00    +0.227 A 
ATOM      9  N   UNL     1      -4.573   0.814  24.662  0.00  0.00    -0.111 NA
ATOM     10  N   UNL     1      -4.635   0.013  24.852  0.00  0.00    -0.107 NA
ATOM     11  C   UNL     1      -4.055  -0.395  24.429  0.00  0.00    +0.250 A 
ATOM     12  O   UNL     1      -3.636   0.154  23.978  0.00  0.00    -0.420 OA
BRANCH  11  13
ATOM     13  C   UNL     1      -3.919  -1.208  24.453  0.00  0.00    +0.055 A 
ATOM     14  C   UNL     1      -4.230  -1.696  23.865  0.00  0.00    +0.004 A 
ATOM     15  C   UNL     1      -4.094  -2.509  23.888  0.00  0.00    -0.004 A 
ATOM     16  C   UNL     1      -3.648  -2.835  24.501  0.00  0.00    -0.022 A 
ATOM     17  C   UNL     1      -3.512  -3.649  24.524  0.00  0.00    +0.031 C 
ATOM     18  C   UNL     1      -3.337  -2.348  25.090  0.00  0.00    -0.004 A 
ATOM     19  C   UNL     1      -3.474  -1.534  25.066  0.00  0.00    +0.004 A 
ENDBRANCH  11  13
ENDBRANCH   7   8
ENDBRANCH   6   7
BRANCH  23  24
ATOM     24  C   UNL     1      -1.291   3.348  25.214  0.00  0.00    +0.077 C 
BRANCH  24  25
ATOM     25  N   UNL     1      -1.258   4.168  25.116  0.00  0.00    -0.268 NA
ATOM     26  C   UNL     1      -0.698   4.500  24.609  0.00  0.00    +0.105 C 
ATOM     27  C   UNL     1      -0.666   5.319  24.511  0.00  0.00    +0.159 C 
ATOM     28  O   UNL     1      -1.194   5.805  24.919  0.00  0.00    -0.351 OA
ATOM     29  C   UNL     1      -1.754   5.471  25.425  0.00  0.00    +0.159 C 
ATOM     30  C   UNL     1      -1.786   4.653  25.523  0.00  0.00    +0.105 C 
ENDBRANCH  24  25
ENDBRANCH  23  24
TORSDOF 6
ENDMDL
MODEL 2
REMARK VINA RESULT:     -11.9      1.467      5.854
REMARK  Name = 
REMARK  6 active torsions:
REMARK  status: ('A' for Active; 'I' for Inactive)
REMARK    1  A    between atoms: C_2  and  C_4
REMARK    2  A    between atoms: C_6  and  C_7
REMARK    3  A    between atoms: C_7  and  C_8
REMARK    4  A    between atoms: C_11  and  C_13
REMARK    5  A    between atoms: C_23  and  C_24
REMARK    6  A    between atoms: C_24  and  N_25
REMARK                            x       y       z     vdW  Elec       q    Type
REMARK                         _______ _______ _______ _____ _____    ______ ____
ROOT
ATOM      4  C   UNL     1      -3.047   0.305  24.789  0.00  0.00    +0.006 C 
ATOM      5  C   UNL     1      -2.339   0.727  24.784  0.00  0.00    +0.005 C 
ATOM      6  C   UNL     1      -1.621   0.330  24.875  0.00  0.00    +0.027 C 
ATOM     20  C   UNL     1      -1.613  -0.489  24.972  0.00  0.00    -0.048 C 
ATOM     21  C   UNL     1      -0.896  -0.886  25.063  0.00  0.00    +0.026 C 
ATOM     22  C   UNL     1      -2.322  -0.911  24.977  0.00  0.00    -0.034 C 
ATOM     23  C   UNL     1      -3.039  -0.515  24.886  0.00  0.00    +0.037 C 
ENDROOT
BRANCH   4   2
ATOM      1  C   UNL     1      -4.245   0.841  25.355  0.00  0.00    +0.000 C 
ATOM      2  C   UNL     1      -3.764   0.702  24.698  0.00  0.00    +0.000 C 
ATOM      3  C   UNL     1      -4.000   0.962  23.952  0.00  0.00    +0.000 C 
ENDBRANCH   4   2
BRANCH   6   7
ATOM      7  C   UNL     1      -0.913   0.752  24.870  0.00  0.00    +0.091 C 
BRANCH   7   8
ATOM      8  C   UNL     1      -0.873   1.495  25.224  0.00  0.00    +0.227 A 
ATOM      9  N   UNL     1      -0.593   1.656  25.984  0.00  0.00    -0.111 NA
ATOM     10  N   UNL     1      -0.653   2.470  26.111  0.00  0.00    -0.107 NA
ATOM     11  C   UNL     1      -0.971   2.811  25.430  0.00  0.00    +0.250 A 
ATOM     12  O   UNL     1      -1.107   2.209  24.882  0.00  0.00    -0.420 OA
BRANCH  11  13
ATOM     13  C   UNL     1      -1.125   3.613  25.317  0.00  0.00    +0.055 A 
ATOM     14  C   UNL     1      -0.578   4.087  24.920  0.00  0.00    +0.004 A 
ATOM     15  C   UNL     1      -0.732   4.889  24.806  0.00  0.00    -0.004 A 
ATOM     16  C   UNL     1      -1.434   5.218  25.089  0.00  0.00    -0.022 A 
ATOM     17  C   UNL     1      -1.588   6.021  24.975  0.00  0.00    +0.031 C 
ATOM     18  C   UNL     1      -1.981   4.746  25.486  0.00  0.00    -0.004 A 
ATOM     19  C   UNL     1      -1.826   3.942  25.599  0.00  0.00    +0.004 A 
ENDBRANCH  11  13
ENDBRANCH   7   8
ENDBRANCH   6   7
BRANCH  23  24
ATOM     24  C   UNL     1      -3.747  -0.936  24.891  0.00  0.00    +0.077 C 
BRANCH  24  25
ATOM     25  N   UNL     1      -3.753  -1.736  24.685  0.00  0.00    -0.268 NA
ATOM     26  C   UNL     1      -3.967  -1.963  23.920  0.00  0.00    +0.105 C 
ATOM     27  C   UNL     1      -3.972  -2.762  23.714  0.00  0.00    +0.159 C 
ATOM     28  O   UNL     1      -3.765  -3.334  24.273  0.00  0.00    -0.351 OA
ATOM     29  C   UNL     1      -3.551  -3.106  25.036  0.00  0.00    +0.159 C 
ATOM     30  C   UNL     1      -3.545  -2.307  25.242  0.00  0.00    +0.105 C 
ENDBRANCH  24  25
ENDBRANCH  23  24
TORSDOF 6
ENDMDL
MODEL 3
REMARK VINA RESULT:     -11.0      1.102      1.998
REMARK  Name = 
REMARK  6 active torsions:
REMARK  status: ('A' for Active; 'I' for Inactive)
REMARK    1  A    between atoms: C_2  and  C_4
REMARK    2  A    between atoms: C_6  and  C_7
REMARK    3  A    between atoms: C_7  and  C_8
REMARK    4  A    between atoms: C_11  and  C_13
REMARK    5  A    between atoms: C_23  and  C_24
REMARK    6  A    between atoms: C_24  and  N_25
REMARK                            x       y       z     vdW  Elec       q    Type
REMARK                         _______ _______ _______ _____ _____    ______ ____
ROOT
ATOM      4  C   UNL     1      -2.070   1.972  24.035  0.00  0.00    +0.006 C 
ATOM      5  C   UNL     1      -1.849   1.220  24.292  0.00  0.00    +0.005 C 
ATOM      6  C   UNL     1      -1.307   1.139  24.910  0.00  0.00    +0.027 C 
ATOM     20  C   UNL     1      -0.987   1.809  25.269  0.00  0.00    -0.048 C 
ATOM     21  C   UNL     1      -0.447   1.727  25.886  0.00  0.00    +0.026 C 
ATOM     22  C   UNL     1      -1.209   2.561  25.011  0.00  0.00    -0.034 C 
ATOM     23  C   UNL     1      -1.750   2.643  24.394  0.00  0.00    +0.037 C 
ENDROOT
BRANCH   4   2
ATOM      1  C   UNL     1      -3.413   2.159  23.584  0.00  0.00    +0.000 C 
ATOM      2  C   UNL     1      -2.611   2.053  23.417  0.00  0.00    +0.000 C 
ATOM      3  C   UNL     1      -2.352   2.029  22.636  0.00  0.00    +0.000 C 
ENDBRANCH   4   2
BRANCH   6   7
ATOM      7  C   UNL     1      -1.086   0.387  25.167  0.00  0.00    +0.091 C 
BRANCH   7   8
ATOM      8  C   UNL     1      -1.660  -0.188  25.301  0.00  0.00    +0.227 A 
ATOM      9  N   UNL     1      -1.945  -0.428  26.038  0.00  0.00    -0.111 NA
ATOM     10  N   UNL     1      -2.513  -1.014  25.914  0.00  0.00    -0.107 NA
ATOM     11  C   UNL     1      -2.579  -1.137  25.101  0.00  0.00    +0.250 A 
ATOM     12  O   UNL     1      -2.052  -0.627  24.722  0.00  0.00    -0.420 OA
BRANCH  11  13
ATOM     13  C   UNL     1      -3.082  -1.675  24.732  0.00  0.00    +0.055 A 
ATOM     14  C   UNL     1      -3.741  -1.405  24.314  0.00  0.00    +0.004 A 
ATOM     15  C   UNL     1      -4.245  -1.942  23.944  0.00  0.00    -0.004 A 
ATOM     16  C   UNL     1      -4.091  -2.752  23.992  0.00  0.00    -0.022 A 
ATOM     17  C   UNL     1      -4.595  -3.290  23.621  0.00  0.00    +0.031 C 
ATOM     18  C   UNL     1      -3.433  -3.023  24.408  0.00  0.00    -0.004 A 
ATOM     19  C   UNL     1      -2.929  -2.484  24.779  0.00  0.00    +0.004 A 
ENDBRANCH  11  13
ENDBRANCH   7   8
ENDBRANCH   6   7
BRANCH  23  24
ATOM     24  C   UNL     1      -1.971   3.394  24.136  0.00  0.00    +0.077 C 
BRANCH  24  25
ATOM     25  N   UNL     1      -1.756   4.060  24.574  0.00  0.00    -0.268 NA
ATOM     26  C   UNL     1      -2.256   4.343  25.167  0.00  0.00    +0.105 C 
ATOM     27  C   UNL     1      -2.041   5.009  25.604  0.00  0.00    +0.159 C 
ATOM     28  O   UNL     1      -1.327   5.392  25.448  0.00  0.00    -0.351 OA
ATOM     29  C   UNL     1      -0.828   5.108  24.856  0.00  0.00    +0.159 C 
ATOM     30  C   UNL     1      -1.043   4.443  24.419  0.00  0.00    +0.105 C 
ENDBRANCH  24  25
ENDBRANCH  23  24
TORSDOF 6
ENDMDL
MODEL 4
REMARK VINA RESULT:     -10.8      1.412      5.512
REMARK  Name = 
REMARK  6 active torsions:
REMARK  status: ('A' for Active; 'I' for Inactive)
REMARK    1  A    between atoms: C_2  and  C_4
REMARK    2  A    between atoms: C_6  and  C_7
REMARK    3  A    between atoms: C_7  and  C_8
REMARK    4  A    between atoms: C_11  and  C_13
REMARK    5  A    between atoms: C_23  and  C_24
REMARK    6  A    between atoms: C_24  and  N_25
REMARK                            x       y       z     vdW  Elec       q    Type
REMARK                         _______ _______ _______ _____ _____    ______ ____
ROOT
ATOM      4  C   UNL     1      -2.378   0.291  24.714  0.00  0.00    +0.006 C 
ATOM      5  C   UNL     1      -2.744   1.026  24.649  0.00  0.00    +0.005 C 
ATOM      6  C   UNL     1      -3.569   1.077  24.641  0.00  0.00    +0.027 C 
ATOM     20  C   UNL     1      -4.024   0.392  24.697  0.00  0.00    -0.048 C 
ATOM     21  C   UNL     1      -4.847   0.442  24.688  0.00  0.00    +0.026 C 
ATOM     22  C   UNL     1      -3.656  -0.344  24.761  0.00  0.00    -0.034 C 
ATOM     23  C   UNL     1      -2.834  -0.395  24.770  0.00  0.00    +0.037 C 
ENDROOT
BRANCH   4   2
ATOM      1  C   UNL     1      -1.134   0.241  24.011  0.00  0.00    +0.000 C 
ATOM      2  C   UNL     1      -1.554   0.241  24.722  0.00  0.00    +0.000 C 
ATOM      3  C   UNL     1      -1.151   0.190  25.439  0.00  0.00    +0.000 C 
ENDBRANCH   4   2
BRANCH   6   7
ATOM      7  C   UNL     1      -3.935   1.813  24.576  0.00  0.00    +0.091 C 
BRANCH   7   8
ATOM      8  C   UNL     1      -3.605   2.472  24.944  0.00  0.00    +0.227 A 
ATOM      9  N   UNL     1      -3.835   2.789  25.670  0.00  0.00    -0.111 NA
ATOM     10  N   UNL     1      -3.358   3.444  25.825  0.00  0.00    -0.107 NA
ATOM     11  C   UNL     1      -2.833   3.532  25.195  0.00  0.00    +0.250 A 
ATOM     12  O   UNL     1      -2.986   2.931  24.650  0.00  0.00    -0.420 OA
BRANCH  11  13
ATOM     13  C   UNL     1      -2.257   4.118  25.122  0.00  0.00    +0.055 A 
ATOM     14  C   UNL     1      -1.463   3.908  25.043  0.00  0.00    +0.004 A 
ATOM     15  C   UNL     1      -0.886   4.493  24.970  0.00  0.00    -0.004 A 
ATOM     16  C   UNL     1      -1.104   5.289  24.975  0.00  0.00    -0.022 A 
ATOM     17  C   UNL     1      -0.527   5.875  24.902  0.00  0.00    +0.031 C 
ATOM     18  C   UNL     1      -1.897   5.500  25.054  0.00  0.00    -0.004 A 
ATOM     19  C   UNL     1      -2.474   4.913  25.127  0.00  0.00    +0.004 A 
ENDBRANCH  11  13
ENDBRANCH   7   8
ENDBRANCH   6   7
BRANCH  23  24
ATOM     24  C   UNL     1      -2.466  -1.130  24.834  0.00  0.00    +0.077 C 
BRANCH  24  25
ATOM     25  N   UNL     1      -2.912  -1.822  24.762  0.00  0.00    -0.268 NA
ATOM     26  C   UNL     1      -3.108  -2.109  24.013  0.00  0.00    +0.105 C 
ATOM     27  C   UNL     1      -3.553  -2.800  23.941  0.00  0.00    +0.159 C 
ATOM     28  O   UNL     1      -3.801  -3.204  24.617  0.00  0.00    -0.351 OA
ATOM     29  C   UNL     1      -3.604  -2.916  25.365  0.00  0.00    +0.159 C 
ATOM     30  C   UNL     1      -3.160  -2.225  25.437  0.00  0.00    +0.105 C 
ENDBRANCH  24  25
ENDBRANCH  23  24
TORSDOF 6
ENDMDL
MODEL 5
REMARK VINA RESULT:     -10.6      2.599      3.974
REMARK  Name = 
REMARK  6 active torsions:
REMARK  status: ('A' for Active; 'I' for Inactive)
REMARK    1  A    between atoms: C_2  and  C_4
REMARK    2  A    between atoms: C_6  and  C_7
REMARK    3  A    between atoms: C_7  and  C_8
REMARK    4  A    between atoms: C_11  and  C_13
REMARK    5  A    between atoms: C_23  and  C_24
REMARK    6  A    between atoms: C_24  and  N_25
REMARK                            x       y       z     vdW  Elec       q    Type
REMARK                         _______ _______ _______ _____ _____    ______ ____
ROOT
ATOM      4  C   UNL     1      -1.187   2.476  24.478  0.00  0.00    +0.006 C 
ATOM      5  C   UNL     1      -1.862   2.857  24.195  0.00  0.00    +0.005 C 
ATOM      6  C   UNL     1      -2.269   2.547  23.547  0.00  0.00    +0.027 C 
ATOM     20  C   UNL     1      -2.001   1.857  23.183  0.00  0.00    -0.048 C 
ATOM     21  C   UNL     1      -2.408   1.548  22.536  0.00  0.00    +0.026 C 
ATOM     22  C   UNL     1      -1.327   1.476  23.467  0.00  0.00    -0.034 C 
ATOM     23  C   UNL     1      -0.920   1.785  24.114  0.00  0.00    +0.037 C 
ENDROOT
BRANCH   4   2
ATOM      1  C   UNL     1      -0.976   2.542  25.890  0.00  0.00    +0.000 C 
ATOM      2  C   UNL     1      -0.781   2.786  25.126  0.00  0.00    +0.000 C 
ATOM      3  C   UNL     1      -0.180   3.338  25.010  0.00  0.00    +0.000 C 
ENDBRANCH   4   2
BRANCH   6   7
ATOM      7  C   UNL     1      -2.943   2.928  23.264  0.00  0.00    +0.091 C 
BRANCH   7   8
ATOM      8  C   UNL     1      -3.565   3.101  23.776  0.00  0.00    +0.227 A 
ATOM      9  N   UNL     1      -3.856   3.854  23.949  0.00  0.00    -0.111 NA
ATOM     10  N   UNL     1      -4.478   3.769  24.486  0.00  0.00    -0.107 NA
ATOM     11  C   UNL     1      -4.571   2.965  24.644  0.00  0.00    +0.250 A 
ATOM     12  O   UNL     1      -4.007   2.552  24.205  0.00  0.00    -0.420 OA
BRANCH  11  13
ATOM     13  C   UNL     1      -5.129   2.632  25.152  0.00  0.00    +0.055 A 
ATOM     14  C   UNL     1      -5.256   2.960  25.898  0.00  0.00    +0.004 A 
ATOM     15  C   UNL     1      -5.814   2.628  26.407  0.00  0.00    -0.004 A 
ATOM     16  C   UNL     1      -6.245   1.965  26.168  0.00  0.00    -0.022 A 
ATOM     17  C   UNL     1      -6.804   1.632  26.676  0.00  0.00    +0.031 C 
ATOM     18  C   UNL     1      -6.119   1.636  25.422  0.00  0.00    -0.004 A 
ATOM     19  C   UNL     1      -5.560   1.970  24.914  0.00  0.00    +0.004 A 
ENDBRANCH  11  13
ENDBRANCH   7   8
ENDBRANCH   6   7
BRANCH  23  24
ATOM     24  C   UNL     1      -0.246   1.405  24.398  0.00  0.00    +0.077 C 
BRANCH  24  25
ATOM     25  N   UNL     1      -0.069   0.638  24.148  0.00  0.00    -0.268 NA
ATOM     26  C   UNL     1      -0.417  -0.009  24.524  0.00  0.00    +0.105 C 
ATOM     27  C   UNL     1      -0.240  -0.775  24.274  0.00  0.00    +0.159 C 
ATOM     28  O   UNL     1       0.285  -0.895  23.648  0.00  0.00    -0.351 OA
ATOM     29  C   UNL     1       0.633  -0.247  23.273  0.00  0.00    +0.159 C 
ATOM     30  C   UNL     1       0.456   0.519  23.523  0.00  0.00    +0.105 C 
ENDBRANCH  24  25
ENDBRANCH  23  24
TORSDOF 6
ENDMDL
MODEL 6
REMARK VINA RESULT:     -10.2      1.816      2.560
REMARK  Name = 
REMARK  6 active torsions:
REMARK  status: ('A' for Active; 'I' for Inactive)
REMARK    1  A    between atoms: C_2  and  C_4
REMARK    2  A    between atoms: C_6  and  C_7
REMARK    3  A    between atoms: C_7  and  C_8
REMARK    4  A    between atoms: C_11  and  C_13
REMARK    5  A    between atoms: C_23  and  C_24
REMARK    6  A    between atoms: C_24  and  N_25
REMARK                            x       y       z     vdW  Elec       q    Type
REMARK                         _______ _______ _______ _____ _____    ______ ____
ROOT
ATOM      4  C   UNL     1      -2.212   3.168  24.992  0.00  0.00    +0.006 C 
ATOM      5  C   UNL     1      -1.816   2.601  24.542  0.00  0.00    +0.005 C 
ATOM      6  C   UNL     1      -2.211   2.213  23.929  0.00  0.00    +0.027 C 
ATOM     20  C   UNL     1      -3.000   2.392  23.767  0.00  0.00    -0.048 C 
ATOM     21  C   UNL     1      -3.393   2.005  23.155  0.00  0.00    +0.026 C 
ATOM     22  C   UNL     1      -3.394   2.959  24.219  0.00  0.00    -0.034 C 
ATOM     23  C   UNL     1      -3.001   3.347  24.831  0.00  0.00    +0.037 C 
ENDROOT
BRANCH   4   2
ATOM      1  C   UNL     1      -1.526   4.319  25.489  0.00  0.00    +0.000 C 
ATOM      2  C   UNL     1      -1.818   3.555  25.605  0.00  0.00    +0.000 C 
ATOM      3  C   UNL     1      -1.715   3.180  26.331  0.00  0.00    +0.000 C 
ENDBRANCH   4   2
BRANCH   6   7
ATOM      7  C   UNL     1      -1.815   1.647  23.478  0.00  0.00    +0.091 C 
BRANCH   7   8
ATOM      8  C   UNL     1      -1.658   0.903  23.796  0.00  0.00    +0.227 A 
ATOM      9  N   UNL     1      -0.913   0.608  23.995  0.00  0.00    -0.111 NA
ATOM     10  N   UNL     1      -1.013  -0.155  24.293  0.00  0.00    -0.107 NA
ATOM     11  C   UNL     1      -1.819  -0.332  24.278  0.00  0.00    +0.250 A 
ATOM     12  O   UNL     1      -2.217   0.323  23.971  0.00  0.00    -0.420 OA
BRANCH  11  13
ATOM     13  C   UNL     1      -2.166  -1.038  24.526  0.00  0.00    +0.055 A 
ATOM     14  C   UNL     1      -1.870  -1.760  24.258  0.00  0.00    +0.004 A 
ATOM     15  C   UNL     1      -2.216  -2.466  24.506  0.00  0.00    -0.004 A 
ATOM     16  C   UNL     1      -2.859  -2.450  25.022  0.00  0.00    -0.022 A 
ATOM     17  C   UNL     1      -3.206  -3.157  25.270  0.00  0.00    +0.031 C 
ATOM     18  C   UNL     1      -3.156  -1.729  25.291  0.00  0.00    -0.004 A 
ATOM     19  C   UNL     1      -2.809  -1.022  25.042  0.00  0.00    +0.004 A 
ENDBRANCH  11  13
ENDBRANCH   7   8
ENDBRANCH   6   7
BRANCH  23  24
ATOM     24  C   UNL     1      -3.396   3.913  25.281  0.00  0.00    +0.077 C 
BRANCH  24  25
ATOM     25  N   UNL     1      -4.206   3.838  25.421  0.00  0.00    -0.268 NA
ATOM     26  C   UNL     1      -4.486   3.236  25.912  0.00  0.00    +0.105 C 
ATOM     27  C   UNL     1      -5.296   3.161  26.051  0.00  0.00    +0.159 C 
ATOM     28  O   UNL     1      -5.826   3.688  25.700  0.00  0.00    -0.351 OA
ATOM     29  C   UNL     1      -5.545   4.289  25.210  0.00  0.00    +0.159 C 
ATOM     30  C   UNL     1      -4.735   4.364  25.070  0.00  0.00    +0.105 C 
ENDBRANCH  24  25
ENDBRANCH  23  24
TORSDOF 6
ENDMDL
MODEL 7
REMARK VINA RESULT:     -10.2      2.215      3.556
REMARK  Name = 
REMARK  6 active torsions:
REMARK  status: ('A' for Active; 'I' for Inactive)
REMARK    1  A    between atoms: C_2  and  C_4
REMARK    2  A    between atoms: C_6  and  C_7
REMARK    3  A    between atoms: C_7  and  C_8
REMARK    4  A    between atoms: C_11  and  C_13
REMARK    5  A    between atoms: C_23  and  C_24
REMARK    6  A    between atoms: C_24  and  N_25
REMARK                            x       y       z     vdW  Elec       q    Type
REMARK                         _______ _______ _______ _____ _____    ______ ____
ROOT
ATOM      4  C   UNL     1      -2.984   2.771  23.890  0.00  0.00    +0.006 C 
ATOM      5  C   UNL     1      -2.179   2.692  24.050  0.00  0.00    +0.005 C 
ATOM      6  C   UNL     1      -1.877   2.944  24.776  0.00  0.00    +0.027 C 
ATOM     20  C   UNL     1      -2.380   3.275  25.340  0.00  0.00    -0.048 C 
ATOM     21  C   UNL     1      -2.079   3.527  26.065  0.00  0.00    +0.026 C 
ATOM     22  C   UNL     1      -3.186   3.353  25.178  0.00  0.00    -0.034 C 
ATOM     23  C   UNL     1      -3.487   3.101  24.453  0.00  0.00    +0.037 C 
ENDROOT
BRANCH   4   2
ATOM      1  C   UNL     1      -3.438   1.717  23.038  0.00  0.00    +0.000 C 
ATOM      2  C   UNL     1      -3.285   2.518  23.164  0.00  0.00    +0.000 C 
ATOM      3  C   UNL     1      -3.433   3.066  22.566  0.00  0.00    +0.000 C 
ENDBRANCH   4   2
BRANCH   6   7
ATOM      7  C   UNL     1      -1.072   2.866  24.937  0.00  0.00    +0.091 C 
BRANCH   7   8
ATOM      8  C   UNL     1      -0.700   2.137  24.835  0.00  0.00    +0.227 A 
ATOM      9  N   UNL     1       0.069   2.020  24.557  0.00  0.00    -0.111 NA
ATOM     10  N   UNL     1       0.213   1.208  24.542  0.00  0.00    -0.107 NA
ATOM     11  C   UNL     1      -0.466   0.823  24.811  0.00  0.00    +0.250 A 
ATOM     12  O   UNL     1      -1.030   1.398  24.992  0.00  0.00    -0.420 OA
BRANCH  11  13
ATOM     13  C   UNL     1      -0.564   0.008  24.886  0.00  0.00    +0.055 A 
ATOM     14  C   UNL     1      -0.885  -0.308  25.577  0.00  0.00    +0.004 A 
ATOM     15  C   UNL     1      -0.984  -1.123  25.653  0.00  0.00    -0.004 A 
ATOM     16  C   UNL     1      -0.760  -1.624  25.036  0.00  0.00    -0.022 A 
ATOM     17  C   UNL     1      -0.858  -2.440  25.112  0.00  0.00    +0.031 C 
ATOM     18  C   UNL     1      -0.438  -1.310  24.345  0.00  0.00    -0.004 A 
ATOM     19  C   UNL     1      -0.340  -0.493  24.270  0.00  0.00    +0.004 A 
ENDBRANCH  11  13
ENDBRANCH   7   8
ENDBRANCH   6   7
BRANCH  23  24
ATOM     24  C   UNL     1      -4.292   3.180  24.292  0.00  0.00    +0.077 C 
BRANCH  24  25
ATOM     25  N   UNL     1      -4.840   3.172  24.910  0.00  0.00    -0.268 NA
ATOM     26  C   UNL     1      -5.111   2.454  25.211  0.00  0.00    +0.105 C 
ATOM     27  C   UNL     1      -5.658   2.446  25.828  0.00  0.00    +0.159 C 
ATOM     28  O   UNL     1      -5.934   3.158  26.144  0.00  0.00    -0.351 OA
ATOM     29  C   UNL     1      -5.662   3.875  25.842  0.00  0.00    +0.159 C 
ATOM     30  C   UNL     1      -5.115   3.883  25.225  0.00  0.00    +0.105 C 
ENDBRANCH  24  25
ENDBRANCH  23  24
TORSDOF 6
ENDMDL
