MODEL 1
REMARK VINA RESULT:      -9.4      0.000      0.000
REMARK  Name = 
REMARK  7 active torsions:
REMARK  status: ('A' for Active; 'I' for Inactive)
REMARK    1  A    between atoms: C_3  and  C_4
REMARK    2  A    between atoms: N_6  and  C_7
REMARK    3  A    between atoms: C_11  and  O_15
REMARK    4  A    between atoms: O_15  and  C_16
REMARK    5  A    between atoms: N_18  and  C_19
REMARK    6  A    between atoms: C_22  and  O_23
REMARK    7  A    between atoms: O_23  and  C_24
REMARK                            x       y       z     vdW  Elec       q    Type
REMARK                         _______ _______ _______ _____ _____    ______ ____
ROOT
ATOM      7  C   UNL     1      -2.293   1.589  24.465  0.00  0.00    +0.155 C 
ATOM      8  C   UNL     1      -2.493   1.485  23.672  0.00  0.00    +0.166 C 
ATOM      9  O   UNL     1      -1.950   0.960  23.340  0.00  0.00    -0.348 OA
ATOM     10  C   UNL     1      -1.415   0.740  23.927  0.00  0.00    +0.186 C 
ATOM     11  C   UNL     1      -0.749   0.280  24.086  0.00  0.00    +0.229 C 
ATOM     12  C   UNL     1      -0.549   0.384  24.879  0.00  0.00    +0.188 C 
ATOM     13  O   UNL     1      -1.092   0.909  25.211  0.00  0.00    -0.348 OA
ATOM     14  C   UNL     1      -1.628   1.129  24.623  0.00  0.00    +0.168 C 
ENDROOT
BRANCH   7   6
ATOM      4  C   UNL     1      -3.069   2.756  24.748  0.00  0.00    +0.269 C 
ATOM      5  O   UNL     1      -3.051   2.961  23.948  0.00  0.00    -0.268 OA
ATOM      6  N   UNL     1      -2.690   2.070  25.006  0.00  0.00    -0.198 NA
BRANCH   4   3
ATOM      1  C   UNL     1      -2.357   4.126  25.663  0.00  0.00    +0.076 C 
ATOM      2  C   UNL     1      -3.139   3.866  25.709  0.00  0.00    +0.159 A 
ATOM      3  C   UNL     1      -3.466   3.236  25.288  0.00  0.00    +0.105 A 
ATOM     32  C   UNL     1      -4.260   3.171  25.503  0.00  0.00    +0.105 A 
ATOM     33  C   UNL     1      -4.796   2.614  25.215  0.00  0.00    +0.056 C 
ATOM     34  N   UNL     1      -4.424   3.761  26.056  0.00  0.00    -0.082 NA
ATOM     35  O   UNL     1      -3.731   4.191  26.183  0.00  0.00    -0.358 OA
ENDBRANCH   4   3
ENDBRANCH   7   6
BRANCH  11  15
ATOM     15  O   UNL     1      -0.352  -0.201  23.545  0.00  0.00    -0.432 OA
BRANCH  15  16
ATOM     16  C   UNL     1       0.468  -0.147  23.469  0.00  0.00    +0.425 C 
ATOM     17  O   UNL     1       0.958  -0.508  24.024  0.00  0.00    -0.224 OA
ATOM     18  N   UNL     1       0.797   0.269  22.837  0.00  0.00    -0.142 NA
BRANCH  18  19
ATOM     19  C   UNL     1       1.617   0.323  22.761  0.00  0.00    +0.077 A 
ATOM     20  C   UNL     1       2.025  -0.222  22.297  0.00  0.00    +0.020 A 
ATOM     21  C   UNL     1       2.844  -0.168  22.221  0.00  0.00    +0.039 A 
ATOM     22  C   UNL     1       3.256   0.433  22.608  0.00  0.00    +0.145 A 
ATOM     30  C   UNL     1       2.847   0.979  23.073  0.00  0.00    +0.039 A 
ATOM     31  C   UNL     1       2.028   0.924  23.149  0.00  0.00    +0.020 A 
BRANCH  22  23
ATOM     23  O   UNL     1       4.074   0.488  22.532  0.00  0.00    -0.453 OA
BRANCH  23  24
ATOM     24  C   UNL     1       4.565   0.185  23.123  0.00  0.00    +0.145 A 
ATOM     25  C   UNL     1       5.052   0.692  23.555  0.00  0.00    +0.037 A 
ATOM     26  C   UNL     1       5.542   0.389  24.146  0.00  0.00    +0.003 A 
ATOM     27  C   UNL     1       5.544  -0.420  24.305  0.00  0.00    +0.000 A 
ATOM     28  C   UNL     1       5.057  -0.927  23.874  0.00  0.00    +0.003 A 
ATOM     29  C   UNL     1       4.567  -0.624  23.283  0.00  0.00    +0.037 A 
ENDBRANCH  23  24
ENDBRANCH  22  23
ENDBRANCH  18  19
ENDBRANCH  15  16
ENDBRANCH  11  15
TORSDOF 7
ENDMDL
MODEL 2
REMARK VINA RESULT:      -8.0      1.405      7.473
REMARK  Name = 
REMARK  7 active torsions:
REMARK  status: ('A' for Active; 'I' for Inactive)
REMARK    1  A    between atoms: C_3  and  C_4
REMARK    2  A    between atoms: N_6  and  C_7
REMARK    3  A    between atoms: C_11  and  O_15
REMARK    4  A    between atoms: O_15  and  C_16
REMARK    5  A    between atoms: N_18  and  C_19
REMARK    6  A    between atoms: C_22  and  O_23
REMARK    7  A    between atoms: O_23  and  C_24
REMARK                            x       y       z     vdW  Elec       q    Type
REMARK                         _______ _______ _______ _____ _____    ______ ____
ROOT
ATOM      7  C   UNL     1       2.068   0.255  23.083  0.00  0.00    +0.155 C 
ATOM      8  C   UNL     1       1.801  -0.295  22.529  0.00  0.00    +0.166 C 
ATOM      9  O   UNL     1       0.976  -0.292  22.546  0.00  0.00    -0.348 OA
ATOM     10  C   UNL     1       0.734   0.258  23.109  0.00  0.00    +0.186 C 
ATOM     11  C   UNL     1       0.075   0.601  23.469  0.00  0.00    +0.229 C 
ATOM     12  C   UNL     1       0.343   1.150  24.023  0.00  0.00    +0.188 C 
ATOM     13  O   UNL     1       1.167   1.148  24.006  0.00  0.00    -0.348 OA
ATOM     14  C   UNL     1       1.409   0.597  23.441  0.00  0.00    +0.168 C 
ENDROOT
BRANCH   7   6
ATOM      4  C   UNL     1       3.454  -0.089  23.018  0.00  0.00    +0.269 C 
ATOM      5  O   UNL     1       3.262  -0.787  22.621  0.00  0.00    -0.268 OA
ATOM      6  N   UNL     1       2.857   0.432  23.249  0.00  0.00    -0.198 NA
BRANCH   4   3
ATOM      1  C   UNL     1       4.334   1.390  22.508  0.00  0.00    +0.076 C 
ATOM      2  C   UNL     1       4.647   0.767  22.949  0.00  0.00    +0.159 A 
ATOM      3  C   UNL     1       4.242   0.087  23.183  0.00  0.00    +0.105 A 
ATOM     32  C   UNL     1       4.766  -0.386  23.613  0.00  0.00    +0.105 A 
ATOM     33  C   UNL     1       4.591  -1.117  23.951  0.00  0.00    +0.056 C 
ATOM     34  N   UNL     1       5.493   0.002  23.643  0.00  0.00    -0.082 NA
ATOM     35  O   UNL     1       5.420   0.715  23.233  0.00  0.00    -0.358 OA
ENDBRANCH   4   3
ENDBRANCH   7   6
BRANCH  11  15
ATOM     15  O   UNL     1      -0.714   0.424  23.303  0.00  0.00    -0.432 OA
BRANCH  15  16
ATOM     16  C   UNL     1      -1.306   0.969  23.486  0.00  0.00    +0.425 C 
ATOM     17  O   UNL     1      -1.210   1.764  23.289  0.00  0.00    -0.224 OA
ATOM     18  N   UNL     1      -1.994   0.719  23.865  0.00  0.00    -0.142 NA
BRANCH  18  19
ATOM     19  C   UNL     1      -2.587   1.263  24.048  0.00  0.00    +0.077 A 
ATOM     20  C   UNL     1      -2.612   1.610  24.795  0.00  0.00    +0.020 A 
ATOM     21  C   UNL     1      -3.204   2.154  24.978  0.00  0.00    +0.039 A 
ATOM     22  C   UNL     1      -3.772   2.352  24.412  0.00  0.00    +0.145 A 
ATOM     30  C   UNL     1      -3.746   2.005  23.664  0.00  0.00    +0.039 A 
ATOM     31  C   UNL     1      -3.154   1.461  23.482  0.00  0.00    +0.020 A 
BRANCH  22  23
ATOM     23  O   UNL     1      -4.363   2.896  24.594  0.00  0.00    -0.453 OA
BRANCH  23  24
ATOM     24  C   UNL     1      -5.021   2.658  25.033  0.00  0.00    +0.145 A 
ATOM     25  C   UNL     1      -5.119   2.925  25.807  0.00  0.00    +0.037 A 
ATOM     26  C   UNL     1      -5.776   2.687  26.246  0.00  0.00    +0.003 A 
ATOM     27  C   UNL     1      -6.336   2.183  25.909  0.00  0.00    +0.000 A 
ATOM     28  C   UNL     1      -6.238   1.916  25.134  0.00  0.00    +0.003 A 
ATOM     29  C   UNL     1      -5.581   2.154  24.697  0.00  0.00    +0.037 A 
ENDBRANCH  23  24
ENDBRANCH  22  23
ENDBRANCH  18  19
ENDBRANCH  15  16
ENDBRANCH  11  15
TORSDOF 7
ENDMDL
