MODEL 1
REMARK VINA RESULT:     -11.1      0.000      0.000
REMARK  Name = 
REMARK  4 active torsions:
REMARK  status: ('A' for Active; 'I' for Inactive)
REMARK    1  A    between atoms: O_2  and  C_3
REMARK    2  A    between atoms: C_3  and  C_4
REMARK    3  A    between atoms: N_6  and  C_7
REMARK    4  A    between atoms: C_16  and  C_23
REMARK                            x       y       z     vdW  Elec       q    Type
REMARK                         _______ _______ _______ _____ _____    ______ ____
ROOT
ATOM      7  C   UNL     1      -4.116   0.029  24.349  0.00  0.00    +0.117 C 
ATOM      8  C   UNL     1      -4.714   0.457  24.722  0.00  0.00    +0.053 C 
ATOM      9  C   UNL     1      -4.423   1.209  24.893  0.00  0.00    +0.156 C 
ATOM     10  N   UNL     1      -3.644   1.247  24.625  0.00  0.00    -0.268 N 
ATOM     11  C   UNL     1      -3.453   0.517  24.288  0.00  0.00    +0.116 C 
ATOM     12  C   UNL     1      -3.115   1.879  24.665  0.00  0.00    +0.251 C 
ATOM     13  O   UNL     1      -2.367   1.742  24.344  0.00  0.00    -0.270 OA
ATOM     14  C   UNL     1      -3.236   2.630  24.984  0.00  0.00    +0.069 A 
ATOM     15  C   UNL     1      -2.561   3.100  24.912  0.00  0.00    +0.006 A 
ATOM     16  C   UNL     1      -2.566   3.874  25.198  0.00  0.00    +0.006 A 
ATOM     17  C   UNL     1      -3.244   4.178  25.555  0.00  0.00    +0.002 A 
ATOM     18  C   UNL     1      -3.919   3.708  25.627  0.00  0.00    +0.017 A 
ATOM     19  C   UNL     1      -3.914   2.935  25.341  0.00  0.00    +0.078 A 
ATOM     20  N   UNL     1      -4.640   2.563  25.468  0.00  0.00    -0.178 NA
ATOM     21  C   UNL     1      -4.866   1.794  25.268  0.00  0.00    +0.264 C 
ATOM     22  O   UNL     1      -5.638   1.585  25.470  0.00  0.00    -0.271 OA
ENDROOT
BRANCH  16  23
ATOM     23  C   UNL     1      -1.892   4.344  25.126  0.00  0.00    +0.029 A 
ATOM     24  C   UNL     1      -1.877   5.169  25.083  0.00  0.00    +0.007 A 
ATOM     25  C   UNL     1      -1.090   5.406  25.015  0.00  0.00    +0.007 A 
ATOM     26  C   UNL     1      -0.619   4.730  25.017  0.00  0.00    +0.035 A 
ATOM     27  S   UNL     1      -1.113   4.074  25.085  0.00  0.00    -0.086 S 
ENDBRANCH  16  23
BRANCH   7   6
ATOM      4  C   UNL     1      -3.927  -1.370  24.569  0.00  0.00    +0.272 C 
ATOM      5  O   UNL     1      -3.629  -1.212  25.322  0.00  0.00    -0.271 OA
ATOM      6  N   UNL     1      -4.170  -0.750  24.083  0.00  0.00    -0.203 NA
BRANCH   4   3
ATOM      3  C   UNL     1      -3.982  -2.149  24.303  0.00  0.00    +0.229 C 
BRANCH   3   2
ATOM      1  C   UNL     1      -3.437  -3.470  24.329  0.00  0.00    +0.175 C 
ATOM      2  O   UNL     1      -3.586  -2.751  24.705  0.00  0.00    -0.342 OA
ENDBRANCH   3   2
ENDBRANCH   4   3
ENDBRANCH   7   6
TORSDOF 4
ENDMDL
MODEL 2
REMARK VINA RESULT:     -10.8      1.745      5.062
REMARK  Name = 
REMARK  4 active torsions:
REMARK  status: ('A' for Active; 'I' for Inactive)
REMARK    1  A    between atoms: O_2  and  C_3
REMARK    2  A    between atoms: C_3  and  C_4
REMARK    3  A    between atoms: N_6  and  C_7
REMARK    4  A    between atoms: C_16  and  C_23
REMARK                            x       y       z     vdW  Elec       q    Type
REMARK                         _______ _______ _______ _____ _____    ______ ____
ROOT
ATOM      7  C   UNL     1      -3.009   3.423  24.664  0.00  0.00    +0.117 C 
ATOM      8  C   UNL     1      -3.815   3.393  24.838  0.00  0.00    +0.053 C 
ATOM      9  C   UNL     1      -4.046   2.602  24.843  0.00  0.00    +0.156 C 
ATOM     10  N   UNL     1      -3.384   2.141  24.671  0.00  0.00    -0.268 N 
ATOM     11  C   UNL     1      -2.742   2.649  24.560  0.00  0.00    +0.116 C 
ATOM     12  C   UNL     1      -3.328   1.320  24.612  0.00  0.00    +0.251 C 
ATOM     13  O   UNL     1      -2.580   1.024  24.431  0.00  0.00    -0.270 OA
ATOM     14  C   UNL     1      -3.923   0.757  24.709  0.00  0.00    +0.069 A 
ATOM     15  C   UNL     1      -3.633  -0.008  24.601  0.00  0.00    +0.006 A 
ATOM     16  C   UNL     1      -4.140  -0.655  24.675  0.00  0.00    +0.006 A 
ATOM     17  C   UNL     1      -4.936  -0.537  24.856  0.00  0.00    +0.002 A 
ATOM     18  C   UNL     1      -5.226   0.228  24.963  0.00  0.00    +0.017 A 
ATOM     19  C   UNL     1      -4.719   0.874  24.890  0.00  0.00    +0.078 A 
ATOM     20  N   UNL     1      -5.118   1.586  25.018  0.00  0.00    -0.178 NA
ATOM     21  C   UNL     1      -4.817   2.354  24.997  0.00  0.00    +0.264 C 
ATOM     22  O   UNL     1      -5.362   2.955  25.151  0.00  0.00    -0.271 OA
ENDROOT
BRANCH  16  23
ATOM     23  C   UNL     1      -3.851  -1.420  24.567  0.00  0.00    +0.029 A 
ATOM     24  C   UNL     1      -4.018  -1.917  23.929  0.00  0.00    +0.007 A 
ATOM     25  C   UNL     1      -3.615  -2.627  24.046  0.00  0.00    +0.007 A 
ATOM     26  C   UNL     1      -3.198  -2.569  24.755  0.00  0.00    +0.035 A 
ATOM     27  S   UNL     1      -3.344  -1.824  25.078  0.00  0.00    -0.086 S 
ENDBRANCH  16  23
BRANCH   7   6
ATOM      4  C   UNL     1      -2.084   4.348  25.238  0.00  0.00    +0.272 C 
ATOM      5  O   UNL     1      -2.074   3.906  25.935  0.00  0.00    -0.271 OA
ATOM      6  N   UNL     1      -2.551   4.106  24.603  0.00  0.00    -0.203 NA
BRANCH   4   3
ATOM      3  C   UNL     1      -1.626   5.031  25.178  0.00  0.00    +0.229 C 
BRANCH   3   2
ATOM      1  C   UNL     1      -0.403   5.575  24.678  0.00  0.00    +0.175 C 
ATOM      2  O   UNL     1      -0.811   4.974  25.068  0.00  0.00    -0.342 OA
ENDBRANCH   3   2
ENDBRANCH   4   3
ENDBRANCH   7   6
TORSDOF 4
ENDMDL
MODEL 3
REMARK VINA RESULT:     -10.4      2.927      4.419
REMARK  Name = 
REMARK  4 active torsions:
REMARK  status: ('A' for Active; 'I' for Inactive)
REMARK    1  A    between atoms: O_2  and  C_3
REMARK    2  A    between atoms: C_3  and  C_4
REMARK    3  A    between atoms: N_6  and  C_7
REMARK    4  A    between atoms: C_16  and  C_23
REMARK                            x       y       z     vdW  Elec       q    Type
REMARK                         _______ _______ _______ _____ _____    ______ ____
ROOT
ATOM      7  C   UNL     1      -0.220  -0.329  24.206  0.00  0.00    +0.117 C 
ATOM      8  C   UNL     1      -0.658  -1.018  24.321  0.00  0.00    +0.053 C 
ATOM      9  C   UNL     1      -1.443  -0.803  24.454  0.00  0.00    +0.156 C 
ATOM     10  N   UNL     1      -1.490   0.020  24.421  0.00  0.00    -0.268 N 
ATOM     11  C   UNL     1      -0.734   0.313  24.268  0.00  0.00    +0.116 C 
ATOM     12  C   UNL     1      -2.153   0.501  24.518  0.00  0.00    +0.251 C 
ATOM     13  O   UNL     1      -2.018   1.313  24.453  0.00  0.00    -0.270 OA
ATOM     14  C   UNL     1      -2.932   0.279  24.672  0.00  0.00    +0.069 A 
ATOM     15  C   UNL     1      -3.427   0.936  24.730  0.00  0.00    +0.006 A 
ATOM     16  C   UNL     1      -4.232   0.834  24.882  0.00  0.00    +0.006 A 
ATOM     17  C   UNL     1      -4.541   0.075  24.976  0.00  0.00    +0.002 A 
ATOM     18  C   UNL     1      -4.046  -0.583  24.919  0.00  0.00    +0.017 A 
ATOM     19  C   UNL     1      -3.242  -0.480  24.766  0.00  0.00    +0.078 A 
ATOM     20  N   UNL     1      -2.847  -1.204  24.730  0.00  0.00    -0.178 NA
ATOM     21  C   UNL     1      -2.047  -1.347  24.591  0.00  0.00    +0.264 C 
ATOM     22  O   UNL     1      -1.821  -2.141  24.589  0.00  0.00    -0.271 OA
ENDROOT
BRANCH  16  23
ATOM     23  C   UNL     1      -4.728   1.491  24.940  0.00  0.00    +0.029 A 
ATOM     24  C   UNL     1      -4.607   2.223  24.577  0.00  0.00    +0.007 A 
ATOM     25  C   UNL     1      -5.235   2.716  24.784  0.00  0.00    +0.007 A 
ATOM     26  C   UNL     1      -5.744   2.289  25.273  0.00  0.00    +0.035 A 
ATOM     27  S   UNL     1      -5.431   1.533  25.370  0.00  0.00    -0.086 S 
ENDBRANCH  16  23
BRANCH   7   6
ATOM      4  C   UNL     1       0.864  -0.237  23.280  0.00  0.00    +0.272 C 
ATOM      5  O   UNL     1       0.328  -0.224  22.653  0.00  0.00    -0.271 OA
ATOM      6  N   UNL     1       0.590  -0.289  24.056  0.00  0.00    -0.203 NA
BRANCH   4   3
ATOM      3  C   UNL     1       1.674  -0.197  23.130  0.00  0.00    +0.229 C 
BRANCH   3   2
ATOM      1  C   UNL     1       2.758   0.176  22.277  0.00  0.00    +0.175 C 
ATOM      2  O   UNL     1       1.948   0.136  22.427  0.00  0.00    -0.342 OA
ENDBRANCH   3   2
ENDBRANCH   4   3
ENDBRANCH   7   6
TORSDOF 4
ENDMDL
MODEL 4
REMARK VINA RESULT:     -10.0      2.671      4.075
REMARK  Name = 
REMARK  4 active torsions:
REMARK  status: ('A' for Active; 'I' for Inactive)
REMARK    1  A    between atoms: O_2  and  C_3
REMARK    2  A    between atoms: C_3  and  C_4
REMARK    3  A    between atoms: N_6  and  C_7
REMARK    4  A    between atoms: C_16  and  C_23
REMARK                            x       y       z     vdW  Elec       q    Type
REMARK                         _______ _______ _______ _____ _____    ______ ____
ROOT
ATOM      7  C   UNL     1      -0.304   1.422  24.380  0.00  0.00    +0.117 C 
ATOM      8  C   UNL     1      -0.274   2.245  24.427  0.00  0.00    +0.053 C 
ATOM      9  C   UNL     1      -1.038   2.521  24.567  0.00  0.00    +0.156 C 
ATOM     10  N   UNL     1      -1.541   1.869  24.607  0.00  0.00    -0.268 N 
ATOM     11  C   UNL     1      -1.087   1.188  24.491  0.00  0.00    +0.116 C 
ATOM     12  C   UNL     1      -2.356   1.854  24.737  0.00  0.00    +0.251 C 
ATOM     13  O   UNL     1      -2.703   1.106  24.747  0.00  0.00    -0.270 OA
ATOM     14  C   UNL     1      -2.868   2.488  24.860  0.00  0.00    +0.069 A 
ATOM     15  C   UNL     1      -3.645   2.232  24.969  0.00  0.00    +0.006 A 
ATOM     16  C   UNL     1      -4.246   2.782  25.100  0.00  0.00    +0.006 A 
ATOM     17  C   UNL     1      -4.070   3.587  25.122  0.00  0.00    +0.002 A 
ATOM     18  C   UNL     1      -3.294   3.844  25.013  0.00  0.00    +0.017 A 
ATOM     19  C   UNL     1      -2.693   3.294  24.882  0.00  0.00    +0.078 A 
ATOM     20  N   UNL     1      -1.961   3.665  24.787  0.00  0.00    -0.178 NA
ATOM     21  C   UNL     1      -1.225   3.320  24.647  0.00  0.00    +0.264 C 
ATOM     22  O   UNL     1      -0.592   3.845  24.578  0.00  0.00    -0.271 OA
ENDROOT
BRANCH  16  23
ATOM     23  C   UNL     1      -5.023   2.526  25.209  0.00  0.00    +0.029 A 
ATOM     24  C   UNL     1      -5.477   2.106  24.662  0.00  0.00    +0.007 A 
ATOM     25  C   UNL     1      -6.216   1.965  24.998  0.00  0.00    +0.007 A 
ATOM     26  C   UNL     1      -6.220   2.298  25.753  0.00  0.00    +0.035 A 
ATOM     27  S   UNL     1      -5.483   2.644  25.884  0.00  0.00    -0.086 S 
ENDBRANCH  16  23
BRANCH   7   6
ATOM      4  C   UNL     1       0.453   0.590  23.499  0.00  0.00    +0.272 C 
ATOM      5  O   UNL     1      -0.071   0.761  22.885  0.00  0.00    -0.271 OA
ATOM      6  N   UNL     1       0.337   0.920  24.245  0.00  0.00    -0.203 NA
BRANCH   4   3
ATOM      3  C   UNL     1       1.094   0.088  23.364  0.00  0.00    +0.229 C 
BRANCH   3   2
ATOM      1  C   UNL     1       2.184  -0.279  22.517  0.00  0.00    +0.175 C 
ATOM      2  O   UNL     1       1.430   0.040  22.612  0.00  0.00    -0.342 OA
ENDBRANCH   3   2
ENDBRANCH   4   3
ENDBRANCH   7   6
TORSDOF 4
ENDMDL
MODEL 5
REMARK VINA RESULT:      -9.8      1.590      2.225
REMARK  Name = 
REMARK  4 active torsions:
REMARK  status: ('A' for Active; 'I' for Inactive)
REMARK    1  A    between atoms: O_2  and  C_3
REMARK    2  A    between atoms: C_3  and  C_4
REMARK    3  A    between atoms: N_6  and  C_7
REMARK    4  A    between atoms: C_16  and  C_23
REMARK                            x       y       z     vdW  Elec       q    Type
REMARK                         _______ _______ _______ _____ _____    ______ ____
ROOT
ATOM      7  C   UNL     1      -2.639  -0.425  24.288  0.00  0.00    +0.117 C 
ATOM      8  C   UNL     1      -2.011  -0.543  24.811  0.00  0.00    +0.053 C 
ATOM      9  C   UNL     1      -1.713   0.196  25.024  0.00  0.00    +0.156 C 
ATOM     10  N   UNL     1      -2.157   0.771  24.633  0.00  0.00    -0.268 N 
ATOM     11  C   UNL     1      -2.729   0.387  24.178  0.00  0.00    +0.116 C 
ATOM     12  C   UNL     1      -2.076   1.592  24.663  0.00  0.00    +0.251 C 
ATOM     13  O   UNL     1      -2.611   2.021  24.204  0.00  0.00    -0.270 OA
ATOM     14  C   UNL     1      -1.532   2.040  25.091  0.00  0.00    +0.069 A 
ATOM     15  C   UNL     1      -1.641   2.847  24.966  0.00  0.00    +0.006 A 
ATOM     16  C   UNL     1      -1.152   3.394  25.345  0.00  0.00    +0.006 A 
ATOM     17  C   UNL     1      -0.555   3.131  25.849  0.00  0.00    +0.002 A 
ATOM     18  C   UNL     1      -0.445   2.323  25.975  0.00  0.00    +0.017 A 
ATOM     19  C   UNL     1      -0.934   1.778  25.596  0.00  0.00    +0.078 A 
ATOM     20  N   UNL     1      -0.733   1.003  25.796  0.00  0.00    -0.178 NA
ATOM     21  C   UNL     1      -1.080   0.299  25.541  0.00  0.00    +0.264 C 
ATOM     22  O   UNL     1      -0.748  -0.393  25.845  0.00  0.00    -0.271 OA
ENDROOT
BRANCH  16  23
ATOM     23  C   UNL     1      -1.261   4.202  25.219  0.00  0.00    +0.029 A 
ATOM     24  C   UNL     1      -0.723   4.714  24.858  0.00  0.00    +0.007 A 
ATOM     25  C   UNL     1      -1.056   5.468  24.848  0.00  0.00    +0.007 A 
ATOM     26  C   UNL     1      -1.799   5.423  25.204  0.00  0.00    +0.035 A 
ATOM     27  S   UNL     1      -1.926   4.641  25.433  0.00  0.00    -0.086 S 
ENDBRANCH  16  23
BRANCH   7   6
ATOM      4  C   UNL     1      -3.744  -1.329  24.340  0.00  0.00    +0.272 C 
ATOM      5  O   UNL     1      -3.937  -1.051  25.092  0.00  0.00    -0.271 OA
ATOM      6  N   UNL     1      -3.095  -1.016  23.938  0.00  0.00    -0.203 NA
BRANCH   4   3
ATOM      3  C   UNL     1      -4.201  -1.920  23.989  0.00  0.00    +0.229 C 
BRANCH   3   2
ATOM      1  C   UNL     1      -4.391  -3.310  23.719  0.00  0.00    +0.175 C 
ATOM      2  O   UNL     1      -4.079  -2.710  24.191  0.00  0.00    -0.342 OA
ENDBRANCH   3   2
ENDBRANCH   4   3
ENDBRANCH   7   6
TORSDOF 4
ENDMDL
MODEL 6
REMARK VINA RESULT:      -9.6      2.679      5.822
REMARK  Name = 
REMARK  4 active torsions:
REMARK  status: ('A' for Active; 'I' for Inactive)
REMARK    1  A    between atoms: O_2  and  C_3
REMARK    2  A    between atoms: C_3  and  C_4
REMARK    3  A    between atoms: N_6  and  C_7
REMARK    4  A    between atoms: C_16  and  C_23
REMARK                            x       y       z     vdW  Elec       q    Type
REMARK                         _______ _______ _______ _____ _____    ______ ____
ROOT
ATOM      7  C   UNL     1      -0.892   2.670  24.302  0.00  0.00    +0.117 C 
ATOM      8  C   UNL     1      -0.211   2.223  24.169  0.00  0.00    +0.053 C 
ATOM      9  C   UNL     1      -0.412   1.426  24.232  0.00  0.00    +0.156 C 
ATOM     10  N   UNL     1      -1.218   1.379  24.404  0.00  0.00    -0.268 N 
ATOM     11  C   UNL     1      -1.515   2.148  24.447  0.00  0.00    +0.116 C 
ATOM     12  C   UNL     1      -1.681   0.706  24.519  0.00  0.00    +0.251 C 
ATOM     13  O   UNL     1      -2.478   0.844  24.684  0.00  0.00    -0.270 OA
ATOM     14  C   UNL     1      -1.453  -0.086  24.492  0.00  0.00    +0.069 A 
ATOM     15  C   UNL     1      -2.091  -0.588  24.639  0.00  0.00    +0.006 A 
ATOM     16  C   UNL     1      -1.981  -1.406  24.637  0.00  0.00    +0.006 A 
ATOM     17  C   UNL     1      -1.233  -1.721  24.488  0.00  0.00    +0.002 A 
ATOM     18  C   UNL     1      -0.595  -1.219  24.340  0.00  0.00    +0.017 A 
ATOM     19  C   UNL     1      -0.706  -0.402  24.342  0.00  0.00    +0.078 A 
ATOM     20  N   UNL     1      -0.001  -0.002  24.183  0.00  0.00    -0.178 NA
ATOM     21  C   UNL     1       0.129   0.811  24.134  0.00  0.00    +0.264 C 
ATOM     22  O   UNL     1       0.904   1.040  23.965  0.00  0.00    -0.271 OA
ENDROOT
BRANCH  16  23
ATOM     23  C   UNL     1      -2.618  -1.909  24.785  0.00  0.00    +0.029 A 
ATOM     24  C   UNL     1      -2.995  -2.014  25.512  0.00  0.00    +0.007 A 
ATOM     25  C   UNL     1      -3.600  -2.564  25.408  0.00  0.00    +0.007 A 
ATOM     26  C   UNL     1      -3.597  -2.800  24.618  0.00  0.00    +0.035 A 
ATOM     27  S   UNL     1      -2.991  -2.395  24.233  0.00  0.00    -0.086 S 
ENDBRANCH  16  23
BRANCH   7   6
ATOM      4  C   UNL     1      -0.884   3.919  24.994  0.00  0.00    +0.272 C 
ATOM      5  O   UNL     1      -0.776   3.523  25.709  0.00  0.00    -0.271 OA
ATOM      6  N   UNL     1      -0.942   3.493  24.291  0.00  0.00    -0.203 NA
BRANCH   4   3
ATOM      3  C   UNL     1      -0.933   4.743  24.983  0.00  0.00    +0.229 C 
BRANCH   3   2
ATOM      1  C   UNL     1      -1.782   5.884  25.120  0.00  0.00    +0.175 C 
ATOM      2  O   UNL     1      -1.564   5.124  25.353  0.00  0.00    -0.342 OA
ENDBRANCH   3   2
ENDBRANCH   4   3
ENDBRANCH   7   6
TORSDOF 4
ENDMDL
MODEL 7
REMARK VINA RESULT:      -8.9      2.109      5.258
REMARK  Name = 
REMARK  4 active torsions:
REMARK  status: ('A' for Active; 'I' for Inactive)
REMARK    1  A    between atoms: O_2  and  C_3
REMARK    2  A    between atoms: C_3  and  C_4
REMARK    3  A    between atoms: N_6  and  C_7
REMARK    4  A    between atoms: C_16  and  C_23
REMARK                            x       y       z     vdW  Elec       q    Type
REMARK                         _______ _______ _______ _____ _____    ______ ____
ROOT
ATOM      7  C   UNL     1      -3.804   2.826  24.746  0.00  0.00    +0.117 C 
ATOM      8  C   UNL     1      -2.990   2.750  24.856  0.00  0.00    +0.053 C 
ATOM      9  C   UNL     1      -2.802   1.948  24.835  0.00  0.00    +0.156 C 
ATOM     10  N   UNL     1      -3.501   1.526  24.712  0.00  0.00    -0.268 N 
ATOM     11  C   UNL     1      -4.120   2.070  24.656  0.00  0.00    +0.116 C 
ATOM     12  C   UNL     1      -3.606   0.711  24.649  0.00  0.00    +0.251 C 
ATOM     13  O   UNL     1      -4.381   0.458  24.524  0.00  0.00    -0.270 OA
ATOM     14  C   UNL     1      -3.038   0.114  24.694  0.00  0.00    +0.069 A 
ATOM     15  C   UNL     1      -3.376  -0.632  24.602  0.00  0.00    +0.006 A 
ATOM     16  C   UNL     1      -2.902  -1.307  24.629  0.00  0.00    +0.006 A 
ATOM     17  C   UNL     1      -2.089  -1.234  24.748  0.00  0.00    +0.002 A 
ATOM     18  C   UNL     1      -1.750  -0.488  24.840  0.00  0.00    +0.017 A 
ATOM     19  C   UNL     1      -2.225   0.186  24.813  0.00  0.00    +0.078 A 
ATOM     20  N   UNL     1      -1.779   0.873  24.917  0.00  0.00    -0.178 NA
ATOM     21  C   UNL     1      -2.036   1.657  24.926  0.00  0.00    +0.264 C 
ATOM     22  O   UNL     1      -1.449   2.224  25.043  0.00  0.00    -0.271 OA
ENDROOT
BRANCH  16  23
ATOM     23  C   UNL     1      -3.241  -2.053  24.537  0.00  0.00    +0.029 A 
ATOM     24  C   UNL     1      -3.739  -2.288  23.922  0.00  0.00    +0.007 A 
ATOM     25  C   UNL     1      -3.947  -3.076  24.048  0.00  0.00    +0.007 A 
ATOM     26  C   UNL     1      -3.577  -3.329  24.740  0.00  0.00    +0.035 A 
ATOM     27  S   UNL     1      -3.141  -2.698  25.043  0.00  0.00    -0.086 S 
ENDBRANCH  16  23
BRANCH   7   6
ATOM      4  C   UNL     1      -4.690   3.755  25.373  0.00  0.00    +0.272 C 
ATOM      5  O   UNL     1      -4.731   3.267  26.038  0.00  0.00    -0.271 OA
ATOM      6  N   UNL     1      -4.226   3.534  24.728  0.00  0.00    -0.203 NA
BRANCH   4   3
ATOM      3  C   UNL     1      -5.112   4.463  25.356  0.00  0.00    +0.229 C 
BRANCH   3   2
ATOM      1  C   UNL     1      -6.340   5.167  25.552  0.00  0.00    +0.175 C 
ATOM      2  O   UNL     1      -5.874   4.497  25.671  0.00  0.00    -0.342 OA
ENDBRANCH   3   2
ENDBRANCH   4   3
ENDBRANCH   7   6
TORSDOF 4
ENDMDL
MODEL 8
REMARK VINA RESULT:      -8.6      2.630      4.306
REMARK  Name = 
REMARK  4 active torsions:
REMARK  status: ('A' for Active; 'I' for Inactive)
REMARK    1  A    between atoms: O_2  and  C_3
REMARK    2  A    between atoms: C_3  and  C_4
REMARK    3  A    between atoms: N_6  and  C_7
REMARK    4  A    between atoms: C_16  and  C_23
REMARK                            x       y       z     vdW  Elec       q    Type
REMARK                         _______ _______ _______ _____ _____    ______ ____
ROOT
ATOM      7  C   UNL     1      -4.153   1.342  24.723  0.00  0.00    +0.117 C 
ATOM      8  C   UNL     1      -4.083   0.616  25.109  0.00  0.00    +0.053 C 
ATOM      9  C   UNL     1      -3.327   0.320  24.962  0.00  0.00    +0.156 C 
ATOM     10  N   UNL     1      -2.930   0.863  24.485  0.00  0.00    -0.268 N 
ATOM     11  C   UNL     1      -3.441   1.495  24.337  0.00  0.00    +0.116 C 
ATOM     12  C   UNL     1      -2.161   0.822  24.188  0.00  0.00    +0.251 C 
ATOM     13  O   UNL     1      -1.923   1.460  23.722  0.00  0.00    -0.270 OA
ATOM     14  C   UNL     1      -1.601   0.227  24.294  0.00  0.00    +0.069 A 
ATOM     15  C   UNL     1      -0.897   0.401  23.900  0.00  0.00    +0.006 A 
ATOM     16  C   UNL     1      -0.263  -0.125  23.935  0.00  0.00    +0.006 A 
ATOM     17  C   UNL     1      -0.332  -0.826  24.365  0.00  0.00    +0.002 A 
ATOM     18  C   UNL     1      -1.036  -1.001  24.760  0.00  0.00    +0.017 A 
ATOM     19  C   UNL     1      -1.669  -0.474  24.723  0.00  0.00    +0.078 A 
ATOM     20  N   UNL     1      -2.317  -0.753  25.154  0.00  0.00    -0.178 NA
ATOM     21  C   UNL     1      -3.054  -0.398  25.259  0.00  0.00    +0.264 C 
ATOM     22  O   UNL     1      -3.590  -0.820  25.725  0.00  0.00    -0.271 OA
ENDROOT
BRANCH  16  23
ATOM     23  C   UNL     1       0.441   0.049  23.541  0.00  0.00    +0.029 A 
ATOM     24  C   UNL     1       0.966   0.657  23.731  0.00  0.00    +0.007 A 
ATOM     25  C   UNL     1       1.592   0.630  23.196  0.00  0.00    +0.007 A 
ATOM     26  C   UNL     1       1.455   0.006  22.675  0.00  0.00    +0.035 A 
ATOM     27  S   UNL     1       0.744  -0.354  22.888  0.00  0.00    -0.086 S 
ENDBRANCH  16  23
BRANCH   7   6
ATOM      4  C   UNL     1      -4.866   2.464  25.247  0.00  0.00    +0.272 C 
ATOM      5  O   UNL     1      -4.247   2.613  25.771  0.00  0.00    -0.271 OA
ATOM      6  N   UNL     1      -4.819   1.828  24.724  0.00  0.00    -0.203 NA
BRANCH   4   3
ATOM      3  C   UNL     1      -5.532   2.950  25.247  0.00  0.00    +0.229 C 
BRANCH   3   2
ATOM      1  C   UNL     1      -6.064   4.223  25.622  0.00  0.00    +0.175 C 
ATOM      2  O   UNL     1      -5.593   3.567  25.791  0.00  0.00    -0.342 OA
ENDBRANCH   3   2
ENDBRANCH   4   3
ENDBRANCH   7   6
TORSDOF 4
ENDMDL
MODEL 9
REMARK VINA RESULT:      -8.5      3.408      5.504
REMARK  Name = 
REMARK  4 active torsions:
REMARK  status: ('A' for Active; 'I' for Inactive)
REMARK    1  A    between atoms: O_2  and  C_3
REMARK    2  A    between atoms: C_3  and  C_4
REMARK    3  A    between atoms: N_6  and  C_7
REMARK    4  A    between atoms: C_16  and  C_23
REMARK                            x       y       z     vdW  Elec       q    Type
REMARK                         _______ _______ _______ _____ _____    ______ ____
ROOT
ATOM      7  C   UNL     1       0.709   1.166  23.980  0.00  0.00    +0.117 C 
ATOM      8  C   UNL     1       0.133   1.754  24.038  0.00  0.00    +0.053 C 
ATOM      9  C   UNL     1      -0.598   1.387  24.140  0.00  0.00    +0.156 C 
ATOM     10  N   UNL     1      -0.475   0.571  24.144  0.00  0.00    -0.268 N 
ATOM     11  C   UNL     1       0.333   0.434  24.046  0.00  0.00    +0.116 C 
ATOM     12  C   UNL     1      -1.031  -0.033  24.229  0.00  0.00    +0.251 C 
ATOM     13  O   UNL     1      -0.730  -0.801  24.210  0.00  0.00    -0.270 OA
ATOM     14  C   UNL     1      -1.847   0.030  24.330  0.00  0.00    +0.069 A 
ATOM     15  C   UNL     1      -2.201  -0.712  24.393  0.00  0.00    +0.006 A 
ATOM     16  C   UNL     1      -3.017  -0.773  24.498  0.00  0.00    +0.006 A 
ATOM     17  C   UNL     1      -3.479  -0.091  24.539  0.00  0.00    +0.002 A 
ATOM     18  C   UNL     1      -3.125   0.652  24.476  0.00  0.00    +0.017 A 
ATOM     19  C   UNL     1      -2.309   0.712  24.372  0.00  0.00    +0.078 A 
ATOM     20  N   UNL     1      -2.069   1.500  24.322  0.00  0.00    -0.178 NA
ATOM     21  C   UNL     1      -1.307   1.800  24.219  0.00  0.00    +0.264 C 
ATOM     22  O   UNL     1      -1.248   2.623  24.191  0.00  0.00    -0.271 OA
ENDROOT
BRANCH  16  23
ATOM     23  C   UNL     1      -3.372  -1.515  24.561  0.00  0.00    +0.029 A 
ATOM     24  C   UNL     1      -3.263  -2.054  25.177  0.00  0.00    +0.007 A 
ATOM     25  C   UNL     1      -3.721  -2.721  25.016  0.00  0.00    +0.007 A 
ATOM     26  C   UNL     1      -4.112  -2.595  24.300  0.00  0.00    +0.035 A 
ATOM     27  S   UNL     1      -3.896  -1.850  24.019  0.00  0.00    -0.086 S 
ENDBRANCH  16  23
BRANCH   7   6
ATOM      4  C   UNL     1       1.915   0.914  23.257  0.00  0.00    +0.272 C 
ATOM      5  O   UNL     1       1.503   0.417  22.743  0.00  0.00    -0.271 OA
ATOM      6  N   UNL     1       1.517   1.288  23.875  0.00  0.00    -0.203 NA
BRANCH   4   3
ATOM      3  C   UNL     1       2.724   1.036  23.152  0.00  0.00    +0.229 C 
BRANCH   3   2
ATOM      1  C   UNL     1       3.963   0.659  22.549  0.00  0.00    +0.175 C 
ATOM      2  O   UNL     1       3.146   0.571  22.618  0.00  0.00    -0.342 OA
ENDBRANCH   3   2
ENDBRANCH   4   3
ENDBRANCH   7   6
TORSDOF 4
ENDMDL
MODEL 10
REMARK VINA RESULT:      -8.0     16.305     19.006
REMARK  Name = 
REMARK  4 active torsions:
REMARK  status: ('A' for Active; 'I' for Inactive)
REMARK    1  A    between atoms: O_2  and  C_3
REMARK    2  A    between atoms: C_3  and  C_4
REMARK    3  A    between atoms: N_6  and  C_7
REMARK    4  A    between atoms: C_16  and  C_23
REMARK                            x       y       z     vdW  Elec       q    Type
REMARK                         _______ _______ _______ _____ _____    ______ ____
ROOT
ATOM      7  C   UNL     1      14.120   8.634  17.782  0.00  0.00    +0.117 C 
ATOM      8  C   UNL     1      14.517   8.003  18.135  0.00  0.00    +0.053 C 
ATOM      9  C   UNL     1      14.115   7.804  18.827  0.00  0.00    +0.156 C 
ATOM     10  N   UNL     1      13.470   8.312  18.902  0.00  0.00    -0.268 N 
ATOM     11  C   UNL     1      13.473   8.826  18.256  0.00  0.00    +0.116 C 
ATOM     12  C   UNL     1      12.901   8.337  19.499  0.00  0.00    +0.251 C 
ATOM     13  O   UNL     1      12.319   8.916  19.415  0.00  0.00    -0.270 OA
ATOM     14  C   UNL     1      12.836   7.859  20.168  0.00  0.00    +0.069 A 
ATOM     15  C   UNL     1      12.183   8.069  20.626  0.00  0.00    +0.006 A 
ATOM     16  C   UNL     1      12.019   7.657  21.323  0.00  0.00    +0.006 A 
ATOM     17  C   UNL     1      12.508   7.037  21.560  0.00  0.00    +0.002 A 
ATOM     18  C   UNL     1      13.161   6.827  21.102  0.00  0.00    +0.017 A 
ATOM     19  C   UNL     1      13.325   7.239  20.406  0.00  0.00    +0.078 A 
ATOM     20  N   UNL     1      13.999   6.943  20.033  0.00  0.00    -0.178 NA
ATOM     21  C   UNL     1      14.350   7.195  19.330  0.00  0.00    +0.264 C 
ATOM     22  O   UNL     1      15.027   6.782  19.101  0.00  0.00    -0.271 OA
ENDROOT
BRANCH  16  23
ATOM     23  C   UNL     1      11.366   7.866  21.781  0.00  0.00    +0.029 A 
ATOM     24  C   UNL     1      10.628   7.495  21.774  0.00  0.00    +0.007 A 
ATOM     25  C   UNL     1      10.142   7.882  22.315  0.00  0.00    +0.007 A 
ATOM     26  C   UNL     1      10.578   8.493  22.658  0.00  0.00    +0.035 A 
ATOM     27  S   UNL     1      11.334   8.484  22.328  0.00  0.00    -0.086 S 
ENDBRANCH  16  23
BRANCH   7   6
ATOM      4  C   UNL     1      14.057   8.720  16.357  0.00  0.00    +0.272 C 
ATOM      5  O   UNL     1      13.566   8.057  16.338  0.00  0.00    -0.271 OA
ATOM      6  N   UNL     1      14.334   9.008  17.078  0.00  0.00    -0.203 NA
BRANCH   4   3
ATOM      3  C   UNL     1      14.270   9.094  15.653  0.00  0.00    +0.229 C 
BRANCH   3   2
ATOM      1  C   UNL     1      14.933   8.961  14.394  0.00  0.00    +0.175 C 
ATOM      2  O   UNL     1      14.453   8.645  14.986  0.00  0.00    -0.342 OA
ENDBRANCH   3   2
ENDBRANCH   4   3
ENDBRANCH   7   6
TORSDOF 4
ENDMDL
