MODEL 1
REMARK VINA RESULT:      -8.5      0.000      0.000
REMARK  Name = 
REMARK  7 active torsions:
REMARK  status: ('A' for Active; 'I' for Inactive)
REMARK    1  A    between atoms: O_2  and  C_3
REMARK    2  A    between atoms: C_5  and  O_6
REMARK    3  A    between atoms: C_9  and  N_10
REMARK    4  A    between atoms: C_11  and  O_13
REMARK    5  A    between atoms: O_13  and  C_14
REMARK    6  A    between atoms: C_18  and  N_22
REMARK    7  A    between atoms: C_23  and  C_25
REMARK                            x       y       z     vdW  Elec       q    Type
REMARK                         _______ _______ _______ _____ _____    ______ ____
ROOT
ATOM     14  C   UNL     1      -0.797   0.897  23.867  0.00  0.00    +0.229 C 
ATOM     15  C   UNL     1      -0.426   1.451  24.352  0.00  0.00    +0.188 C 
ATOM     16  O   UNL     1       0.389   1.361  24.263  0.00  0.00    -0.348 OA
ATOM     17  C   UNL     1       0.522   0.752  23.724  0.00  0.00    +0.168 C 
ATOM     18  C   UNL     1       1.107   0.319  23.335  0.00  0.00    +0.155 C 
ATOM     19  C   UNL     1       0.735  -0.235  22.850  0.00  0.00    +0.166 C 
ATOM     20  O   UNL     1      -0.080  -0.145  22.939  0.00  0.00    -0.348 OA
ATOM     21  C   UNL     1      -0.212   0.465  23.479  0.00  0.00    +0.186 C 
ENDROOT
BRANCH  18  22
ATOM     22  N   UNL     1       1.921   0.423  23.417  0.00  0.00    -0.198 NA
ATOM     23  C   UNL     1       2.430   0.190  22.811  0.00  0.00    +0.265 C 
ATOM     24  O   UNL     1       2.125  -0.148  22.123  0.00  0.00    -0.268 OA
BRANCH  23  25
ATOM     25  C   UNL     1       3.245   0.293  22.893  0.00  0.00    +0.055 A 
ATOM     26  C   UNL     1       3.707  -0.309  23.216  0.00  0.00    +0.005 A 
ATOM     27  C   UNL     1       4.522  -0.206  23.298  0.00  0.00    +0.000 A 
ATOM     28  C   UNL     1       4.873   0.501  23.057  0.00  0.00    +0.000 A 
ATOM     29  C   UNL     1       4.411   1.103  22.735  0.00  0.00    +0.000 A 
ATOM     30  C   UNL     1       3.596   1.000  22.653  0.00  0.00    +0.005 A 
ENDBRANCH  23  25
ENDBRANCH  18  22
BRANCH  14  13
ATOM     13  O   UNL     1      -1.612   0.793  23.785  0.00  0.00    -0.432 OA
BRANCH  13  11
ATOM     10  N   UNL     1      -2.711   1.694  23.934  0.00  0.00    -0.142 NA
ATOM     11  C   UNL     1      -2.132   1.212  24.269  0.00  0.00    +0.425 C 
ATOM     12  O   UNL     1      -2.073   1.149  25.090  0.00  0.00    -0.224 OA
BRANCH  10   9
ATOM      3  C   UNL     1      -3.566   3.298  25.143  0.00  0.00    +0.143 A 
ATOM      4  C   UNL     1      -4.273   2.950  25.386  0.00  0.00    +0.074 A 
ATOM      5  C   UNL     1      -4.460   2.183  25.145  0.00  0.00    +0.143 A 
ATOM      8  C   UNL     1      -3.939   1.765  24.661  0.00  0.00    +0.054 A 
ATOM      9  C   UNL     1      -3.232   2.113  24.418  0.00  0.00    +0.083 A 
ATOM     31  C   UNL     1      -3.045   2.879  24.659  0.00  0.00    +0.054 A 
BRANCH   3   2
ATOM      1  C   UNL     1      -3.064   4.195  26.135  0.00  0.00    +0.252 C 
ATOM      2  O   UNL     1      -3.379   4.064  25.384  0.00  0.00    -0.471 OA
ENDBRANCH   3   2
BRANCH   5   6
ATOM      6  O   UNL     1      -5.168   1.835  25.387  0.00  0.00    -0.471 OA
ATOM      7  C   UNL     1      -5.861   1.967  24.959  0.00  0.00    +0.252 C 
ENDBRANCH   5   6
ENDBRANCH  10   9
ENDBRANCH  13  11
ENDBRANCH  14  13
TORSDOF 7
ENDMDL
MODEL 2
REMARK VINA RESULT:      -8.0      1.317      1.966
REMARK  Name = 
REMARK  7 active torsions:
REMARK  status: ('A' for Active; 'I' for Inactive)
REMARK    1  A    between atoms: O_2  and  C_3
REMARK    2  A    between atoms: C_5  and  O_6
REMARK    3  A    between atoms: C_9  and  N_10
REMARK    4  A    between atoms: C_11  and  O_13
REMARK    5  A    between atoms: O_13  and  C_14
REMARK    6  A    between atoms: C_18  and  N_22
REMARK    7  A    between atoms: C_23  and  C_25
REMARK                            x       y       z     vdW  Elec       q    Type
REMARK                         _______ _______ _______ _____ _____    ______ ____
ROOT
ATOM     14  C   UNL     1      -0.462   1.095  23.660  0.00  0.00    +0.229 C 
ATOM     15  C   UNL     1      -0.090   1.533  24.252  0.00  0.00    +0.188 C 
ATOM     16  O   UNL     1       0.715   1.353  24.234  0.00  0.00    -0.348 OA
ATOM     17  C   UNL     1       0.841   0.805  23.632  0.00  0.00    +0.168 C 
ATOM     18  C   UNL     1       1.415   0.354  23.248  0.00  0.00    +0.155 C 
ATOM     19  C   UNL     1       1.043  -0.084  22.656  0.00  0.00    +0.166 C 
ATOM     20  O   UNL     1       0.239   0.096  22.674  0.00  0.00    -0.348 OA
ATOM     21  C   UNL     1       0.113   0.645  23.277  0.00  0.00    +0.186 C 
ENDROOT
BRANCH  18  22
ATOM     22  N   UNL     1       2.221   0.343  23.426  0.00  0.00    -0.198 NA
ATOM     23  C   UNL     1       2.774   0.214  22.827  0.00  0.00    +0.265 C 
ATOM     24  O   UNL     1       2.521   0.096  22.050  0.00  0.00    -0.268 OA
BRANCH  23  25
ATOM     25  C   UNL     1       3.580   0.203  23.004  0.00  0.00    +0.055 A 
ATOM     26  C   UNL     1       4.048   0.862  22.837  0.00  0.00    +0.005 A 
ATOM     27  C   UNL     1       4.853   0.852  23.014  0.00  0.00    +0.000 A 
ATOM     28  C   UNL     1       5.191   0.181  23.360  0.00  0.00    +0.000 A 
ATOM     29  C   UNL     1       4.722  -0.476  23.526  0.00  0.00    +0.000 A 
ATOM     30  C   UNL     1       3.916  -0.466  23.349  0.00  0.00    +0.005 A 
ENDBRANCH  23  25
ENDBRANCH  18  22
BRANCH  14  13
ATOM     13  O   UNL     1      -1.267   1.106  23.482  0.00  0.00    -0.432 OA
BRANCH  13  11
ATOM     10  N   UNL     1      -2.506   0.473  23.810  0.00  0.00    -0.142 NA
ATOM     11  C   UNL     1      -1.818   0.861  24.046  0.00  0.00    +0.425 C 
ATOM     12  O   UNL     1      -1.679   1.005  24.847  0.00  0.00    -0.224 OA
BRANCH  10   9
ATOM      3  C   UNL     1      -4.207   0.493  25.177  0.00  0.00    +0.143 A 
ATOM      4  C   UNL     1      -4.156  -0.264  25.500  0.00  0.00    +0.074 A 
ATOM      5  C   UNL     1      -3.555  -0.776  25.260  0.00  0.00    +0.143 A 
ATOM      8  C   UNL     1      -3.005  -0.530  24.696  0.00  0.00    +0.054 A 
ATOM      9  C   UNL     1      -3.056   0.228  24.373  0.00  0.00    +0.083 A 
ATOM     31  C   UNL     1      -3.657   0.739  24.614  0.00  0.00    +0.054 A 
BRANCH   3   2
ATOM      1  C   UNL     1      -5.380   1.252  24.878  0.00  0.00    +0.252 C 
ATOM      2  O   UNL     1      -4.808   1.004  25.418  0.00  0.00    -0.471 OA
ENDBRANCH   3   2
BRANCH   5   6
ATOM      6  O   UNL     1      -3.505  -1.533  25.583  0.00  0.00    -0.471 OA
ATOM      7  C   UNL     1      -3.598  -2.195  25.099  0.00  0.00    +0.252 C 
ENDBRANCH   5   6
ENDBRANCH  10   9
ENDBRANCH  13  11
ENDBRANCH  14  13
TORSDOF 7
ENDMDL
MODEL 3
REMARK VINA RESULT:      -8.0      2.840      4.805
REMARK  Name = 
REMARK  7 active torsions:
REMARK  status: ('A' for Active; 'I' for Inactive)
REMARK    1  A    between atoms: O_2  and  C_3
REMARK    2  A    between atoms: C_5  and  O_6
REMARK    3  A    between atoms: C_9  and  N_10
REMARK    4  A    between atoms: C_11  and  O_13
REMARK    5  A    between atoms: O_13  and  C_14
REMARK    6  A    between atoms: C_18  and  N_22
REMARK    7  A    between atoms: C_23  and  C_25
REMARK                            x       y       z     vdW  Elec       q    Type
REMARK                         _______ _______ _______ _____ _____    ______ ____
ROOT
ATOM     14  C   UNL     1      -0.587   0.929  24.653  0.00  0.00    +0.229 C 
ATOM     15  C   UNL     1      -0.623   0.705  23.860  0.00  0.00    +0.188 C 
ATOM     16  O   UNL     1      -1.074   0.017  23.810  0.00  0.00    -0.348 OA
ATOM     17  C   UNL     1      -1.318  -0.185  24.571  0.00  0.00    +0.168 C 
ATOM     18  C   UNL     1      -1.747  -0.735  25.012  0.00  0.00    +0.155 C 
ATOM     19  C   UNL     1      -1.712  -0.511  25.805  0.00  0.00    +0.166 C 
ATOM     20  O   UNL     1      -1.260   0.177  25.855  0.00  0.00    -0.348 OA
ATOM     21  C   UNL     1      -1.017   0.379  25.092  0.00  0.00    +0.186 C 
ENDROOT
BRANCH  18  22
ATOM     22  N   UNL     1      -2.143  -1.393  24.711  0.00  0.00    -0.198 NA
ATOM     23  C   UNL     1      -2.951  -1.489  24.851  0.00  0.00    +0.265 C 
ATOM     24  O   UNL     1      -3.363  -0.926  25.291  0.00  0.00    -0.268 OA
BRANCH  23  25
ATOM     25  C   UNL     1      -3.346  -2.148  24.550  0.00  0.00    +0.055 A 
ATOM     26  C   UNL     1      -3.978  -2.047  24.028  0.00  0.00    +0.005 A 
ATOM     27  C   UNL     1      -4.374  -2.705  23.727  0.00  0.00    +0.000 A 
ATOM     28  C   UNL     1      -4.138  -3.465  23.949  0.00  0.00    +0.000 A 
ATOM     29  C   UNL     1      -3.507  -3.565  24.470  0.00  0.00    +0.000 A 
ATOM     30  C   UNL     1      -3.111  -2.907  24.772  0.00  0.00    +0.005 A 
ENDBRANCH  23  25
ENDBRANCH  18  22
BRANCH  14  13
ATOM     13  O   UNL     1      -0.192   1.588  24.953  0.00  0.00    -0.432 OA
BRANCH  13  11
ATOM     10  N   UNL     1      -0.772   2.732  25.583  0.00  0.00    -0.142 NA
ATOM     11  C   UNL     1      -0.535   2.336  24.899  0.00  0.00    +0.425 C 
ATOM     12  O   UNL     1      -0.641   2.688  24.160  0.00  0.00    -0.224 OA
BRANCH  10   9
ATOM      3  C   UNL     1      -1.033   4.856  25.151  0.00  0.00    +0.143 A 
ATOM      4  C   UNL     1      -1.803   4.976  25.421  0.00  0.00    +0.074 A 
ATOM      5  C   UNL     1      -2.230   4.348  25.745  0.00  0.00    +0.143 A 
ATOM      8  C   UNL     1      -1.886   3.601  25.799  0.00  0.00    +0.054 A 
ATOM      9  C   UNL     1      -1.116   3.480  25.529  0.00  0.00    +0.083 A 
ATOM     31  C   UNL     1      -0.690   4.107  25.205  0.00  0.00    +0.054 A 
BRANCH   3   2
ATOM      1  C   UNL     1      -1.002   6.157  24.562  0.00  0.00    +0.252 C 
ATOM      2  O   UNL     1      -0.607   5.483  24.827  0.00  0.00    -0.471 OA
ENDBRANCH   3   2
BRANCH   5   6
ATOM      6  O   UNL     1      -3.000   4.469  26.016  0.00  0.00    -0.471 OA
ATOM      7  C   UNL     1      -3.596   3.934  25.815  0.00  0.00    +0.252 C 
ENDBRANCH   5   6
ENDBRANCH  10   9
ENDBRANCH  13  11
ENDBRANCH  14  13
TORSDOF 7
ENDMDL
MODEL 4
REMARK VINA RESULT:      -7.9      3.568      5.516
REMARK  Name = 
REMARK  7 active torsions:
REMARK  status: ('A' for Active; 'I' for Inactive)
REMARK    1  A    between atoms: O_2  and  C_3
REMARK    2  A    between atoms: C_5  and  O_6
REMARK    3  A    between atoms: C_9  and  N_10
REMARK    4  A    between atoms: C_11  and  O_13
REMARK    5  A    between atoms: O_13  and  C_14
REMARK    6  A    between atoms: C_18  and  N_22
REMARK    7  A    between atoms: C_23  and  C_25
REMARK                            x       y       z     vdW  Elec       q    Type
REMARK                         _______ _______ _______ _____ _____    ______ ____
ROOT
ATOM     14  C   UNL     1      -3.934   1.261  24.224  0.00  0.00    +0.229 C 
ATOM     15  C   UNL     1      -3.530   1.431  23.526  0.00  0.00    +0.188 C 
ATOM     16  O   UNL     1      -3.154   2.159  23.621  0.00  0.00    -0.348 OA
ATOM     17  C   UNL     1      -3.325   2.439  24.377  0.00  0.00    +0.168 C 
ATOM     18  C   UNL     1      -3.199   3.061  24.904  0.00  0.00    +0.155 C 
ATOM     19  C   UNL     1      -3.603   2.890  25.603  0.00  0.00    +0.166 C 
ATOM     20  O   UNL     1      -3.979   2.162  25.508  0.00  0.00    -0.348 OA
ATOM     21  C   UNL     1      -3.808   1.883  24.750  0.00  0.00    +0.186 C 
ENDROOT
BRANCH  18  22
ATOM     22  N   UNL     1      -2.748   3.736  24.758  0.00  0.00    -0.198 NA
ATOM     23  C   UNL     1      -2.130   3.937  25.266  0.00  0.00    +0.265 C 
ATOM     24  O   UNL     1      -1.963   3.463  25.920  0.00  0.00    -0.268 OA
BRANCH  23  25
ATOM     25  C   UNL     1      -1.678   4.612  25.119  0.00  0.00    +0.055 A 
ATOM     26  C   UNL     1      -0.886   4.539  24.902  0.00  0.00    +0.005 A 
ATOM     27  C   UNL     1      -0.433   5.213  24.755  0.00  0.00    +0.000 A 
ATOM     28  C   UNL     1      -0.775   5.961  24.826  0.00  0.00    +0.000 A 
ATOM     29  C   UNL     1      -1.567   6.034  25.044  0.00  0.00    +0.000 A 
ATOM     30  C   UNL     1      -2.019   5.359  25.190  0.00  0.00    +0.005 A 
ENDBRANCH  23  25
ENDBRANCH  18  22
BRANCH  14  13
ATOM     13  O   UNL     1      -4.386   0.586  24.371  0.00  0.00    -0.432 OA
BRANCH  13  11
ATOM     10  N   UNL     1      -3.863  -0.628  24.913  0.00  0.00    -0.142 NA
ATOM     11  C   UNL     1      -4.057  -0.163  24.261  0.00  0.00    +0.425 C 
ATOM     12  O   UNL     1      -3.922  -0.446  23.497  0.00  0.00    -0.224 OA
BRANCH  10   9
ATOM      3  C   UNL     1      -2.401  -2.247  24.828  0.00  0.00    +0.143 A 
ATOM      4  C   UNL     1      -2.877  -2.875  24.583  0.00  0.00    +0.074 A 
ATOM      5  C   UNL     1      -3.683  -2.754  24.449  0.00  0.00    +0.143 A 
ATOM      8  C   UNL     1      -4.010  -2.005  24.559  0.00  0.00    +0.054 A 
ATOM      9  C   UNL     1      -3.534  -1.377  24.803  0.00  0.00    +0.083 A 
ATOM     31  C   UNL     1      -2.730  -1.499  24.938  0.00  0.00    +0.054 A 
BRANCH   3   2
ATOM      1  C   UNL     1      -1.038  -1.893  24.585  0.00  0.00    +0.252 C 
ATOM      2  O   UNL     1      -1.597  -2.369  24.962  0.00  0.00    -0.471 OA
ENDBRANCH   3   2
BRANCH   5   6
ATOM      6  O   UNL     1      -4.159  -3.381  24.204  0.00  0.00    -0.471 OA
ATOM      7  C   UNL     1      -4.145  -3.627  23.416  0.00  0.00    +0.252 C 
ENDBRANCH   5   6
ENDBRANCH  10   9
ENDBRANCH  13  11
ENDBRANCH  14  13
TORSDOF 7
ENDMDL
MODEL 5
REMARK VINA RESULT:      -7.7      3.566      5.442
REMARK  Name = 
REMARK  7 active torsions:
REMARK  status: ('A' for Active; 'I' for Inactive)
REMARK    1  A    between atoms: O_2  and  C_3
REMARK    2  A    between atoms: C_5  and  O_6
REMARK    3  A    between atoms: C_9  and  N_10
REMARK    4  A    between atoms: C_11  and  O_13
REMARK    5  A    between atoms: O_13  and  C_14
REMARK    6  A    between atoms: C_18  and  N_22
REMARK    7  A    between atoms: C_23  and  C_25
REMARK                            x       y       z     vdW  Elec       q    Type
REMARK                         _______ _______ _______ _____ _____    ______ ____
ROOT
ATOM     14  C   UNL     1      -3.853   1.955  24.140  0.00  0.00    +0.229 C 
ATOM     15  C   UNL     1      -3.563   1.669  23.423  0.00  0.00    +0.188 C 
ATOM     16  O   UNL     1      -3.654   0.849  23.421  0.00  0.00    -0.348 OA
ATOM     17  C   UNL     1      -3.998   0.628  24.136  0.00  0.00    +0.168 C 
ATOM     18  C   UNL     1      -4.268  -0.015  24.578  0.00  0.00    +0.155 C 
ATOM     19  C   UNL     1      -4.557   0.271  25.296  0.00  0.00    +0.166 C 
ATOM     20  O   UNL     1      -4.467   1.091  25.298  0.00  0.00    -0.348 OA
ATOM     21  C   UNL     1      -4.122   1.312  24.581  0.00  0.00    +0.186 C 
ENDROOT
BRANCH  18  22
ATOM     22  N   UNL     1      -4.250  -0.806  24.343  0.00  0.00    -0.198 NA
ATOM     23  C   UNL     1      -3.815  -1.356  24.778  0.00  0.00    +0.265 C 
ATOM     24  O   UNL     1      -3.397  -1.116  25.447  0.00  0.00    -0.268 OA
BRANCH  23  25
ATOM     25  C   UNL     1      -3.798  -2.147  24.542  0.00  0.00    +0.055 A 
ATOM     26  C   UNL     1      -4.253  -2.396  23.901  0.00  0.00    +0.005 A 
ATOM     27  C   UNL     1      -4.236  -3.187  23.666  0.00  0.00    +0.000 A 
ATOM     28  C   UNL     1      -3.763  -3.728  24.073  0.00  0.00    +0.000 A 
ATOM     29  C   UNL     1      -3.308  -3.477  24.713  0.00  0.00    +0.000 A 
ATOM     30  C   UNL     1      -3.325  -2.687  24.949  0.00  0.00    +0.005 A 
ENDBRANCH  23  25
ENDBRANCH  18  22
BRANCH  14  13
ATOM     13  O   UNL     1      -3.870   2.746  24.375  0.00  0.00    -0.432 OA
BRANCH  13  11
ATOM     10  N   UNL     1      -2.826   3.288  25.186  0.00  0.00    -0.142 NA
ATOM     11  C   UNL     1      -3.167   3.171  24.444  0.00  0.00    +0.425 C 
ATOM     12  O   UNL     1      -2.805   3.480  23.770  0.00  0.00    -0.224 OA
BRANCH  10   9
ATOM      3  C   UNL     1      -1.427   4.962  25.264  0.00  0.00    +0.143 A 
ATOM      4  C   UNL     1      -0.715   4.565  25.392  0.00  0.00    +0.074 A 
ATOM      5  C   UNL     1      -0.707   3.742  25.452  0.00  0.00    +0.143 A 
ATOM      8  C   UNL     1      -1.411   3.317  25.383  0.00  0.00    +0.054 A 
ATOM      9  C   UNL     1      -2.122   3.714  25.255  0.00  0.00    +0.083 A 
ATOM     31  C   UNL     1      -2.130   4.536  25.195  0.00  0.00    +0.054 A 
BRANCH   3   2
ATOM      1  C   UNL     1      -1.045   6.157  24.581  0.00  0.00    +0.252 C 
ATOM      2  O   UNL     1      -1.435   5.784  25.205  0.00  0.00    -0.471 OA
ENDBRANCH   3   2
BRANCH   5   6
ATOM      6  O   UNL     1       0.004   3.344  25.580  0.00  0.00    -0.471 OA
ATOM      7  C   UNL     1       0.022   2.677  26.066  0.00  0.00    +0.252 C 
ENDBRANCH   5   6
ENDBRANCH  10   9
ENDBRANCH  13  11
ENDBRANCH  14  13
TORSDOF 7
ENDMDL
MODEL 6
REMARK VINA RESULT:      -6.8      2.928      4.907
REMARK  Name = 
REMARK  7 active torsions:
REMARK  status: ('A' for Active; 'I' for Inactive)
REMARK    1  A    between atoms: O_2  and  C_3
REMARK    2  A    between atoms: C_5  and  O_6
REMARK    3  A    between atoms: C_9  and  N_10
REMARK    4  A    between atoms: C_11  and  O_13
REMARK    5  A    between atoms: O_13  and  C_14
REMARK    6  A    between atoms: C_18  and  N_22
REMARK    7  A    between atoms: C_23  and  C_25
REMARK                            x       y       z     vdW  Elec       q    Type
REMARK                         _______ _______ _______ _____ _____    ______ ____
ROOT
ATOM     14  C   UNL     1      -0.620   0.238  24.607  0.00  0.00    +0.229 C 
ATOM     15  C   UNL     1      -0.531   0.559  23.852  0.00  0.00    +0.188 C 
ATOM     16  O   UNL     1      -0.509   1.380  23.925  0.00  0.00    -0.348 OA
ATOM     17  C   UNL     1      -0.585   1.567  24.724  0.00  0.00    +0.168 C 
ATOM     18  C   UNL     1      -0.619   2.190  25.264  0.00  0.00    +0.155 C 
ATOM     19  C   UNL     1      -0.709   1.870  26.019  0.00  0.00    +0.166 C 
ATOM     20  O   UNL     1      -0.730   1.049  25.946  0.00  0.00    -0.348 OA
ATOM     21  C   UNL     1      -0.654   0.862  25.146  0.00  0.00    +0.186 C 
ENDROOT
BRANCH  18  22
ATOM     22  N   UNL     1      -0.572   2.993  25.081  0.00  0.00    -0.198 NA
ATOM     23  C   UNL     1      -1.164   3.510  25.333  0.00  0.00    +0.265 C 
ATOM     24  O   UNL     1      -1.803   3.224  25.769  0.00  0.00    -0.268 OA
BRANCH  23  25
ATOM     25  C   UNL     1      -1.117   4.313  25.150  0.00  0.00    +0.055 A 
ATOM     26  C   UNL     1      -1.751   4.813  25.320  0.00  0.00    +0.005 A 
ATOM     27  C   UNL     1      -1.704   5.616  25.137  0.00  0.00    +0.000 A 
ATOM     28  C   UNL     1      -1.022   5.919  24.783  0.00  0.00    +0.000 A 
ATOM     29  C   UNL     1      -0.390   5.419  24.613  0.00  0.00    +0.000 A 
ATOM     30  C   UNL     1      -0.436   4.615  24.796  0.00  0.00    +0.005 A 
ENDBRANCH  23  25
ENDBRANCH  18  22
BRANCH  14  13
ATOM     13  O   UNL     1      -0.667  -0.565  24.791  0.00  0.00    -0.432 OA
BRANCH  13  11
ATOM     10  N   UNL     1      -1.981  -1.065  25.046  0.00  0.00    -0.142 NA
ATOM     11  C   UNL     1      -1.323  -1.005  24.553  0.00  0.00    +0.425 C 
ATOM     12  O   UNL     1      -1.321  -1.385  23.820  0.00  0.00    -0.224 OA
BRANCH  10   9
ATOM      3  C   UNL     1      -3.958  -1.564  24.268  0.00  0.00    +0.143 A 
ATOM      4  C   UNL     1      -3.949  -2.386  24.333  0.00  0.00    +0.074 A 
ATOM      5  C   UNL     1      -3.283  -2.768  24.637  0.00  0.00    +0.143 A 
ATOM      8  C   UNL     1      -2.628  -2.327  24.874  0.00  0.00    +0.054 A 
ATOM      9  C   UNL     1      -2.637  -1.505  24.809  0.00  0.00    +0.083 A 
ATOM     31  C   UNL     1      -3.302  -1.124  24.506  0.00  0.00    +0.054 A 
BRANCH   3   2
ATOM      1  C   UNL     1      -4.867  -0.461  24.283  0.00  0.00    +0.252 C 
ATOM      2  O   UNL     1      -4.623  -1.182  23.965  0.00  0.00    -0.471 OA
ENDBRANCH   3   2
BRANCH   5   6
ATOM      6  O   UNL     1      -3.274  -3.590  24.703  0.00  0.00    -0.471 OA
ATOM      7  C   UNL     1      -3.649  -4.054  24.132  0.00  0.00    +0.252 C 
ENDBRANCH   5   6
ENDBRANCH  10   9
ENDBRANCH  13  11
ENDBRANCH  14  13
TORSDOF 7
ENDMDL
MODEL 7
REMARK VINA RESULT:      -6.6     14.944     16.089
REMARK  Name = 
REMARK  7 active torsions:
REMARK  status: ('A' for Active; 'I' for Inactive)
REMARK    1  A    between atoms: O_2  and  C_3
REMARK    2  A    between atoms: C_5  and  O_6
REMARK    3  A    between atoms: C_9  and  N_10
REMARK    4  A    between atoms: C_11  and  O_13
REMARK    5  A    between atoms: O_13  and  C_14
REMARK    6  A    between atoms: C_18  and  N_22
REMARK    7  A    between atoms: C_23  and  C_25
REMARK                            x       y       z     vdW  Elec       q    Type
REMARK                         _______ _______ _______ _____ _____    ______ ____
ROOT
ATOM     14  C   UNL     1      -5.562 -10.329  14.493  0.00  0.00    +0.229 C 
ATOM     15  C   UNL     1      -6.234 -10.067  14.093  0.00  0.00    +0.188 C 
ATOM     16  O   UNL     1      -6.037  -9.975  13.297  0.00  0.00    -0.348 OA
ATOM     17  C   UNL     1      -5.244 -10.179  13.205  0.00  0.00    +0.168 C 
ATOM     18  C   UNL     1      -4.630 -10.249  12.658  0.00  0.00    +0.155 C 
ATOM     19  C   UNL     1      -3.959 -10.511  13.058  0.00  0.00    +0.166 C 
ATOM     20  O   UNL     1      -4.156 -10.603  13.853  0.00  0.00    -0.348 OA
ATOM     21  C   UNL     1      -4.950 -10.398  13.945  0.00  0.00    +0.186 C 
ENDROOT
BRANCH  18  22
ATOM     22  N   UNL     1      -4.681 -10.085  11.851  0.00  0.00    -0.198 NA
ATOM     23  C   UNL     1      -3.994 -10.018  11.399  0.00  0.00    +0.265 C 
ATOM     24  O   UNL     1      -3.256 -10.115  11.755  0.00  0.00    -0.268 OA
BRANCH  23  25
ATOM     25  C   UNL     1      -4.044  -9.855  10.592  0.00  0.00    +0.055 A 
ATOM     26  C   UNL     1      -3.920  -9.086  10.318  0.00  0.00    +0.005 A 
ATOM     27  C   UNL     1      -3.971  -8.922   9.511  0.00  0.00    +0.000 A 
ATOM     28  C   UNL     1      -4.146  -9.527   8.978  0.00  0.00    +0.000 A 
ATOM     29  C   UNL     1      -4.269 -10.295   9.252  0.00  0.00    +0.000 A 
ATOM     30  C   UNL     1      -4.219 -10.459  10.059  0.00  0.00    +0.005 A 
ENDBRANCH  23  25
ENDBRANCH  18  22
BRANCH  14  13
ATOM     13  O   UNL     1      -5.512 -10.493  15.300  0.00  0.00    -0.432 OA
BRANCH  13  11
ATOM     10  N   UNL     1      -6.125  -9.953  16.473  0.00  0.00    -0.142 NA
ATOM     11  C   UNL     1      -6.175 -10.401  15.782  0.00  0.00    +0.425 C 
ATOM     12  O   UNL     1      -6.889 -10.758  15.573  0.00  0.00    -0.224 OA
BRANCH  10   9
ATOM      3  C   UNL     1      -7.557 -10.260  18.091  0.00  0.00    +0.143 A 
ATOM      4  C   UNL     1      -8.114  -9.677  17.919  0.00  0.00    +0.074 A 
ATOM      5  C   UNL     1      -8.008  -9.185  17.264  0.00  0.00    +0.143 A 
ATOM      8  C   UNL     1      -7.345  -9.278  16.783  0.00  0.00    +0.054 A 
ATOM      9  C   UNL     1      -6.788  -9.861  16.955  0.00  0.00    +0.083 A 
ATOM     31  C   UNL     1      -6.894 -10.352  17.609  0.00  0.00    +0.054 A 
BRANCH   3   2
ATOM      1  C   UNL     1      -7.099 -10.763  19.348  0.00  0.00    +0.252 C 
ATOM      2  O   UNL     1      -7.663 -10.751  18.745  0.00  0.00    -0.471 OA
ENDBRANCH   3   2
BRANCH   5   6
ATOM      6  O   UNL     1      -8.566  -8.602  17.092  0.00  0.00    -0.471 OA
ATOM      7  C   UNL     1      -9.347  -8.813  16.929  0.00  0.00    +0.252 C 
ENDBRANCH   5   6
ENDBRANCH  10   9
ENDBRANCH  13  11
ENDBRANCH  14  13
TORSDOF 7
ENDMDL
MODEL 8
REMARK VINA RESULT:      -6.3      1.167      6.697
REMARK  Name = 
REMARK  7 active torsions:
REMARK  status: ('A' for Active; 'I' for Inactive)
REMARK    1  A    between atoms: O_2  and  C_3
REMARK    2  A    between atoms: C_5  and  O_6
REMARK    3  A    between atoms: C_9  and  N_10
REMARK    4  A    between atoms: C_11  and  O_13
REMARK    5  A    between atoms: O_13  and  C_14
REMARK    6  A    between atoms: C_18  and  N_22
REMARK    7  A    between atoms: C_23  and  C_25
REMARK                            x       y       z     vdW  Elec       q    Type
REMARK                         _______ _______ _______ _____ _____    ______ ____
ROOT
ATOM     14  C   UNL     1      -0.541   1.935  24.893  0.00  0.00    +0.229 C 
ATOM     15  C   UNL     1      -0.811   1.259  25.282  0.00  0.00    +0.188 C 
ATOM     16  O   UNL     1      -1.621   1.345  25.408  0.00  0.00    -0.348 OA
ATOM     17  C   UNL     1      -1.853   2.072  25.098  0.00  0.00    +0.168 C 
ATOM     18  C   UNL     1      -2.496   2.576  24.983  0.00  0.00    +0.155 C 
ATOM     19  C   UNL     1      -2.227   3.252  24.594  0.00  0.00    +0.166 C 
ATOM     20  O   UNL     1      -1.416   3.166  24.469  0.00  0.00    -0.348 OA
ATOM     21  C   UNL     1      -1.185   2.437  24.779  0.00  0.00    +0.186 C 
ENDROOT
BRANCH  18  22
ATOM     22  N   UNL     1      -3.274   2.429  25.217  0.00  0.00    -0.198 NA
ATOM     23  C   UNL     1      -3.902   2.687  24.747  0.00  0.00    +0.265 C 
ATOM     24  O   UNL     1      -3.752   3.092  24.045  0.00  0.00    -0.268 OA
BRANCH  23  25
ATOM     25  C   UNL     1      -4.679   2.540  24.981  0.00  0.00    +0.055 A 
ATOM     26  C   UNL     1      -5.067   1.860  24.720  0.00  0.00    +0.005 A 
ATOM     27  C   UNL     1      -5.844   1.712  24.953  0.00  0.00    +0.000 A 
ATOM     28  C   UNL     1      -6.234   2.246  25.448  0.00  0.00    +0.000 A 
ATOM     29  C   UNL     1      -5.846   2.925  25.709  0.00  0.00    +0.000 A 
ATOM     30  C   UNL     1      -5.069   3.073  25.476  0.00  0.00    +0.005 A 
ENDBRANCH  23  25
ENDBRANCH  18  22
BRANCH  14  13
ATOM     13  O   UNL     1       0.237   2.082  24.660  0.00  0.00    -0.432 OA
BRANCH  13  11
ATOM     10  N   UNL     1       1.115   1.650  23.619  0.00  0.00    -0.142 NA
ATOM     11  C   UNL     1       0.679   1.486  24.299  0.00  0.00    +0.425 C 
ATOM     12  O   UNL     1       0.685   0.726  24.621  0.00  0.00    -0.224 OA
BRANCH  10   9
ATOM      3  C   UNL     1       2.821   0.450  22.974  0.00  0.00    +0.143 A 
ATOM      4  C   UNL     1       2.442  -0.137  22.537  0.00  0.00    +0.074 A 
ATOM      5  C   UNL     1       1.620  -0.130  22.460  0.00  0.00    +0.143 A 
ATOM      8  C   UNL     1       1.178   0.466  22.821  0.00  0.00    +0.054 A 
ATOM      9  C   UNL     1       1.557   1.054  23.258  0.00  0.00    +0.083 A 
ATOM     31  C   UNL     1       2.378   1.046  23.334  0.00  0.00    +0.054 A 
BRANCH   3   2
ATOM      1  C   UNL     1       4.117   0.693  22.424  0.00  0.00    +0.252 C 
ATOM      2  O   UNL     1       3.642   0.442  23.050  0.00  0.00    -0.471 OA
ENDBRANCH   3   2
BRANCH   5   6
ATOM      6  O   UNL     1       1.241  -0.718  22.023  0.00  0.00    -0.471 OA
ATOM      7  C   UNL     1       1.058  -0.588  21.229  0.00  0.00    +0.252 C 
ENDBRANCH   5   6
ENDBRANCH  10   9
ENDBRANCH  13  11
ENDBRANCH  14  13
TORSDOF 7
ENDMDL
MODEL 9
REMARK VINA RESULT:      -6.1     15.221     16.136
REMARK  Name = 
REMARK  7 active torsions:
REMARK  status: ('A' for Active; 'I' for Inactive)
REMARK    1  A    between atoms: O_2  and  C_3
REMARK    2  A    between atoms: C_5  and  O_6
REMARK    3  A    between atoms: C_9  and  N_10
REMARK    4  A    between atoms: C_11  and  O_13
REMARK    5  A    between atoms: O_13  and  C_14
REMARK    6  A    between atoms: C_18  and  N_22
REMARK    7  A    between atoms: C_23  and  C_25
REMARK                            x       y       z     vdW  Elec       q    Type
REMARK                         _______ _______ _______ _____ _____    ______ ____
ROOT
ATOM     14  C   UNL     1      -6.836 -10.234  14.461  0.00  0.00    +0.229 C 
ATOM     15  C   UNL     1      -6.143  -9.935  14.793  0.00  0.00    +0.188 C 
ATOM     16  O   UNL     1      -5.624  -9.752  14.178  0.00  0.00    -0.348 OA
ATOM     17  C   UNL     1      -5.996  -9.939  13.467  0.00  0.00    +0.168 C 
ATOM     18  C   UNL     1      -5.906  -9.942  12.647  0.00  0.00    +0.155 C 
ATOM     19  C   UNL     1      -6.599 -10.241  12.314  0.00  0.00    +0.166 C 
ATOM     20  O   UNL     1      -7.117 -10.423  12.929  0.00  0.00    -0.348 OA
ATOM     21  C   UNL     1      -6.745 -10.237  13.641  0.00  0.00    +0.186 C 
ENDROOT
BRANCH  18  22
ATOM     22  N   UNL     1      -5.238  -9.689  12.231  0.00  0.00    -0.198 NA
ATOM     23  C   UNL     1      -5.054 -10.028  11.502  0.00  0.00    +0.265 C 
ATOM     24  O   UNL     1      -5.536 -10.618  11.187  0.00  0.00    -0.268 OA
BRANCH  23  25
ATOM     25  C   UNL     1      -4.387  -9.775  11.087  0.00  0.00    +0.055 A 
ATOM     26  C   UNL     1      -4.459  -9.198  10.502  0.00  0.00    +0.005 A 
ATOM     27  C   UNL     1      -3.792  -8.945  10.087  0.00  0.00    +0.000 A 
ATOM     28  C   UNL     1      -3.053  -9.270  10.258  0.00  0.00    +0.000 A 
ATOM     29  C   UNL     1      -2.982  -9.847  10.842  0.00  0.00    +0.000 A 
ATOM     30  C   UNL     1      -3.648 -10.100  11.257  0.00  0.00    +0.005 A 
ENDBRANCH  23  25
ENDBRANCH  18  22
BRANCH  14  13
ATOM     13  O   UNL     1      -7.503 -10.486  14.876  0.00  0.00    -0.432 OA
BRANCH  13  11
ATOM     10  N   UNL     1      -8.651  -9.914  15.505  0.00  0.00    -0.142 NA
ATOM     11  C   UNL     1      -7.833 -10.005  15.459  0.00  0.00    +0.425 C 
ATOM     12  O   UNL     1      -7.343  -9.615  15.997  0.00  0.00    -0.224 OA
BRANCH  10   9
ATOM      3  C   UNL     1      -9.502  -8.168  16.501  0.00  0.00    +0.143 A 
ATOM      4  C   UNL     1      -9.641  -8.471  17.255  0.00  0.00    +0.074 A 
ATOM      5  C   UNL     1      -9.451  -9.256  17.426  0.00  0.00    +0.143 A 
ATOM      8  C   UNL     1      -9.121  -9.736  16.842  0.00  0.00    +0.054 A 
ATOM      9  C   UNL     1      -8.981  -9.433  16.088  0.00  0.00    +0.083 A 
ATOM     31  C   UNL     1      -9.172  -8.649  15.918  0.00  0.00    +0.054 A 
BRANCH   3   2
ATOM      1  C   UNL     1     -10.313  -7.213  15.814  0.00  0.00    +0.252 C 
ATOM      2  O   UNL     1      -9.693  -7.384  16.330  0.00  0.00    -0.471 OA
ENDBRANCH   3   2
BRANCH   5   6
ATOM      6  O   UNL     1      -9.590  -9.559  18.181  0.00  0.00    -0.471 OA
ATOM      7  C   UNL     1     -10.307  -9.930  18.351  0.00  0.00    +0.252 C 
ENDBRANCH   5   6
ENDBRANCH  10   9
ENDBRANCH  13  11
ENDBRANCH  14  13
TORSDOF 7
ENDMDL
MODEL 10
REMARK VINA RESULT:      -6.0     15.181     17.061
REMARK  Name = 
REMARK  7 active torsions:
REMARK  status: ('A' for Active; 'I' for Inactive)
REMARK    1  A    between atoms: O_2  and  C_3
REMARK    2  A    between atoms: C_5  and  O_6
REMARK    3  A    between atoms: C_9  and  N_10
REMARK    4  A    between atoms: C_11  and  O_13
REMARK    5  A    between atoms: O_13  and  C_14
REMARK    6  A    between atoms: C_18  and  N_22
REMARK    7  A    between atoms: C_23  and  C_25
REMARK                            x       y       z     vdW  Elec       q    Type
REMARK                         _______ _______ _______ _____ _____    ______ ____
ROOT
ATOM     14  C   UNL     1      -4.705 -10.651  13.575  0.00  0.00    +0.229 C 
ATOM     15  C   UNL     1      -5.530 -10.649  13.557  0.00  0.00    +0.188 C 
ATOM     16  O   UNL     1      -5.802 -10.668  14.335  0.00  0.00    -0.348 OA
ATOM     17  C   UNL     1      -5.146 -10.682  14.835  0.00  0.00    +0.168 C 
ATOM     18  C   UNL     1      -4.908 -10.703  15.624  0.00  0.00    +0.155 C 
ATOM     19  C   UNL     1      -4.083 -10.705  15.643  0.00  0.00    +0.166 C 
ATOM     20  O   UNL     1      -3.811 -10.686  14.864  0.00  0.00    -0.348 OA
ATOM     21  C   UNL     1      -4.468 -10.672  14.365  0.00  0.00    +0.186 C 
ENDROOT
BRANCH  18  22
ATOM     22  N   UNL     1      -5.407 -10.718  16.281  0.00  0.00    -0.198 NA
ATOM     23  C   UNL     1      -5.141 -10.436  17.009  0.00  0.00    +0.265 C 
ATOM     24  O   UNL     1      -4.374 -10.139  17.081  0.00  0.00    -0.268 OA
BRANCH  23  25
ATOM     25  C   UNL     1      -5.640 -10.451  17.665  0.00  0.00    +0.055 A 
ATOM     26  C   UNL     1      -5.373 -10.765  18.380  0.00  0.00    +0.005 A 
ATOM     27  C   UNL     1      -5.872 -10.781  19.037  0.00  0.00    +0.000 A 
ATOM     28  C   UNL     1      -6.640 -10.482  18.978  0.00  0.00    +0.000 A 
ATOM     29  C   UNL     1      -6.906 -10.168  18.264  0.00  0.00    +0.000 A 
ATOM     30  C   UNL     1      -6.407 -10.153  17.607  0.00  0.00    +0.005 A 
ENDBRANCH  23  25
ENDBRANCH  18  22
BRANCH  14  13
ATOM     13  O   UNL     1      -4.206 -10.636  12.919  0.00  0.00    -0.432 OA
BRANCH  13  11
ATOM     10  N   UNL     1      -3.988 -10.097  11.613  0.00  0.00    -0.142 NA
ATOM     11  C   UNL     1      -4.498 -10.406  12.182  0.00  0.00    +0.425 C 
ATOM     12  O   UNL     1      -5.303 -10.486  12.016  0.00  0.00    -0.224 OA
BRANCH  10   9
ATOM      3  C   UNL     1      -4.617 -10.184   9.525  0.00  0.00    +0.143 A 
ATOM      4  C   UNL     1      -4.866  -9.406   9.405  0.00  0.00    +0.074 A 
ATOM      5  C   UNL     1      -4.822  -8.859  10.021  0.00  0.00    +0.143 A 
ATOM      8  C   UNL     1      -4.529  -9.090  10.757  0.00  0.00    +0.054 A 
ATOM      9  C   UNL     1      -4.281  -9.867  10.877  0.00  0.00    +0.083 A 
ATOM     31  C   UNL     1      -4.325 -10.414  10.261  0.00  0.00    +0.054 A 
BRANCH   3   2
ATOM      1  C   UNL     1      -4.610 -10.475   8.126  0.00  0.00    +0.252 C 
ATOM      2  O   UNL     1      -4.661 -10.730   8.909  0.00  0.00    -0.471 OA
ENDBRANCH   3   2
BRANCH   5   6
ATOM      6  O   UNL     1      -5.071  -8.082   9.901  0.00  0.00    -0.471 OA
ATOM      7  C   UNL     1      -5.808  -7.932   9.561  0.00  0.00    +0.252 C 
ENDBRANCH   5   6
ENDBRANCH  10   9
ENDBRANCH  13  11
ENDBRANCH  14  13
TORSDOF 7
ENDMDL
