MODEL 1
REMARK VINA RESULT:     -14.2      0.000      0.000
REMARK  Name = 
REMARK  5 active torsions:
REMARK  status: ('A' for Active; 'I' for Inactive)
REMARK    1  A    between atoms: O_2  and  C_3
REMARK    2  A    between atoms: C_6  and  S_9
REMARK    3  A    between atoms: S_9  and  N_12
REMARK    4  A    between atoms: N_12  and  C_13
REMARK    5  A    between atoms: C_23  and  C_25
REMARK                            x       y       z     vdW  Elec       q    Type
REMARK                         _______ _______ _______ _____ _____    ______ ____
ROOT
ATOM     13  C   UNL     1      -3.280   2.169  24.909  0.00  0.00    +0.147 A 
ATOM     14  C   UNL     1      -3.649   2.907  24.905  0.00  0.00    +0.024 A 
ATOM     15  C   UNL     1      -4.470   2.958  24.961  0.00  0.00    +0.014 A 
ATOM     16  C   UNL     1      -4.923   2.271  25.022  0.00  0.00    +0.041 A 
ATOM     17  C   UNL     1      -5.796   1.997  25.095  0.00  0.00    +0.058 C 
ATOM     18  C   UNL     1      -6.451   2.247  25.131  0.00  0.00    +0.011 C 
ATOM     19  C   UNL     1      -6.083   1.520  25.135  0.00  0.00    +0.043 C 
ATOM     20  C   UNL     1      -5.830   0.565  25.156  0.00  0.00    +0.096 C 
ATOM     21  N   UNL     1      -5.000   0.640  25.094  0.00  0.00    -0.276 N 
ATOM     22  C   UNL     1      -5.567   1.070  25.117  0.00  0.00    +0.099 C 
ATOM     23  C   UNL     1      -4.208   0.411  25.047  0.00  0.00    +0.249 C 
ATOM     24  O   UNL     1      -3.617   0.984  24.982  0.00  0.00    -0.270 OA
ATOM     35  C   UNL     1      -5.168   1.798  25.059  0.00  0.00    +0.110 C 
ATOM     36  N   UNL     1      -4.554   1.533  25.026  0.00  0.00    -0.298 N 
ATOM     37  C   UNL     1      -3.732   1.482  24.969  0.00  0.00    +0.277 A 
ATOM     38  O   UNL     1      -3.154   0.894  24.952  0.00  0.00    -0.266 OA
ENDROOT
BRANCH  23  25
ATOM     25  C   UNL     1      -4.008  -0.388  25.066  0.00  0.00    +0.054 A 
ATOM     26  C   UNL     1      -4.128  -0.859  24.399  0.00  0.00    +0.005 A 
ATOM     27  C   UNL     1      -3.927  -1.660  24.417  0.00  0.00    +0.000 A 
ATOM     28  C   UNL     1      -3.607  -1.989  25.102  0.00  0.00    +0.000 A 
ATOM     29  C   UNL     1      -3.407  -2.789  25.120  0.00  0.00    +0.000 A 
ATOM     30  C   UNL     1      -3.527  -3.259  24.453  0.00  0.00    +0.000 A 
ATOM     31  C   UNL     1      -3.847  -2.931  23.769  0.00  0.00    +0.000 A 
ATOM     32  C   UNL     1      -4.048  -2.130  23.750  0.00  0.00    +0.000 A 
ATOM     33  C   UNL     1      -3.487  -1.519  25.769  0.00  0.00    +0.000 A 
ATOM     34  C   UNL     1      -3.687  -0.718  25.750  0.00  0.00    +0.005 A 
ENDBRANCH  23  25
BRANCH  13  12
ATOM     12  N   UNL     1      -2.459   2.119  24.853  0.00  0.00    -0.092 NA
BRANCH  12   9
ATOM      9  S   UNL     1      -2.003   2.806  24.838  0.00  0.00    +0.093 S 
ATOM     10  O   UNL     1      -1.942   2.784  25.660  0.00  0.00    -0.148 OA
ATOM     11  O   UNL     1      -2.064   2.829  24.016  0.00  0.00    -0.148 OA
BRANCH   9   6
ATOM      3  C   UNL     1      -0.636   4.870  24.796  0.00  0.00    +0.139 A 
ATOM      4  C   UNL     1      -1.291   4.819  25.295  0.00  0.00    +0.038 A 
ATOM      5  C   UNL     1      -1.746   4.131  25.309  0.00  0.00    +0.023 A 
ATOM      6  C   UNL     1      -1.547   3.494  24.824  0.00  0.00    +0.127 A 
ATOM      7  C   UNL     1      -0.892   3.545  24.325  0.00  0.00    +0.023 A 
ATOM      8  C   UNL     1      -0.437   4.233  24.311  0.00  0.00    +0.038 A 
BRANCH   3   2
ATOM      1  C   UNL     1      -0.535   6.283  24.614  0.00  0.00    +0.252 C 
ATOM      2  O   UNL     1      -0.181   5.557  24.783  0.00  0.00    -0.471 OA
ENDBRANCH   3   2
ENDBRANCH   9   6
ENDBRANCH  12   9
ENDBRANCH  13  12
TORSDOF 5
ENDMDL
MODEL 2
REMARK VINA RESULT:     -14.0      1.286      5.205
REMARK  Name = 
REMARK  5 active torsions:
REMARK  status: ('A' for Active; 'I' for Inactive)
REMARK    1  A    between atoms: O_2  and  C_3
REMARK    2  A    between atoms: C_6  and  S_9
REMARK    3  A    between atoms: S_9  and  N_12
REMARK    4  A    between atoms: N_12  and  C_13
REMARK    5  A    between atoms: C_23  and  C_25
REMARK                            x       y       z     vdW  Elec       q    Type
REMARK                         _______ _______ _______ _____ _____    ______ ____
ROOT
ATOM     13  C   UNL     1      -4.000   1.116  24.682  0.00  0.00    +0.147 A 
ATOM     14  C   UNL     1      -4.776   0.835  24.711  0.00  0.00    +0.024 A 
ATOM     15  C   UNL     1      -5.380   1.322  24.991  0.00  0.00    +0.014 A 
ATOM     16  C   UNL     1      -5.210   2.088  25.242  0.00  0.00    +0.041 A 
ATOM     17  C   UNL     1      -5.621   2.835  25.585  0.00  0.00    +0.058 C 
ATOM     18  C   UNL     1      -6.251   3.076  25.780  0.00  0.00    +0.011 C 
ATOM     19  C   UNL     1      -5.484   3.350  25.750  0.00  0.00    +0.043 C 
ATOM     20  C   UNL     1      -4.636   3.856  25.790  0.00  0.00    +0.096 C 
ATOM     21  N   UNL     1      -4.114   3.277  25.490  0.00  0.00    -0.276 N 
ATOM     22  C   UNL     1      -4.810   3.337  25.630  0.00  0.00    +0.099 C 
ATOM     23  C   UNL     1      -3.405   2.933  25.243  0.00  0.00    +0.249 C 
ATOM     24  O   UNL     1      -3.399   2.158  24.959  0.00  0.00    -0.270 OA
ATOM     35  C   UNL     1      -5.046   2.575  25.392  0.00  0.00    +0.110 C 
ATOM     36  N   UNL     1      -4.434   2.369  25.213  0.00  0.00    -0.298 N 
ATOM     37  C   UNL     1      -3.830   1.883  24.933  0.00  0.00    +0.277 A 
ATOM     38  O   UNL     1      -3.015   1.927  24.810  0.00  0.00    -0.266 OA
ENDROOT
BRANCH  23  25
ATOM     25  C   UNL     1      -2.703   3.364  25.281  0.00  0.00    +0.054 A 
ATOM     26  C   UNL     1      -2.597   4.023  24.796  0.00  0.00    +0.005 A 
ATOM     27  C   UNL     1      -1.894   4.455  24.834  0.00  0.00    +0.000 A 
ATOM     28  C   UNL     1      -1.299   4.228  25.356  0.00  0.00    +0.000 A 
ATOM     29  C   UNL     1      -0.596   4.659  25.394  0.00  0.00    +0.000 A 
ATOM     30  C   UNL     1      -0.491   5.318  24.909  0.00  0.00    +0.000 A 
ATOM     31  C   UNL     1      -1.086   5.545  24.386  0.00  0.00    +0.000 A 
ATOM     32  C   UNL     1      -1.789   5.113  24.348  0.00  0.00    +0.000 A 
ATOM     33  C   UNL     1      -1.404   3.569  25.842  0.00  0.00    +0.000 A 
ATOM     34  C   UNL     1      -2.107   3.137  25.804  0.00  0.00    +0.005 A 
ENDBRANCH  23  25
BRANCH  13  12
ATOM     12  N   UNL     1      -3.396   0.630  24.401  0.00  0.00    -0.092 NA
BRANCH  12   9
ATOM      9  S   UNL     1      -3.485  -0.190  24.418  0.00  0.00    +0.093 S 
ATOM     10  O   UNL     1      -3.182  -0.207  25.185  0.00  0.00    -0.148 OA
ATOM     11  O   UNL     1      -3.789  -0.173  23.651  0.00  0.00    -0.148 OA
BRANCH   9   6
ATOM      3  C   UNL     1      -3.750  -2.650  24.472  0.00  0.00    +0.139 A 
ATOM      4  C   UNL     1      -3.340  -2.266  25.076  0.00  0.00    +0.038 A 
ATOM      5  C   UNL     1      -3.252  -1.447  25.058  0.00  0.00    +0.023 A 
ATOM      6  C   UNL     1      -3.574  -1.011  24.436  0.00  0.00    +0.127 A 
ATOM      7  C   UNL     1      -3.985  -1.394  23.832  0.00  0.00    +0.023 A 
ATOM      8  C   UNL     1      -4.073  -2.214  23.850  0.00  0.00    +0.038 A 
BRANCH   3   2
ATOM      1  C   UNL     1      -3.685  -3.916  23.813  0.00  0.00    +0.252 C 
ATOM      2  O   UNL     1      -3.839  -3.470  24.490  0.00  0.00    -0.471 OA
ENDBRANCH   3   2
ENDBRANCH   9   6
ENDBRANCH  12   9
ENDBRANCH  13  12
TORSDOF 5
ENDMDL
MODEL 3
REMARK VINA RESULT:     -13.4      2.494      4.240
REMARK  Name = 
REMARK  5 active torsions:
REMARK  status: ('A' for Active; 'I' for Inactive)
REMARK    1  A    between atoms: O_2  and  C_3
REMARK    2  A    between atoms: C_6  and  S_9
REMARK    3  A    between atoms: S_9  and  N_12
REMARK    4  A    between atoms: N_12  and  C_13
REMARK    5  A    between atoms: C_23  and  C_25
REMARK                            x       y       z     vdW  Elec       q    Type
REMARK                         _______ _______ _______ _____ _____    ______ ____
ROOT
ATOM     13  C   UNL     1      -1.547  -0.302  24.466  0.00  0.00    +0.147 A 
ATOM     14  C   UNL     1      -1.258  -1.074  24.416  0.00  0.00    +0.024 A 
ATOM     15  C   UNL     1      -1.783  -1.709  24.377  0.00  0.00    +0.014 A 
ATOM     16  C   UNL     1      -2.596  -1.573  24.390  0.00  0.00    +0.041 A 
ATOM     17  C   UNL     1      -3.396  -2.025  24.364  0.00  0.00    +0.058 C 
ATOM     18  C   UNL     1      -3.660  -2.674  24.324  0.00  0.00    +0.011 C 
ATOM     19  C   UNL     1      -3.942  -1.911  24.374  0.00  0.00    +0.043 C 
ATOM     20  C   UNL     1      -4.468  -1.077  24.429  0.00  0.00    +0.096 C 
ATOM     21  N   UNL     1      -3.846  -0.521  24.462  0.00  0.00    -0.276 N 
ATOM     22  C   UNL     1      -3.919  -1.228  24.417  0.00  0.00    +0.099 C 
ATOM     23  C   UNL     1      -3.471   0.213  24.508  0.00  0.00    +0.249 C 
ATOM     24  O   UNL     1      -2.647   0.257  24.507  0.00  0.00    -0.270 OA
ATOM     35  C   UNL     1      -3.111  -1.430  24.401  0.00  0.00    +0.110 C 
ATOM     36  N   UNL     1      -2.885  -0.802  24.440  0.00  0.00    -0.298 N 
ATOM     37  C   UNL     1      -2.360  -0.166  24.478  0.00  0.00    +0.277 A 
ATOM     38  O   UNL     1      -2.396   0.656  24.531  0.00  0.00    -0.266 OA
ENDROOT
BRANCH  23  25
ATOM     25  C   UNL     1      -3.920   0.903  24.554  0.00  0.00    +0.054 A 
ATOM     26  C   UNL     1      -4.372   1.057  25.227  0.00  0.00    +0.005 A 
ATOM     27  C   UNL     1      -4.822   1.748  25.273  0.00  0.00    +0.000 A 
ATOM     28  C   UNL     1      -4.820   2.283  24.647  0.00  0.00    +0.000 A 
ATOM     29  C   UNL     1      -5.270   2.974  24.693  0.00  0.00    +0.000 A 
ATOM     30  C   UNL     1      -5.720   3.128  25.366  0.00  0.00    +0.000 A 
ATOM     31  C   UNL     1      -5.722   2.592  25.993  0.00  0.00    +0.000 A 
ATOM     32  C   UNL     1      -5.273   1.901  25.947  0.00  0.00    +0.000 A 
ATOM     33  C   UNL     1      -4.369   2.130  23.973  0.00  0.00    +0.000 A 
ATOM     34  C   UNL     1      -3.919   1.439  23.927  0.00  0.00    +0.005 A 
ENDBRANCH  23  25
BRANCH  13  12
ATOM     12  N   UNL     1      -1.021   0.332  24.505  0.00  0.00    -0.092 NA
BRANCH  12   9
ATOM      9  S   UNL     1      -0.311   0.306  24.087  0.00  0.00    +0.093 S 
ATOM     10  O   UNL     1      -0.656   0.734  23.472  0.00  0.00    -0.148 OA
ATOM     11  O   UNL     1       0.035  -0.123  24.701  0.00  0.00    -0.148 OA
BRANCH   9   6
ATOM      3  C   UNL     1       1.821   0.228  22.832  0.00  0.00    +0.139 A 
ATOM      4  C   UNL     1       1.697   0.815  23.399  0.00  0.00    +0.038 A 
ATOM      5  C   UNL     1       0.987   0.840  23.817  0.00  0.00    +0.023 A 
ATOM      6  C   UNL     1       0.400   0.280  23.668  0.00  0.00    +0.127 A 
ATOM      7  C   UNL     1       0.524  -0.307  23.101  0.00  0.00    +0.023 A 
ATOM      8  C   UNL     1       1.235  -0.333  22.683  0.00  0.00    +0.038 A 
BRANCH   3   2
ATOM      1  C   UNL     1       3.206   0.564  22.724  0.00  0.00    +0.252 C 
ATOM      2  O   UNL     1       2.532   0.203  22.414  0.00  0.00    -0.471 OA
ENDBRANCH   3   2
ENDBRANCH   9   6
ENDBRANCH  12   9
ENDBRANCH  13  12
TORSDOF 5
ENDMDL
MODEL 4
REMARK VINA RESULT:     -13.2      2.552      4.382
REMARK  Name = 
REMARK  5 active torsions:
REMARK  status: ('A' for Active; 'I' for Inactive)
REMARK    1  A    between atoms: O_2  and  C_3
REMARK    2  A    between atoms: C_6  and  S_9
REMARK    3  A    between atoms: S_9  and  N_12
REMARK    4  A    between atoms: N_12  and  C_13
REMARK    5  A    between atoms: C_23  and  C_25
REMARK                            x       y       z     vdW  Elec       q    Type
REMARK                         _______ _______ _______ _____ _____    ______ ____
ROOT
ATOM     13  C   UNL     1      -1.071   2.224  24.718  0.00  0.00    +0.147 A 
ATOM     14  C   UNL     1      -0.364   2.642  24.786  0.00  0.00    +0.024 A 
ATOM     15  C   UNL     1      -0.377   3.456  24.923  0.00  0.00    +0.014 A 
ATOM     16  C   UNL     1      -1.098   3.850  24.992  0.00  0.00    +0.041 A 
ATOM     17  C   UNL     1      -1.441   4.691  25.135  0.00  0.00    +0.058 C 
ATOM     18  C   UNL     1      -1.242   5.355  25.246  0.00  0.00    +0.011 C 
ATOM     19  C   UNL     1      -1.939   4.938  25.178  0.00  0.00    +0.043 C 
ATOM     20  C   UNL     1      -2.872   4.617  25.126  0.00  0.00    +0.096 C 
ATOM     21  N   UNL     1      -2.733   3.804  24.989  0.00  0.00    -0.276 N 
ATOM     22  C   UNL     1      -2.348   4.396  25.088  0.00  0.00    +0.099 C 
ATOM     23  C   UNL     1      -2.898   3.007  24.855  0.00  0.00    +0.249 C 
ATOM     24  O   UNL     1      -2.281   2.467  24.762  0.00  0.00    -0.270 OA
ATOM     35  C   UNL     1      -1.590   4.056  25.028  0.00  0.00    +0.110 C 
ATOM     36  N   UNL     1      -1.806   3.431  24.923  0.00  0.00    -0.298 N 
ATOM     37  C   UNL     1      -1.792   2.618  24.786  0.00  0.00    +0.277 A 
ATOM     38  O   UNL     1      -2.334   2.005  24.685  0.00  0.00    -0.266 OA
ENDROOT
BRANCH  23  25
ATOM     25  C   UNL     1      -3.681   2.750  24.814  0.00  0.00    +0.054 A 
ATOM     26  C   UNL     1      -4.120   2.653  25.506  0.00  0.00    +0.005 A 
ATOM     27  C   UNL     1      -4.903   2.395  25.465  0.00  0.00    +0.000 A 
ATOM     28  C   UNL     1      -5.246   2.235  24.733  0.00  0.00    +0.000 A 
ATOM     29  C   UNL     1      -6.030   1.978  24.692  0.00  0.00    +0.000 A 
ATOM     30  C   UNL     1      -6.468   1.881  25.384  0.00  0.00    +0.000 A 
ATOM     31  C   UNL     1      -6.125   2.041  26.116  0.00  0.00    +0.000 A 
ATOM     32  C   UNL     1      -5.342   2.298  26.157  0.00  0.00    +0.000 A 
ATOM     33  C   UNL     1      -4.808   2.332  24.041  0.00  0.00    +0.000 A 
ATOM     34  C   UNL     1      -4.025   2.589  24.082  0.00  0.00    +0.005 A 
ENDBRANCH  23  25
BRANCH  13  12
ATOM     12  N   UNL     1      -1.057   1.411  24.581  0.00  0.00    -0.092 NA
BRANCH  12   9
ATOM      9  S   UNL     1      -0.419   1.070  24.185  0.00  0.00    +0.093 S 
ATOM     10  O   UNL     1      -0.786   1.222  23.462  0.00  0.00    -0.148 OA
ATOM     11  O   UNL     1      -0.052   0.918  24.908  0.00  0.00    -0.148 OA
BRANCH   9   6
ATOM      3  C   UNL     1       1.495   0.046  22.995  0.00  0.00    +0.139 A 
ATOM      4  C   UNL     1       0.772  -0.349  23.029  0.00  0.00    +0.038 A 
ATOM      5  C   UNL     1       0.134  -0.008  23.426  0.00  0.00    +0.023 A 
ATOM      6  C   UNL     1       0.220   0.729  23.788  0.00  0.00    +0.127 A 
ATOM      7  C   UNL     1       0.943   1.124  23.754  0.00  0.00    +0.023 A 
ATOM      8  C   UNL     1       1.581   0.783  23.357  0.00  0.00    +0.038 A 
BRANCH   3   2
ATOM      1  C   UNL     1       2.795   0.162  22.412  0.00  0.00    +0.252 C 
ATOM      2  O   UNL     1       2.133  -0.295  22.599  0.00  0.00    -0.471 OA
ENDBRANCH   3   2
ENDBRANCH   9   6
ENDBRANCH  12   9
ENDBRANCH  13  12
TORSDOF 5
ENDMDL
MODEL 5
REMARK VINA RESULT:     -12.3      2.312      3.590
REMARK  Name = 
REMARK  5 active torsions:
REMARK  status: ('A' for Active; 'I' for Inactive)
REMARK    1  A    between atoms: O_2  and  C_3
REMARK    2  A    between atoms: C_6  and  S_9
REMARK    3  A    between atoms: S_9  and  N_12
REMARK    4  A    between atoms: N_12  and  C_13
REMARK    5  A    between atoms: C_23  and  C_25
REMARK                            x       y       z     vdW  Elec       q    Type
REMARK                         _______ _______ _______ _____ _____    ______ ____
ROOT
ATOM     13  C   UNL     1      -0.669   1.441  24.906  0.00  0.00    +0.147 A 
ATOM     14  C   UNL     1      -0.026   1.891  24.653  0.00  0.00    +0.024 A 
ATOM     15  C   UNL     1       0.527   1.566  24.134  0.00  0.00    +0.014 A 
ATOM     16  C   UNL     1       0.437   0.790  23.869  0.00  0.00    +0.041 A 
ATOM     17  C   UNL     1       0.843   0.170  23.326  0.00  0.00    +0.058 C 
ATOM     18  C   UNL     1       1.399   0.086  22.907  0.00  0.00    +0.011 C 
ATOM     19  C   UNL     1       0.763  -0.356  23.159  0.00  0.00    +0.043 C 
ATOM     20  C   UNL     1       0.074  -1.039  23.346  0.00  0.00    +0.096 C 
ATOM     21  N   UNL     1      -0.415  -0.606  23.866  0.00  0.00    -0.276 N 
ATOM     22  C   UNL     1       0.185  -0.501  23.497  0.00  0.00    +0.099 C 
ATOM     23  C   UNL     1      -1.047  -0.442  24.371  0.00  0.00    +0.249 C 
ATOM     24  O   UNL     1      -1.108   0.301  24.728  0.00  0.00    -0.270 OA
ATOM     35  C   UNL     1       0.332   0.285  23.728  0.00  0.00    +0.110 C 
ATOM     36  N   UNL     1      -0.207   0.340  24.122  0.00  0.00    -0.298 N 
ATOM     37  C   UNL     1      -0.760   0.665  24.641  0.00  0.00    +0.277 A 
ATOM     38  O   UNL     1      -1.453   0.433  25.021  0.00  0.00    -0.266 OA
ENDROOT
BRANCH  23  25
ATOM     25  C   UNL     1      -1.616  -1.019  24.520  0.00  0.00    +0.054 A 
ATOM     26  C   UNL     1      -2.339  -0.999  24.121  0.00  0.00    +0.005 A 
ATOM     27  C   UNL     1      -2.909  -1.577  24.270  0.00  0.00    +0.000 A 
ATOM     28  C   UNL     1      -2.757  -2.174  24.817  0.00  0.00    +0.000 A 
ATOM     29  C   UNL     1      -3.327  -2.752  24.966  0.00  0.00    +0.000 A 
ATOM     30  C   UNL     1      -4.048  -2.731  24.567  0.00  0.00    +0.000 A 
ATOM     31  C   UNL     1      -4.200  -2.134  24.019  0.00  0.00    +0.000 A 
ATOM     32  C   UNL     1      -3.630  -1.556  23.870  0.00  0.00    +0.000 A 
ATOM     33  C   UNL     1      -2.035  -2.195  25.217  0.00  0.00    +0.000 A 
ATOM     34  C   UNL     1      -1.465  -1.617  25.068  0.00  0.00    +0.005 A 
ENDBRANCH  23  25
BRANCH  13  12
ATOM     12  N   UNL     1      -1.221   1.766  25.425  0.00  0.00    -0.092 NA
BRANCH  12   9
ATOM      9  S   UNL     1      -1.361   2.579  25.422  0.00  0.00    +0.093 S 
ATOM     10  O   UNL     1      -1.886   2.487  24.793  0.00  0.00    -0.148 OA
ATOM     11  O   UNL     1      -0.836   2.672  26.051  0.00  0.00    -0.148 OA
BRANCH   9   6
ATOM      3  C   UNL     1      -1.782   5.018  25.413  0.00  0.00    +0.139 A 
ATOM      4  C   UNL     1      -2.354   4.502  25.707  0.00  0.00    +0.038 A 
ATOM      5  C   UNL     1      -2.214   3.689  25.710  0.00  0.00    +0.023 A 
ATOM      6  C   UNL     1      -1.501   3.393  25.419  0.00  0.00    +0.127 A 
ATOM      7  C   UNL     1      -0.929   3.909  25.124  0.00  0.00    +0.023 A 
ATOM      8  C   UNL     1      -1.069   4.722  25.121  0.00  0.00    +0.038 A 
BRANCH   3   2
ATOM      1  C   UNL     1      -1.735   6.279  24.743  0.00  0.00    +0.252 C 
ATOM      2  O   UNL     1      -1.923   5.831  25.410  0.00  0.00    -0.471 OA
ENDBRANCH   3   2
ENDBRANCH   9   6
ENDBRANCH  12   9
ENDBRANCH  13  12
TORSDOF 5
ENDMDL
MODEL 6
REMARK VINA RESULT:     -11.8      2.543      4.235
REMARK  Name = 
REMARK  5 active torsions:
REMARK  status: ('A' for Active; 'I' for Inactive)
REMARK    1  A    between atoms: O_2  and  C_3
REMARK    2  A    between atoms: C_6  and  S_9
REMARK    3  A    between atoms: S_9  and  N_12
REMARK    4  A    between atoms: N_12  and  C_13
REMARK    5  A    between atoms: C_23  and  C_25
REMARK                            x       y       z     vdW  Elec       q    Type
REMARK                         _______ _______ _______ _____ _____    ______ ____
ROOT
ATOM     13  C   UNL     1      -3.246   0.569  24.414  0.00  0.00    +0.147 A 
ATOM     14  C   UNL     1      -3.948   0.206  24.652  0.00  0.00    +0.024 A 
ATOM     15  C   UNL     1      -3.951  -0.594  24.853  0.00  0.00    +0.014 A 
ATOM     16  C   UNL     1      -3.253  -1.031  24.816  0.00  0.00    +0.041 A 
ATOM     17  C   UNL     1      -2.935  -1.881  24.961  0.00  0.00    +0.058 C 
ATOM     18  C   UNL     1      -3.143  -2.519  25.165  0.00  0.00    +0.011 C 
ATOM     19  C   UNL     1      -2.452  -2.158  24.929  0.00  0.00    +0.043 C 
ATOM     20  C   UNL     1      -1.531  -1.907  24.673  0.00  0.00    +0.096 C 
ATOM     21  N   UNL     1      -1.651  -1.099  24.496  0.00  0.00    -0.276 N 
ATOM     22  C   UNL     1      -2.040  -1.653  24.717  0.00  0.00    +0.099 C 
ATOM     23  C   UNL     1      -1.472  -0.327  24.266  0.00  0.00    +0.249 C 
ATOM     24  O   UNL     1      -2.066   0.246  24.247  0.00  0.00    -0.270 OA
ATOM     35  C   UNL     1      -2.775  -1.268  24.775  0.00  0.00    +0.110 C 
ATOM     36  N   UNL     1      -2.551  -0.668  24.578  0.00  0.00    -0.298 N 
ATOM     37  C   UNL     1      -2.547   0.132  24.377  0.00  0.00    +0.277 A 
ATOM     38  O   UNL     1      -2.004   0.697  24.122  0.00  0.00    -0.266 OA
ENDROOT
BRANCH  23  25
ATOM     25  C   UNL     1      -0.700  -0.128  24.054  0.00  0.00    +0.054 A 
ATOM     26  C   UNL     1      -0.390  -0.387  23.334  0.00  0.00    +0.005 A 
ATOM     27  C   UNL     1       0.383  -0.188  23.122  0.00  0.00    +0.000 A 
ATOM     28  C   UNL     1       0.844   0.269  23.630  0.00  0.00    +0.000 A 
ATOM     29  C   UNL     1       1.617   0.468  23.418  0.00  0.00    +0.000 A 
ATOM     30  C   UNL     1       1.926   0.209  22.698  0.00  0.00    +0.000 A 
ATOM     31  C   UNL     1       1.464  -0.247  22.191  0.00  0.00    +0.000 A 
ATOM     32  C   UNL     1       0.691  -0.446  22.403  0.00  0.00    +0.000 A 
ATOM     33  C   UNL     1       0.535   0.528  24.350  0.00  0.00    +0.000 A 
ATOM     34  C   UNL     1      -0.237   0.329  24.562  0.00  0.00    +0.005 A 
ENDBRANCH  23  25
BRANCH  13  12
ATOM     12  N   UNL     1      -3.243   1.369  24.213  0.00  0.00    -0.092 NA
BRANCH  12   9
ATOM      9  S   UNL     1      -3.799   1.880  24.546  0.00  0.00    +0.093 S 
ATOM     10  O   UNL     1      -4.299   1.754  23.902  0.00  0.00    -0.148 OA
ATOM     11  O   UNL     1      -3.299   2.005  25.189  0.00  0.00    -0.148 OA
BRANCH   9   6
ATOM      3  C   UNL     1      -5.467   3.413  25.541  0.00  0.00    +0.139 A 
ATOM      4  C   UNL     1      -4.663   3.590  25.591  0.00  0.00    +0.038 A 
ATOM      5  C   UNL     1      -4.107   3.079  25.259  0.00  0.00    +0.023 A 
ATOM      6  C   UNL     1      -4.356   2.391  24.877  0.00  0.00    +0.127 A 
ATOM      7  C   UNL     1      -5.160   2.214  24.828  0.00  0.00    +0.023 A 
ATOM      8  C   UNL     1      -5.715   2.725  25.160  0.00  0.00    +0.038 A 
BRANCH   3   2
ATOM      1  C   UNL     1      -6.092   4.697  25.592  0.00  0.00    +0.252 C 
ATOM      2  O   UNL     1      -6.023   3.924  25.873  0.00  0.00    -0.471 OA
ENDBRANCH   3   2
ENDBRANCH   9   6
ENDBRANCH  12   9
ENDBRANCH  13  12
TORSDOF 5
ENDMDL
MODEL 7
REMARK VINA RESULT:     -11.7      3.087      4.007
REMARK  Name = 
REMARK  5 active torsions:
REMARK  status: ('A' for Active; 'I' for Inactive)
REMARK    1  A    between atoms: O_2  and  C_3
REMARK    2  A    between atoms: C_6  and  S_9
REMARK    3  A    between atoms: S_9  and  N_12
REMARK    4  A    between atoms: N_12  and  C_13
REMARK    5  A    between atoms: C_23  and  C_25
REMARK                            x       y       z     vdW  Elec       q    Type
REMARK                         _______ _______ _______ _____ _____    ______ ____
ROOT
ATOM     13  C   UNL     1      -0.190   0.816  23.894  0.00  0.00    +0.147 A 
ATOM     14  C   UNL     1       0.246   1.490  24.087  0.00  0.00    +0.024 A 
ATOM     15  C   UNL     1      -0.109   2.103  24.510  0.00  0.00    +0.014 A 
ATOM     16  C   UNL     1      -0.899   2.043  24.739  0.00  0.00    +0.041 A 
ATOM     17  C   UNL     1      -1.550   2.512  25.187  0.00  0.00    +0.058 C 
ATOM     18  C   UNL     1      -1.658   3.117  25.525  0.00  0.00    +0.011 C 
ATOM     19  C   UNL     1      -2.085   2.451  25.332  0.00  0.00    +0.043 C 
ATOM     20  C   UNL     1      -2.756   1.739  25.197  0.00  0.00    +0.096 C 
ATOM     21  N   UNL     1      -2.293   1.189  24.771  0.00  0.00    -0.276 N 
ATOM     22  C   UNL     1      -2.210   1.832  25.065  0.00  0.00    +0.099 C 
ATOM     23  C   UNL     1      -2.100   0.498  24.363  0.00  0.00    +0.249 C 
ATOM     24  O   UNL     1      -1.338   0.396  24.062  0.00  0.00    -0.270 OA
ATOM     35  C   UNL     1      -1.411   1.953  24.863  0.00  0.00    +0.110 C 
ATOM     36  N   UNL     1      -1.334   1.369  24.546  0.00  0.00    -0.298 N 
ATOM     37  C   UNL     1      -0.980   0.756  24.123  0.00  0.00    +0.277 A 
ATOM     38  O   UNL     1      -1.190   0.017  23.823  0.00  0.00    -0.266 OA
ENDROOT
BRANCH  23  25
ATOM     25  C   UNL     1      -2.668  -0.090  24.256  0.00  0.00    +0.054 A 
ATOM     26  C   UNL     1      -2.594  -0.812  24.650  0.00  0.00    +0.005 A 
ATOM     27  C   UNL     1      -3.163  -1.400  24.543  0.00  0.00    +0.000 A 
ATOM     28  C   UNL     1      -3.805  -1.267  24.043  0.00  0.00    +0.000 A 
ATOM     29  C   UNL     1      -4.374  -1.856  23.936  0.00  0.00    +0.000 A 
ATOM     30  C   UNL     1      -4.299  -2.577  24.330  0.00  0.00    +0.000 A 
ATOM     31  C   UNL     1      -3.657  -2.710  24.830  0.00  0.00    +0.000 A 
ATOM     32  C   UNL     1      -3.088  -2.121  24.937  0.00  0.00    +0.000 A 
ATOM     33  C   UNL     1      -3.879  -0.546  23.649  0.00  0.00    +0.000 A 
ATOM     34  C   UNL     1      -3.311   0.043  23.756  0.00  0.00    +0.005 A 
ENDBRANCH  23  25
BRANCH  13  12
ATOM     12  N   UNL     1       0.165   0.203  23.471  0.00  0.00    -0.092 NA
BRANCH  12   9
ATOM      9  S   UNL     1       0.951   0.270  23.230  0.00  0.00    +0.093 S 
ATOM     10  O   UNL     1       1.196  -0.101  23.925  0.00  0.00    -0.148 OA
ATOM     11  O   UNL     1       0.707   0.640  22.535  0.00  0.00    -0.148 OA
BRANCH   9   6
ATOM      3  C   UNL     1       3.310   0.467  22.507  0.00  0.00    +0.139 A 
ATOM      4  C   UNL     1       2.790  -0.018  22.089  0.00  0.00    +0.038 A 
ATOM      5  C   UNL     1       2.004  -0.083  22.330  0.00  0.00    +0.023 A 
ATOM      6  C   UNL     1       1.738   0.336  22.989  0.00  0.00    +0.127 A 
ATOM      7  C   UNL     1       2.259   0.820  23.408  0.00  0.00    +0.023 A 
ATOM      8  C   UNL     1       3.045   0.886  23.167  0.00  0.00    +0.038 A 
BRANCH   3   2
ATOM      1  C   UNL     1       4.702   0.523  22.827  0.00  0.00    +0.252 C 
ATOM      2  O   UNL     1       4.096   0.532  22.266  0.00  0.00    -0.471 OA
ENDBRANCH   3   2
ENDBRANCH   9   6
ENDBRANCH  12   9
ENDBRANCH  13  12
TORSDOF 5
ENDMDL
