MODEL 1
REMARK VINA RESULT:     -14.4      0.000      0.000
REMARK  Name = 
REMARK  5 active torsions:
REMARK  status: ('A' for Active; 'I' for Inactive)
REMARK    1  A    between atoms: O_2  and  C_3
REMARK    2  A    between atoms: C_3  and  C_5
REMARK    3  A    between atoms: C_18  and  N_29
REMARK    4  A    between atoms: C_20  and  C_22
REMARK    5  A    between atoms: N_29  and  C_30
REMARK                            x       y       z     vdW  Elec       q    Type
REMARK                         _______ _______ _______ _____ _____    ______ ____
ROOT
ATOM      5  C   UNL     1      -2.472   0.608  24.930  0.00  0.00    +0.162 C 
ATOM      6  C   UNL     1      -1.819   1.109  24.974  0.00  0.00    +0.055 C 
ATOM      7  C   UNL     1      -1.928   1.927  24.979  0.00  0.00    -0.004 A 
ATOM      8  C   UNL     1      -2.689   2.243  24.941  0.00  0.00    +0.070 A 
ATOM      9  N   UNL     1      -2.625   3.065  24.956  0.00  0.00    -0.249 NA
ATOM     10  C   UNL     1      -1.824   3.259  25.004  0.00  0.00    +0.081 A 
ATOM     11  C   UNL     1      -1.393   2.555  25.018  0.00  0.00    +0.015 A 
ATOM     12  C   UNL     1      -0.570   2.576  25.065  0.00  0.00    +0.001 A 
ATOM     13  C   UNL     1      -0.177   3.302  25.097  0.00  0.00    +0.000 A 
ATOM     14  C   UNL     1      -0.609   4.006  25.083  0.00  0.00    +0.002 A 
ATOM     15  C   UNL     1      -1.432   3.984  25.036  0.00  0.00    +0.019 A 
ATOM     16  C   UNL     1      -3.342   1.741  24.897  0.00  0.00    +0.100 C 
ATOM     17  C   UNL     1      -4.103   2.056  24.858  0.00  0.00    +0.040 C 
ATOM     18  C   UNL     1      -4.756   1.554  24.814  0.00  0.00    +0.076 C 
ATOM     19  C   UNL     1      -4.647   0.736  24.809  0.00  0.00    +0.038 C 
ATOM     20  C   UNL     1      -3.886   0.421  24.848  0.00  0.00    +0.082 C 
ATOM     21  N   UNL     1      -3.234   0.923  24.891  0.00  0.00    -0.258 NA
ENDROOT
BRANCH  20  22
ATOM     22  C   UNL     1      -3.778  -0.397  24.842  0.00  0.00    -0.008 A 
ATOM     23  C   UNL     1      -3.723  -0.811  25.553  0.00  0.00    -0.001 A 
ATOM     24  C   UNL     1      -3.615  -1.629  25.547  0.00  0.00    +0.029 A 
ATOM     25  C   UNL     1      -3.563  -2.033  24.829  0.00  0.00    +0.140 A 
ATOM     26  F   UNL     1      -3.456  -2.852  24.823  0.00  0.00    -0.204 F 
ATOM     27  C   UNL     1      -3.619  -1.619  24.118  0.00  0.00    +0.029 A 
ATOM     28  C   UNL     1      -3.727  -0.801  24.124  0.00  0.00    -0.001 A 
ENDBRANCH  20  22
BRANCH   5   3
ATOM      3  C   UNL     1      -2.363  -0.210  24.925  0.00  0.00    +0.332 C 
ATOM      4  O   UNL     1      -2.511  -0.989  24.694  0.00  0.00    -0.249 OA
BRANCH   3   2
ATOM      1  C   UNL     1      -1.062  -0.780  25.074  0.00  0.00    +0.256 C 
ATOM      2  O   UNL     1      -1.785  -0.554  25.402  0.00  0.00    -0.443 OA
ENDBRANCH   3   2
ENDBRANCH   5   3
BRANCH  18  29
ATOM     29  N   UNL     1      -5.518   1.869  24.776  0.00  0.00    -0.221 NA
BRANCH  29  30
ATOM     30  C   UNL     1      -5.866   2.190  25.451  0.00  0.00    +0.073 C 
ATOM     31  C   UNL     1      -5.810   3.001  25.599  0.00  0.00    +0.019 C 
ATOM     32  C   UNL     1      -6.270   1.702  25.980  0.00  0.00    +0.019 C 
ENDBRANCH  29  30
ENDBRANCH  18  29
TORSDOF 5
ENDMDL
MODEL 2
REMARK VINA RESULT:     -14.2      1.641      3.792
REMARK  Name = 
REMARK  5 active torsions:
REMARK  status: ('A' for Active; 'I' for Inactive)
REMARK    1  A    between atoms: O_2  and  C_3
REMARK    2  A    between atoms: C_3  and  C_5
REMARK    3  A    between atoms: C_18  and  N_29
REMARK    4  A    between atoms: C_20  and  C_22
REMARK    5  A    between atoms: N_29  and  C_30
REMARK                            x       y       z     vdW  Elec       q    Type
REMARK                         _______ _______ _______ _____ _____    ______ ____
ROOT
ATOM      5  C   UNL     1      -2.249   0.956  24.821  0.00  0.00    +0.162 C 
ATOM      6  C   UNL     1      -2.199   0.135  24.755  0.00  0.00    +0.055 C 
ATOM      7  C   UNL     1      -2.883  -0.312  24.644  0.00  0.00    -0.004 A 
ATOM      8  C   UNL     1      -3.617   0.061  24.598  0.00  0.00    +0.070 A 
ATOM      9  N   UNL     1      -4.192  -0.520  24.487  0.00  0.00    -0.249 NA
ATOM     10  C   UNL     1      -3.814  -1.253  24.464  0.00  0.00    +0.081 A 
ATOM     11  C   UNL     1      -3.004  -1.124  24.561  0.00  0.00    +0.015 A 
ATOM     12  C   UNL     1      -2.482  -1.763  24.561  0.00  0.00    +0.001 A 
ATOM     13  C   UNL     1      -2.770  -2.531  24.464  0.00  0.00    +0.000 A 
ATOM     14  C   UNL     1      -3.580  -2.659  24.367  0.00  0.00    +0.002 A 
ATOM     15  C   UNL     1      -4.101  -2.020  24.367  0.00  0.00    +0.019 A 
ATOM     16  C   UNL     1      -3.667   0.882  24.663  0.00  0.00    +0.100 C 
ATOM     17  C   UNL     1      -4.401   1.256  24.618  0.00  0.00    +0.040 C 
ATOM     18  C   UNL     1      -4.451   2.076  24.683  0.00  0.00    +0.076 C 
ATOM     19  C   UNL     1      -3.767   2.524  24.794  0.00  0.00    +0.038 C 
ATOM     20  C   UNL     1      -3.033   2.150  24.840  0.00  0.00    +0.082 C 
ATOM     21  N   UNL     1      -2.983   1.329  24.775  0.00  0.00    -0.258 NA
ENDROOT
BRANCH  20  22
ATOM     22  C   UNL     1      -2.349   2.598  24.952  0.00  0.00    -0.008 A 
ATOM     23  C   UNL     1      -2.077   2.753  25.714  0.00  0.00    -0.001 A 
ATOM     24  C   UNL     1      -1.393   3.201  25.825  0.00  0.00    +0.029 A 
ATOM     25  C   UNL     1      -0.981   3.494  25.172  0.00  0.00    +0.140 A 
ATOM     26  F   UNL     1      -0.297   3.942  25.283  0.00  0.00    -0.204 F 
ATOM     27  C   UNL     1      -1.253   3.339  24.409  0.00  0.00    +0.029 A 
ATOM     28  C   UNL     1      -1.937   2.891  24.299  0.00  0.00    -0.001 A 
ENDBRANCH  20  22
BRANCH   5   3
ATOM      3  C   UNL     1      -1.564   1.403  24.932  0.00  0.00    +0.332 C 
ATOM      4  O   UNL     1      -1.100   2.000  25.261  0.00  0.00    -0.249 OA
BRANCH   3   2
ATOM      1  C   UNL     1      -0.277   0.788  24.860  0.00  0.00    +0.256 C 
ATOM      2  O   UNL     1      -0.881   1.225  24.506  0.00  0.00    -0.443 OA
ENDBRANCH   3   2
ENDBRANCH   5   3
BRANCH  18  29
ATOM     29  N   UNL     1      -5.185   2.450  24.637  0.00  0.00    -0.221 NA
BRANCH  29  30
ATOM     30  C   UNL     1      -5.577   2.676  25.327  0.00  0.00    +0.073 C 
ATOM     31  C   UNL     1      -5.529   3.456  25.593  0.00  0.00    +0.019 C 
ATOM     32  C   UNL     1      -6.017   2.121  25.752  0.00  0.00    +0.019 C 
ENDBRANCH  29  30
ENDBRANCH  18  29
TORSDOF 5
ENDMDL
MODEL 3
REMARK VINA RESULT:     -13.8      1.904      4.515
REMARK  Name = 
REMARK  5 active torsions:
REMARK  status: ('A' for Active; 'I' for Inactive)
REMARK    1  A    between atoms: O_2  and  C_3
REMARK    2  A    between atoms: C_3  and  C_5
REMARK    3  A    between atoms: C_18  and  N_29
REMARK    4  A    between atoms: C_20  and  C_22
REMARK    5  A    between atoms: N_29  and  C_30
REMARK                            x       y       z     vdW  Elec       q    Type
REMARK                         _______ _______ _______ _____ _____    ______ ____
ROOT
ATOM      5  C   UNL     1      -3.903   1.171  24.817  0.00  0.00    +0.162 C 
ATOM      6  C   UNL     1      -4.067   0.366  24.746  0.00  0.00    +0.055 C 
ATOM      7  C   UNL     1      -3.449  -0.175  24.667  0.00  0.00    -0.004 A 
ATOM      8  C   UNL     1      -2.667   0.089  24.657  0.00  0.00    +0.070 A 
ATOM      9  N   UNL     1      -2.177  -0.569  24.572  0.00  0.00    -0.249 NA
ATOM     10  C   UNL     1      -2.655  -1.240  24.528  0.00  0.00    +0.081 A 
ATOM     11  C   UNL     1      -3.442  -0.996  24.587  0.00  0.00    +0.015 A 
ATOM     12  C   UNL     1      -4.049  -1.554  24.560  0.00  0.00    +0.001 A 
ATOM     13  C   UNL     1      -3.871  -2.355  24.475  0.00  0.00    +0.000 A 
ATOM     14  C   UNL     1      -3.084  -2.599  24.417  0.00  0.00    +0.002 A 
ATOM     15  C   UNL     1      -2.476  -2.041  24.443  0.00  0.00    +0.019 A 
ATOM     16  C   UNL     1      -2.503   0.894  24.728  0.00  0.00    +0.100 C 
ATOM     17  C   UNL     1      -1.722   1.159  24.718  0.00  0.00    +0.040 C 
ATOM     18  C   UNL     1      -1.558   1.964  24.789  0.00  0.00    +0.076 C 
ATOM     19  C   UNL     1      -2.176   2.505  24.868  0.00  0.00    +0.038 C 
ATOM     20  C   UNL     1      -2.957   2.240  24.878  0.00  0.00    +0.082 C 
ATOM     21  N   UNL     1      -3.121   1.436  24.807  0.00  0.00    -0.258 NA
ENDROOT
BRANCH  20  22
ATOM     22  C   UNL     1      -3.574   2.783  24.957  0.00  0.00    -0.008 A 
ATOM     23  C   UNL     1      -3.912   3.126  24.288  0.00  0.00    -0.001 A 
ATOM     24  C   UNL     1      -4.529   3.667  24.369  0.00  0.00    +0.029 A 
ATOM     25  C   UNL     1      -4.808   3.866  25.119  0.00  0.00    +0.140 A 
ATOM     26  F   UNL     1      -5.425   4.408  25.199  0.00  0.00    -0.204 F 
ATOM     27  C   UNL     1      -4.471   3.523  25.789  0.00  0.00    +0.029 A 
ATOM     28  C   UNL     1      -3.854   2.981  25.708  0.00  0.00    -0.001 A 
ENDBRANCH  20  22
BRANCH   5   3
ATOM      3  C   UNL     1      -4.520   1.712  24.896  0.00  0.00    +0.332 C 
ATOM      4  O   UNL     1      -4.925   2.419  24.762  0.00  0.00    -0.249 OA
BRANCH   3   2
ATOM      1  C   UNL     1      -5.886   1.318  25.032  0.00  0.00    +0.256 C 
ATOM      2  O   UNL     1      -5.167   1.533  25.376  0.00  0.00    -0.443 OA
ENDBRANCH   3   2
ENDBRANCH   5   3
BRANCH  18  29
ATOM     29  N   UNL     1      -0.777   2.228  24.779  0.00  0.00    -0.221 NA
BRANCH  29  30
ATOM     30  C   UNL     1      -0.446   2.563  25.457  0.00  0.00    +0.073 C 
ATOM     31  C   UNL     1      -0.374   3.383  25.519  0.00  0.00    +0.019 C 
ATOM     32  C   UNL     1      -0.189   2.078  26.074  0.00  0.00    +0.019 C 
ENDBRANCH  29  30
ENDBRANCH  18  29
TORSDOF 5
ENDMDL
MODEL 4
REMARK VINA RESULT:     -12.9      1.395      3.202
REMARK  Name = 
REMARK  5 active torsions:
REMARK  status: ('A' for Active; 'I' for Inactive)
REMARK    1  A    between atoms: O_2  and  C_3
REMARK    2  A    between atoms: C_3  and  C_5
REMARK    3  A    between atoms: C_18  and  N_29
REMARK    4  A    between atoms: C_20  and  C_22
REMARK    5  A    between atoms: N_29  and  C_30
REMARK                            x       y       z     vdW  Elec       q    Type
REMARK                         _______ _______ _______ _____ _____    ______ ____
ROOT
ATOM      5  C   UNL     1      -2.925   1.602  24.738  0.00  0.00    +0.162 C 
ATOM      6  C   UNL     1      -2.939   2.419  24.849  0.00  0.00    +0.055 C 
ATOM      7  C   UNL     1      -2.231   2.839  24.912  0.00  0.00    -0.004 A 
ATOM      8  C   UNL     1      -1.510   2.442  24.865  0.00  0.00    +0.070 A 
ATOM      9  N   UNL     1      -0.907   2.999  24.945  0.00  0.00    -0.249 NA
ATOM     10  C   UNL     1      -1.254   3.740  25.043  0.00  0.00    +0.081 A 
ATOM     11  C   UNL     1      -2.074   3.641  25.023  0.00  0.00    +0.015 A 
ATOM     12  C   UNL     1      -2.570   4.295  25.108  0.00  0.00    +0.001 A 
ATOM     13  C   UNL     1      -2.248   5.048  25.213  0.00  0.00    +0.000 A 
ATOM     14  C   UNL     1      -1.428   5.146  25.233  0.00  0.00    +0.002 A 
ATOM     15  C   UNL     1      -0.932   4.492  25.148  0.00  0.00    +0.019 A 
ATOM     16  C   UNL     1      -1.496   1.624  24.753  0.00  0.00    +0.100 C 
ATOM     17  C   UNL     1      -0.775   1.227  24.705  0.00  0.00    +0.040 C 
ATOM     18  C   UNL     1      -0.761   0.410  24.594  0.00  0.00    +0.076 C 
ATOM     19  C   UNL     1      -1.468  -0.010  24.531  0.00  0.00    +0.038 C 
ATOM     20  C   UNL     1      -2.189   0.388  24.579  0.00  0.00    +0.082 C 
ATOM     21  N   UNL     1      -2.203   1.205  24.690  0.00  0.00    -0.258 NA
ENDROOT
BRANCH  20  22
ATOM     22  C   UNL     1      -2.896  -0.033  24.516  0.00  0.00    -0.008 A 
ATOM     23  C   UNL     1      -3.259  -0.122  23.781  0.00  0.00    -0.001 A 
ATOM     24  C   UNL     1      -3.966  -0.543  23.719  0.00  0.00    +0.029 A 
ATOM     25  C   UNL     1      -4.310  -0.875  24.392  0.00  0.00    +0.140 A 
ATOM     26  F   UNL     1      -5.017  -1.296  24.329  0.00  0.00    -0.204 F 
ATOM     27  C   UNL     1      -3.947  -0.786  25.127  0.00  0.00    +0.029 A 
ATOM     28  C   UNL     1      -3.240  -0.365  25.189  0.00  0.00    -0.001 A 
ENDBRANCH  20  22
BRANCH   5   3
ATOM      3  C   UNL     1      -3.632   1.182  24.675  0.00  0.00    +0.332 C 
ATOM      4  O   UNL     1      -4.142   0.606  24.378  0.00  0.00    -0.249 OA
BRANCH   3   2
ATOM      1  C   UNL     1      -4.892   1.834  24.842  0.00  0.00    +0.256 C 
ATOM      2  O   UNL     1      -4.275   1.382  25.152  0.00  0.00    -0.443 OA
ENDBRANCH   3   2
ENDBRANCH   5   3
BRANCH  18  29
ATOM     29  N   UNL     1      -0.039   0.012  24.546  0.00  0.00    -0.221 NA
BRANCH  29  30
ATOM     30  C   UNL     1       0.224  -0.278  23.820  0.00  0.00    +0.073 C 
ATOM     31  C   UNL     1       0.130  -1.077  23.637  0.00  0.00    +0.019 C 
ATOM     32  C   UNL     1       0.582   0.231  23.278  0.00  0.00    +0.019 C 
ENDBRANCH  29  30
ENDBRANCH  18  29
TORSDOF 5
ENDMDL
MODEL 5
REMARK VINA RESULT:     -12.8      0.947      3.367
REMARK  Name = 
REMARK  5 active torsions:
REMARK  status: ('A' for Active; 'I' for Inactive)
REMARK    1  A    between atoms: O_2  and  C_3
REMARK    2  A    between atoms: C_3  and  C_5
REMARK    3  A    between atoms: C_18  and  N_29
REMARK    4  A    between atoms: C_20  and  C_22
REMARK    5  A    between atoms: N_29  and  C_30
REMARK                            x       y       z     vdW  Elec       q    Type
REMARK                         _______ _______ _______ _____ _____    ______ ____
ROOT
ATOM      5  C   UNL     1      -2.917   0.151  25.040  0.00  0.00    +0.162 C 
ATOM      6  C   UNL     1      -3.717   0.348  25.068  0.00  0.00    +0.055 C 
ATOM      7  C   UNL     1      -3.949   1.137  25.013  0.00  0.00    -0.004 A 
ATOM      8  C   UNL     1      -3.382   1.730  24.929  0.00  0.00    +0.070 A 
ATOM      9  N   UNL     1      -3.774   2.454  24.888  0.00  0.00    -0.249 NA
ATOM     10  C   UNL     1      -4.584   2.311  24.947  0.00  0.00    +0.081 A 
ATOM     11  C   UNL     1      -4.692   1.496  25.024  0.00  0.00    +0.015 A 
ATOM     12  C   UNL     1      -5.454   1.186  25.094  0.00  0.00    +0.001 A 
ATOM     13  C   UNL     1      -6.107   1.691  25.087  0.00  0.00    +0.000 A 
ATOM     14  C   UNL     1      -5.998   2.506  25.010  0.00  0.00    +0.002 A 
ATOM     15  C   UNL     1      -5.236   2.815  24.940  0.00  0.00    +0.019 A 
ATOM     16  C   UNL     1      -2.581   1.533  24.901  0.00  0.00    +0.100 C 
ATOM     17  C   UNL     1      -2.013   2.125  24.817  0.00  0.00    +0.040 C 
ATOM     18  C   UNL     1      -1.213   1.928  24.789  0.00  0.00    +0.076 C 
ATOM     19  C   UNL     1      -0.980   1.138  24.844  0.00  0.00    +0.038 C 
ATOM     20  C   UNL     1      -1.548   0.546  24.928  0.00  0.00    +0.082 C 
ATOM     21  N   UNL     1      -2.348   0.743  24.956  0.00  0.00    -0.258 NA
ENDROOT
BRANCH  20  22
ATOM     22  C   UNL     1      -1.315  -0.244  24.983  0.00  0.00    -0.008 A 
ATOM     23  C   UNL     1      -1.169  -0.580  25.721  0.00  0.00    -0.001 A 
ATOM     24  C   UNL     1      -0.935  -1.370  25.775  0.00  0.00    +0.029 A 
ATOM     25  C   UNL     1      -0.848  -1.822  25.091  0.00  0.00    +0.140 A 
ATOM     26  F   UNL     1      -0.615  -2.612  25.146  0.00  0.00    -0.204 F 
ATOM     27  C   UNL     1      -0.994  -1.486  24.352  0.00  0.00    +0.029 A 
ATOM     28  C   UNL     1      -1.228  -0.696  24.298  0.00  0.00    -0.001 A 
ENDBRANCH  20  22
BRANCH   5   3
ATOM      3  C   UNL     1      -2.684  -0.639  25.095  0.00  0.00    +0.332 C 
ATOM      4  O   UNL     1      -2.232  -1.306  24.916  0.00  0.00    -0.249 OA
BRANCH   3   2
ATOM      1  C   UNL     1      -3.629  -1.688  25.314  0.00  0.00    +0.256 C 
ATOM      2  O   UNL     1      -3.077  -1.150  25.610  0.00  0.00    -0.443 OA
ENDBRANCH   3   2
ENDBRANCH   5   3
BRANCH  18  29
ATOM     29  N   UNL     1      -0.644   2.520  24.705  0.00  0.00    -0.221 NA
BRANCH  29  30
ATOM     30  C   UNL     1      -0.465   3.013  25.342  0.00  0.00    +0.073 C 
ATOM     31  C   UNL     1       0.002   2.733  25.962  0.00  0.00    +0.019 C 
ATOM     32  C   UNL     1      -0.754   3.786  25.360  0.00  0.00    +0.019 C 
ENDBRANCH  29  30
ENDBRANCH  18  29
TORSDOF 5
ENDMDL
MODEL 6
REMARK VINA RESULT:     -12.7      1.565      3.620
REMARK  Name = 
REMARK  5 active torsions:
REMARK  status: ('A' for Active; 'I' for Inactive)
REMARK    1  A    between atoms: O_2  and  C_3
REMARK    2  A    between atoms: C_3  and  C_5
REMARK    3  A    between atoms: C_18  and  N_29
REMARK    4  A    between atoms: C_20  and  C_22
REMARK    5  A    between atoms: N_29  and  C_30
REMARK                            x       y       z     vdW  Elec       q    Type
REMARK                         _______ _______ _______ _____ _____    ______ ____
ROOT
ATOM      5  C   UNL     1      -2.672   1.601  24.735  0.00  0.00    +0.162 C 
ATOM      6  C   UNL     1      -3.206   2.217  24.859  0.00  0.00    +0.055 C 
ATOM      7  C   UNL     1      -3.986   2.050  25.071  0.00  0.00    -0.004 A 
ATOM      8  C   UNL     1      -4.232   1.267  25.157  0.00  0.00    +0.070 A 
ATOM      9  N   UNL     1      -5.029   1.272  25.368  0.00  0.00    -0.249 NA
ATOM     10  C   UNL     1      -5.277   2.058  25.412  0.00  0.00    +0.081 A 
ATOM     11  C   UNL     1      -4.632   2.539  25.228  0.00  0.00    +0.015 A 
ATOM     12  C   UNL     1      -4.716   3.359  25.228  0.00  0.00    +0.001 A 
ATOM     13  C   UNL     1      -5.446   3.699  25.412  0.00  0.00    +0.000 A 
ATOM     14  C   UNL     1      -6.091   3.218  25.596  0.00  0.00    +0.002 A 
ATOM     15  C   UNL     1      -6.006   2.397  25.596  0.00  0.00    +0.019 A 
ATOM     16  C   UNL     1      -3.697   0.651  25.033  0.00  0.00    +0.100 C 
ATOM     17  C   UNL     1      -3.942  -0.132  25.119  0.00  0.00    +0.040 C 
ATOM     18  C   UNL     1      -3.408  -0.747  24.995  0.00  0.00    +0.076 C 
ATOM     19  C   UNL     1      -2.628  -0.580  24.784  0.00  0.00    +0.038 C 
ATOM     20  C   UNL     1      -2.383   0.203  24.697  0.00  0.00    +0.082 C 
ATOM     21  N   UNL     1      -2.917   0.818  24.822  0.00  0.00    -0.258 NA
ENDROOT
BRANCH  20  22
ATOM     22  C   UNL     1      -1.603   0.369  24.486  0.00  0.00    -0.008 A 
ATOM     23  C   UNL     1      -1.400   0.458  23.692  0.00  0.00    -0.001 A 
ATOM     24  C   UNL     1      -0.620   0.624  23.482  0.00  0.00    +0.029 A 
ATOM     25  C   UNL     1      -0.042   0.701  24.066  0.00  0.00    +0.140 A 
ATOM     26  F   UNL     1       0.738   0.867  23.855  0.00  0.00    -0.204 F 
ATOM     27  C   UNL     1      -0.245   0.612  24.860  0.00  0.00    +0.029 A 
ATOM     28  C   UNL     1      -1.025   0.446  25.071  0.00  0.00    -0.001 A 
ENDBRANCH  20  22
BRANCH   5   3
ATOM      3  C   UNL     1      -1.892   1.768  24.524  0.00  0.00    +0.332 C 
ATOM      4  O   UNL     1      -1.184   1.666  24.112  0.00  0.00    -0.249 OA
BRANCH   3   2
ATOM      1  C   UNL     1      -1.409   3.112  24.486  0.00  0.00    +0.256 C 
ATOM      2  O   UNL     1      -1.492   2.393  24.884  0.00  0.00    -0.443 OA
ENDBRANCH   3   2
ENDBRANCH   5   3
BRANCH  18  29
ATOM     29  N   UNL     1      -3.653  -1.531  25.081  0.00  0.00    -0.221 NA
BRANCH  29  30
ATOM     30  C   UNL     1      -3.707  -2.022  24.420  0.00  0.00    +0.073 C 
ATOM     31  C   UNL     1      -3.167  -2.638  24.319  0.00  0.00    +0.019 C 
ATOM     32  C   UNL     1      -4.300  -1.896  23.860  0.00  0.00    +0.019 C 
ENDBRANCH  29  30
ENDBRANCH  18  29
TORSDOF 5
ENDMDL
MODEL 7
REMARK VINA RESULT:     -12.6      1.836      3.298
REMARK  Name = 
REMARK  5 active torsions:
REMARK  status: ('A' for Active; 'I' for Inactive)
REMARK    1  A    between atoms: O_2  and  C_3
REMARK    2  A    between atoms: C_3  and  C_5
REMARK    3  A    between atoms: C_18  and  N_29
REMARK    4  A    between atoms: C_20  and  C_22
REMARK    5  A    between atoms: N_29  and  C_30
REMARK                            x       y       z     vdW  Elec       q    Type
REMARK                         _______ _______ _______ _____ _____    ______ ____
ROOT
ATOM      5  C   UNL     1      -3.768   2.868  25.046  0.00  0.00    +0.162 C 
ATOM      6  C   UNL     1      -3.290   3.539  25.073  0.00  0.00    +0.055 C 
ATOM      7  C   UNL     1      -2.473   3.467  24.983  0.00  0.00    -0.004 A 
ATOM      8  C   UNL     1      -2.134   2.723  24.867  0.00  0.00    +0.070 A 
ATOM      9  N   UNL     1      -1.319   2.823  24.797  0.00  0.00    -0.249 NA
ATOM     10  C   UNL     1      -1.151   3.628  24.869  0.00  0.00    +0.081 A 
ATOM     11  C   UNL     1      -1.866   4.026  24.985  0.00  0.00    +0.015 A 
ATOM     12  C   UNL     1      -1.871   4.845  25.076  0.00  0.00    +0.001 A 
ATOM     13  C   UNL     1      -1.162   5.268  25.052  0.00  0.00    +0.000 A 
ATOM     14  C   UNL     1      -0.448   4.869  24.937  0.00  0.00    +0.002 A 
ATOM     15  C   UNL     1      -0.443   4.049  24.846  0.00  0.00    +0.019 A 
ATOM     16  C   UNL     1      -2.613   2.052  24.841  0.00  0.00    +0.100 C 
ATOM     17  C   UNL     1      -2.275   1.308  24.725  0.00  0.00    +0.040 C 
ATOM     18  C   UNL     1      -2.754   0.637  24.698  0.00  0.00    +0.076 C 
ATOM     19  C   UNL     1      -3.571   0.710  24.788  0.00  0.00    +0.038 C 
ATOM     20  C   UNL     1      -3.908   1.453  24.903  0.00  0.00    +0.082 C 
ATOM     21  N   UNL     1      -3.430   2.124  24.930  0.00  0.00    -0.258 NA
ENDROOT
BRANCH  20  22
ATOM     22  C   UNL     1      -4.726   1.524  24.993  0.00  0.00    -0.008 A 
ATOM     23  C   UNL     1      -5.063   1.496  25.744  0.00  0.00    -0.001 A 
ATOM     24  C   UNL     1      -5.880   1.567  25.833  0.00  0.00    +0.029 A 
ATOM     25  C   UNL     1      -6.360   1.667  25.169  0.00  0.00    +0.140 A 
ATOM     26  F   UNL     1      -7.177   1.739  25.258  0.00  0.00    -0.204 F 
ATOM     27  C   UNL     1      -6.023   1.696  24.417  0.00  0.00    +0.029 A 
ATOM     28  C   UNL     1      -5.205   1.625  24.329  0.00  0.00    -0.001 A 
ENDBRANCH  20  22
BRANCH   5   3
ATOM      3  C   UNL     1      -4.585   2.940  25.135  0.00  0.00    +0.332 C 
ATOM      4  O   UNL     1      -5.378   2.771  24.982  0.00  0.00    -0.249 OA
BRANCH   3   2
ATOM      1  C   UNL     1      -5.195   4.200  25.421  0.00  0.00    +0.256 C 
ATOM      2  O   UNL     1      -4.895   3.476  25.680  0.00  0.00    -0.443 OA
ENDBRANCH   3   2
ENDBRANCH   5   3
BRANCH  18  29
ATOM     29  N   UNL     1      -2.415  -0.107  24.582  0.00  0.00    -0.221 NA
BRANCH  29  30
ATOM     30  C   UNL     1      -2.318  -0.619  25.221  0.00  0.00    +0.073 C 
ATOM     31  C   UNL     1      -1.659  -0.544  25.713  0.00  0.00    +0.019 C 
ATOM     32  C   UNL     1      -2.878  -1.207  25.368  0.00  0.00    +0.019 C 
ENDBRANCH  29  30
ENDBRANCH  18  29
TORSDOF 5
ENDMDL
MODEL 8
REMARK VINA RESULT:     -12.5      1.836      3.346
REMARK  Name = 
REMARK  5 active torsions:
REMARK  status: ('A' for Active; 'I' for Inactive)
REMARK    1  A    between atoms: O_2  and  C_3
REMARK    2  A    between atoms: C_3  and  C_5
REMARK    3  A    between atoms: C_18  and  N_29
REMARK    4  A    between atoms: C_20  and  C_22
REMARK    5  A    between atoms: N_29  and  C_30
REMARK                            x       y       z     vdW  Elec       q    Type
REMARK                         _______ _______ _______ _____ _____    ______ ____
ROOT
ATOM      5  C   UNL     1      -3.272   1.764  24.813  0.00  0.00    +0.162 C 
ATOM      6  C   UNL     1      -2.522   2.074  24.670  0.00  0.00    +0.055 C 
ATOM      7  C   UNL     1      -1.871   1.570  24.614  0.00  0.00    -0.004 A 
ATOM      8  C   UNL     1      -1.970   0.756  24.701  0.00  0.00    +0.070 A 
ATOM      9  N   UNL     1      -1.232   0.398  24.619  0.00  0.00    -0.249 NA
ATOM     10  C   UNL     1      -0.675   0.991  24.481  0.00  0.00    +0.081 A 
ATOM     11  C   UNL     1      -1.070   1.716  24.478  0.00  0.00    +0.015 A 
ATOM     12  C   UNL     1      -0.650   2.414  24.352  0.00  0.00    +0.001 A 
ATOM     13  C   UNL     1       0.166   2.388  24.228  0.00  0.00    +0.000 A 
ATOM     14  C   UNL     1       0.561   1.663  24.231  0.00  0.00    +0.002 A 
ATOM     15  C   UNL     1       0.140   0.964  24.357  0.00  0.00    +0.019 A 
ATOM     16  C   UNL     1      -2.722   0.445  24.844  0.00  0.00    +0.100 C 
ATOM     17  C   UNL     1      -2.823  -0.368  24.931  0.00  0.00    +0.040 C 
ATOM     18  C   UNL     1      -3.573  -0.678  25.074  0.00  0.00    +0.076 C 
ATOM     19  C   UNL     1      -4.224  -0.174  25.130  0.00  0.00    +0.038 C 
ATOM     20  C   UNL     1      -4.123   0.640  25.043  0.00  0.00    +0.082 C 
ATOM     21  N   UNL     1      -3.372   0.950  24.900  0.00  0.00    -0.258 NA
ENDROOT
BRANCH  20  22
ATOM     22  C   UNL     1      -4.774   1.143  25.100  0.00  0.00    -0.008 A 
ATOM     23  C   UNL     1      -5.203   1.342  24.424  0.00  0.00    -0.001 A 
ATOM     24  C   UNL     1      -5.854   1.845  24.481  0.00  0.00    +0.029 A 
ATOM     25  C   UNL     1      -6.076   2.150  25.215  0.00  0.00    +0.140 A 
ATOM     26  F   UNL     1      -6.728   2.654  25.271  0.00  0.00    -0.204 F 
ATOM     27  C   UNL     1      -5.648   1.952  25.891  0.00  0.00    +0.029 A 
ATOM     28  C   UNL     1      -4.997   1.448  25.833  0.00  0.00    -0.001 A 
ENDBRANCH  20  22
BRANCH   5   3
ATOM      3  C   UNL     1      -3.923   2.268  24.869  0.00  0.00    +0.332 C 
ATOM      4  O   UNL     1      -4.639   2.544  25.173  0.00  0.00    -0.249 OA
BRANCH   3   2
ATOM      1  C   UNL     1      -3.789   3.670  24.627  0.00  0.00    +0.256 C 
ATOM      2  O   UNL     1      -3.990   2.914  24.361  0.00  0.00    -0.443 OA
ENDBRANCH   3   2
ENDBRANCH   5   3
BRANCH  18  29
ATOM     29  N   UNL     1      -3.673  -1.493  25.161  0.00  0.00    -0.221 NA
BRANCH  29  30
ATOM     30  C   UNL     1      -3.618  -1.988  24.503  0.00  0.00    +0.073 C 
ATOM     31  C   UNL     1      -2.961  -2.478  24.410  0.00  0.00    +0.019 C 
ATOM     32  C   UNL     1      -4.220  -1.993  23.939  0.00  0.00    +0.019 C 
ENDBRANCH  29  30
ENDBRANCH  18  29
TORSDOF 5
ENDMDL
