MODEL 1
REMARK VINA RESULT:      -8.8      0.000      0.000
REMARK  Name = 
REMARK  12 active torsions:
REMARK  status: ('A' for Active; 'I' for Inactive)
REMARK    1  A    between atoms: O_2  and  C_3
REMARK    2  A    between atoms: C_6  and  C_7
REMARK    3  A    between atoms: C_7  and  N_8
REMARK    4  A    between atoms: C_9  and  C_11
REMARK    5  A    between atoms: C_11  and  C_12
REMARK    6  A    between atoms: C_14  and  C_15
REMARK    7  A    between atoms: C_18  and  C_19
REMARK    8  A    between atoms: C_19  and  N_20
REMARK    9  A    between atoms: C_21  and  C_23
REMARK   10  A    between atoms: C_23  and  O_24
REMARK   11  A    between atoms: O_24  and  C_25
REMARK   12  A    between atoms: C_25  and  C_26
REMARK                            x       y       z     vdW  Elec       q    Type
REMARK                         _______ _______ _______ _____ _____    ______ ____
ROOT
ATOM     12  C   UNL     1      -2.486   2.037  24.123  0.00  0.00    +0.027 C 
ATOM     13  C   UNL     1      -2.119   2.062  24.860  0.00  0.00    +0.005 C 
ATOM     14  C   UNL     1      -1.297   2.013  24.915  0.00  0.00    +0.006 C 
ATOM     18  C   UNL     1      -0.842   1.939  24.231  0.00  0.00    +0.043 C 
ATOM     29  C   UNL     1      -1.209   1.914  23.492  0.00  0.00    -0.033 C 
ATOM     30  C   UNL     1      -2.031   1.963  23.438  0.00  0.00    -0.048 C 
ATOM     31  C   UNL     1      -2.397   1.938  22.700  0.00  0.00    +0.026 C 
ENDROOT
BRANCH  14  15
ATOM     15  C   UNL     1      -0.929   2.038  25.653  0.00  0.00    +0.000 C 
ATOM     16  C   UNL     1      -0.766   1.338  26.057  0.00  0.00    +0.000 C 
ATOM     17  C   UNL     1      -0.725   2.764  25.988  0.00  0.00    +0.000 C 
ENDBRANCH  14  15
BRANCH  12  11
ATOM     11  C   UNL     1      -3.307   2.086  24.068  0.00  0.00    +0.091 C 
BRANCH  11   9
ATOM      8  N   UNL     1      -3.818   0.769  24.284  0.00  0.00    -0.201 NA
ATOM      9  C   UNL     1      -3.781   1.564  24.497  0.00  0.00    +0.242 C 
ATOM     10  O   UNL     1      -4.219   1.839  25.140  0.00  0.00    -0.273 OA
BRANCH   8   7
ATOM      7  C   UNL     1      -4.292   0.247  24.712  0.00  0.00    +0.141 C 
BRANCH   7   6
ATOM      3  C   UNL     1      -3.860  -2.188  24.614  0.00  0.00    +0.139 A 
ATOM      4  C   UNL     1      -4.217  -1.806  23.975  0.00  0.00    +0.037 A 
ATOM      5  C   UNL     1      -4.361  -0.994  24.009  0.00  0.00    +0.001 A 
ATOM      6  C   UNL     1      -4.148  -0.564  24.680  0.00  0.00    -0.000 A 
ATOM     32  C   UNL     1      -3.790  -0.947  25.317  0.00  0.00    +0.001 A 
ATOM     33  C   UNL     1      -3.646  -1.758  25.285  0.00  0.00    +0.037 A 
BRANCH   3   2
ATOM      1  C   UNL     1      -2.942  -3.279  24.524  0.00  0.00    +0.252 C 
ATOM      2  O   UNL     1      -3.716  -3.000  24.580  0.00  0.00    -0.471 OA
ENDBRANCH   3   2
ENDBRANCH   7   6
ENDBRANCH   8   7
ENDBRANCH  11   9
ENDBRANCH  12  11
BRANCH  18  19
ATOM     19  C   UNL     1      -0.020   1.890  24.285  0.00  0.00    +0.119 C 
BRANCH  19  20
ATOM     20  N   UNL     1       0.390   1.332  23.837  0.00  0.00    -0.203 NA
ATOM     21  C   UNL     1       1.195   1.432  23.691  0.00  0.00    +0.272 C 
ATOM     22  O   UNL     1       1.591   2.089  23.992  0.00  0.00    -0.271 OA
BRANCH  21  23
ATOM     23  C   UNL     1       1.606   0.873  23.242  0.00  0.00    +0.229 C 
BRANCH  23  24
ATOM     24  O   UNL     1       2.424   0.935  23.156  0.00  0.00    -0.333 OA
BRANCH  24  25
ATOM     25  C   UNL     1       2.835   0.371  22.714  0.00  0.00    +0.257 C 
BRANCH  25  26
ATOM     26  C   UNL     1       3.654   0.429  22.634  0.00  0.00    +0.394 C 
ATOM     27  O   UNL     1       4.149   0.001  23.137  0.00  0.00    -0.243 OA
ATOM     28  O   UNL     1       3.978   0.913  22.051  0.00  0.00    -0.243 OA
ENDBRANCH  25  26
ENDBRANCH  24  25
ENDBRANCH  23  24
ENDBRANCH  21  23
ENDBRANCH  19  20
ENDBRANCH  18  19
TORSDOF 12
ENDMDL
MODEL 2
REMARK VINA RESULT:      -8.8      2.018      3.048
REMARK  Name = 
REMARK  12 active torsions:
REMARK  status: ('A' for Active; 'I' for Inactive)
REMARK    1  A    between atoms: O_2  and  C_3
REMARK    2  A    between atoms: C_6  and  C_7
REMARK    3  A    between atoms: C_7  and  N_8
REMARK    4  A    between atoms: C_9  and  C_11
REMARK    5  A    between atoms: C_11  and  C_12
REMARK    6  A    between atoms: C_14  and  C_15
REMARK    7  A    between atoms: C_18  and  C_19
REMARK    8  A    between atoms: C_19  and  N_20
REMARK    9  A    between atoms: C_21  and  C_23
REMARK   10  A    between atoms: C_23  and  O_24
REMARK   11  A    between atoms: O_24  and  C_25
REMARK   12  A    between atoms: C_25  and  C_26
REMARK                            x       y       z     vdW  Elec       q    Type
REMARK                         _______ _______ _______ _____ _____    ______ ____
ROOT
ATOM     12  C   UNL     1      -1.038   2.542  25.310  0.00  0.00    +0.027 C 
ATOM     13  C   UNL     1      -1.431   1.818  25.340  0.00  0.00    +0.005 C 
ATOM     14  C   UNL     1      -1.122   1.163  24.945  0.00  0.00    +0.006 C 
ATOM     18  C   UNL     1      -0.418   1.233  24.520  0.00  0.00    +0.043 C 
ATOM     29  C   UNL     1      -0.024   1.958  24.490  0.00  0.00    -0.033 C 
ATOM     30  C   UNL     1      -0.334   2.612  24.886  0.00  0.00    -0.048 C 
ATOM     31  C   UNL     1       0.060   3.336  24.856  0.00  0.00    +0.026 C 
ENDROOT
BRANCH  14  15
ATOM     15  C   UNL     1      -1.515   0.439  24.974  0.00  0.00    +0.000 C 
ATOM     16  C   UNL     1      -2.054   0.237  24.383  0.00  0.00    +0.000 C 
ATOM     17  C   UNL     1      -1.368  -0.085  25.594  0.00  0.00    +0.000 C 
ENDBRANCH  14  15
BRANCH  12  11
ATOM     11  C   UNL     1      -1.348   3.196  25.705  0.00  0.00    +0.091 C 
BRANCH  11   9
ATOM      8  N   UNL     1      -2.767   3.340  25.611  0.00  0.00    -0.201 NA
ATOM      9  C   UNL     1      -2.009   3.587  25.402  0.00  0.00    +0.242 C 
ATOM     10  O   UNL     1      -1.910   4.226  24.890  0.00  0.00    -0.273 OA
BRANCH   8   7
ATOM      7  C   UNL     1      -3.427   3.731  25.308  0.00  0.00    +0.141 C 
BRANCH   7   6
ATOM      3  C   UNL     1      -5.625   2.595  25.259  0.00  0.00    +0.139 A 
ATOM      4  C   UNL     1      -5.146   2.593  24.588  0.00  0.00    +0.037 A 
ATOM      5  C   UNL     1      -4.412   2.972  24.604  0.00  0.00    +0.001 A 
ATOM      6  C   UNL     1      -4.160   3.352  25.292  0.00  0.00    -0.000 A 
ATOM     32  C   UNL     1      -4.640   3.353  25.962  0.00  0.00    +0.001 A 
ATOM     33  C   UNL     1      -5.373   2.975  25.946  0.00  0.00    +0.037 A 
BRANCH   3   2
ATOM      1  C   UNL     1      -6.418   1.448  24.948  0.00  0.00    +0.252 C 
ATOM      2  O   UNL     1      -6.359   2.216  25.242  0.00  0.00    -0.471 OA
ENDBRANCH   3   2
ENDBRANCH   7   6
ENDBRANCH   8   7
ENDBRANCH  11   9
ENDBRANCH  12  11
BRANCH  18  19
ATOM     19  C   UNL     1      -0.107   0.579  24.124  0.00  0.00    +0.119 C 
BRANCH  19  20
ATOM     20  N   UNL     1       0.499   0.679  23.575  0.00  0.00    -0.203 NA
ATOM     21  C   UNL     1       0.872   0.020  23.248  0.00  0.00    +0.272 C 
ATOM     22  O   UNL     1       0.639  -0.739  23.472  0.00  0.00    -0.271 OA
BRANCH  21  23
ATOM     23  C   UNL     1       1.480   0.120  22.698  0.00  0.00    +0.229 C 
BRANCH  23  24
ATOM     24  O   UNL     1       2.266   0.100  22.945  0.00  0.00    -0.333 OA
BRANCH  24  25
ATOM     25  C   UNL     1       2.871   0.273  22.409  0.00  0.00    +0.257 C 
BRANCH  25  26
ATOM     26  C   UNL     1       3.626   0.455  22.686  0.00  0.00    +0.394 C 
ATOM     27  O   UNL     1       3.876   1.241  22.716  0.00  0.00    -0.243 OA
ATOM     28  O   UNL     1       4.131  -0.148  22.932  0.00  0.00    -0.243 OA
ENDBRANCH  25  26
ENDBRANCH  24  25
ENDBRANCH  23  24
ENDBRANCH  21  23
ENDBRANCH  19  20
ENDBRANCH  18  19
TORSDOF 12
ENDMDL
MODEL 3
REMARK VINA RESULT:      -8.6      1.546      2.906
REMARK  Name = 
REMARK  12 active torsions:
REMARK  status: ('A' for Active; 'I' for Inactive)
REMARK    1  A    between atoms: O_2  and  C_3
REMARK    2  A    between atoms: C_6  and  C_7
REMARK    3  A    between atoms: C_7  and  N_8
REMARK    4  A    between atoms: C_9  and  C_11
REMARK    5  A    between atoms: C_11  and  C_12
REMARK    6  A    between atoms: C_14  and  C_15
REMARK    7  A    between atoms: C_18  and  C_19
REMARK    8  A    between atoms: C_19  and  N_20
REMARK    9  A    between atoms: C_21  and  C_23
REMARK   10  A    between atoms: C_23  and  O_24
REMARK   11  A    between atoms: O_24  and  C_25
REMARK   12  A    between atoms: C_25  and  C_26
REMARK                            x       y       z     vdW  Elec       q    Type
REMARK                         _______ _______ _______ _____ _____    ______ ____
ROOT
ATOM     12  C   UNL     1      -2.109  -0.117  24.817  0.00  0.00    +0.027 C 
ATOM     13  C   UNL     1      -2.033   0.704  24.813  0.00  0.00    +0.005 C 
ATOM     14  C   UNL     1      -1.324   1.053  24.575  0.00  0.00    +0.006 C 
ATOM     18  C   UNL     1      -0.691   0.579  24.341  0.00  0.00    +0.043 C 
ATOM     29  C   UNL     1      -0.766  -0.243  24.345  0.00  0.00    -0.033 C 
ATOM     30  C   UNL     1      -1.476  -0.590  24.583  0.00  0.00    -0.048 C 
ATOM     31  C   UNL     1      -1.551  -1.412  24.586  0.00  0.00    +0.026 C 
ENDROOT
BRANCH  14  15
ATOM     15  C   UNL     1      -1.248   1.875  24.571  0.00  0.00    +0.000 C 
ATOM     16  C   UNL     1      -1.411   2.301  23.885  0.00  0.00    +0.000 C 
ATOM     17  C   UNL     1      -1.009   2.269  25.255  0.00  0.00    +0.000 C 
ENDBRANCH  14  15
BRANCH  12  11
ATOM     11  C   UNL     1      -2.818  -0.464  25.055  0.00  0.00    +0.091 C 
BRANCH  11   9
ATOM      8  N   UNL     1      -4.008   0.323  25.135  0.00  0.00    -0.201 NA
ATOM      9  C   UNL     1      -3.532  -0.213  24.727  0.00  0.00    +0.242 C 
ATOM     10  O   UNL     1      -3.770  -0.499  23.991  0.00  0.00    -0.273 OA
BRANCH   8   7
ATOM      7  C   UNL     1      -4.722   0.574  24.807  0.00  0.00    +0.141 C 
BRANCH   7   6
ATOM      3  C   UNL     1      -5.714   2.732  25.500  0.00  0.00    +0.139 A 
ATOM      4  C   UNL     1      -5.275   2.685  24.804  0.00  0.00    +0.037 A 
ATOM      5  C   UNL     1      -4.944   1.965  24.572  0.00  0.00    +0.001 A 
ATOM      6  C   UNL     1      -5.052   1.293  25.038  0.00  0.00    -0.000 A 
ATOM     32  C   UNL     1      -5.492   1.341  25.735  0.00  0.00    +0.001 A 
ATOM     33  C   UNL     1      -5.822   2.060  25.966  0.00  0.00    +0.037 A 
BRANCH   3   2
ATOM      1  C   UNL     1      -5.630   4.154  25.608  0.00  0.00    +0.252 C 
ATOM      2  O   UNL     1      -6.045   3.452  25.732  0.00  0.00    -0.471 OA
ENDBRANCH   3   2
ENDBRANCH   7   6
ENDBRANCH   8   7
ENDBRANCH  11   9
ENDBRANCH  12  11
BRANCH  18  19
ATOM     19  C   UNL     1       0.019   0.927  24.102  0.00  0.00    +0.119 C 
BRANCH  19  20
ATOM     20  N   UNL     1       0.561   0.494  23.656  0.00  0.00    -0.203 NA
ATOM     21  C   UNL     1       1.311   0.802  23.508  0.00  0.00    +0.272 C 
ATOM     22  O   UNL     1       1.520   1.541  23.806  0.00  0.00    -0.271 OA
BRANCH  21  23
ATOM     23  C   UNL     1       1.854   0.368  23.062  0.00  0.00    +0.229 C 
BRANCH  23  24
ATOM     24  O   UNL     1       2.626   0.644  22.970  0.00  0.00    -0.333 OA
BRANCH  24  25
ATOM     25  C   UNL     1       3.204   0.152  22.645  0.00  0.00    +0.257 C 
BRANCH  25  26
ATOM     26  C   UNL     1       3.982   0.417  22.583  0.00  0.00    +0.394 C 
ATOM     27  O   UNL     1       4.198   0.924  21.968  0.00  0.00    -0.243 OA
ATOM     28  O   UNL     1       4.545   0.175  23.134  0.00  0.00    -0.243 OA
ENDBRANCH  25  26
ENDBRANCH  24  25
ENDBRANCH  23  24
ENDBRANCH  21  23
ENDBRANCH  19  20
ENDBRANCH  18  19
TORSDOF 12
ENDMDL
MODEL 4
REMARK VINA RESULT:      -8.3      2.278      4.866
REMARK  Name = 
REMARK  12 active torsions:
REMARK  status: ('A' for Active; 'I' for Inactive)
REMARK    1  A    between atoms: O_2  and  C_3
REMARK    2  A    between atoms: C_6  and  C_7
REMARK    3  A    between atoms: C_7  and  N_8
REMARK    4  A    between atoms: C_9  and  C_11
REMARK    5  A    between atoms: C_11  and  C_12
REMARK    6  A    between atoms: C_14  and  C_15
REMARK    7  A    between atoms: C_18  and  C_19
REMARK    8  A    between atoms: C_19  and  N_20
REMARK    9  A    between atoms: C_21  and  C_23
REMARK   10  A    between atoms: C_23  and  O_24
REMARK   11  A    between atoms: O_24  and  C_25
REMARK   12  A    between atoms: C_25  and  C_26
REMARK                            x       y       z     vdW  Elec       q    Type
REMARK                         _______ _______ _______ _____ _____    ______ ____
ROOT
ATOM     12  C   UNL     1      -0.441   2.522  25.351  0.00  0.00    +0.027 C 
ATOM     13  C   UNL     1      -0.493   2.294  24.561  0.00  0.00    +0.005 C 
ATOM     14  C   UNL     1      -0.522   1.494  24.363  0.00  0.00    +0.006 C 
ATOM     18  C   UNL     1      -0.500   0.922  24.957  0.00  0.00    +0.043 C 
ATOM     29  C   UNL     1      -0.449   1.150  25.748  0.00  0.00    -0.033 C 
ATOM     30  C   UNL     1      -0.419   1.950  25.945  0.00  0.00    -0.048 C 
ATOM     31  C   UNL     1      -0.367   2.177  26.736  0.00  0.00    +0.026 C 
ENDROOT
BRANCH  14  15
ATOM     15  C   UNL     1      -0.574   1.265  23.572  0.00  0.00    +0.000 C 
ATOM     16  C   UNL     1      -1.303   1.276  23.186  0.00  0.00    +0.000 C 
ATOM     17  C   UNL     1       0.104   1.026  23.167  0.00  0.00    +0.000 C 
ENDBRANCH  14  15
BRANCH  12  11
ATOM     11  C   UNL     1      -0.411   3.322  25.549  0.00  0.00    +0.091 C 
BRANCH  11   9
ATOM      8  N   UNL     1      -1.768   3.769  25.539  0.00  0.00    -0.201 NA
ATOM      9  C   UNL     1      -0.992   3.839  25.271  0.00  0.00    +0.242 C 
ATOM     10  O   UNL     1      -0.795   4.425  24.725  0.00  0.00    -0.273 OA
BRANCH   8   7
ATOM      7  C   UNL     1      -2.349   4.285  25.261  0.00  0.00    +0.141 C 
BRANCH   7   6
ATOM      3  C   UNL     1      -4.738   3.656  25.404  0.00  0.00    +0.139 A 
ATOM      4  C   UNL     1      -4.316   3.831  26.091  0.00  0.00    +0.037 A 
ATOM      5  C   UNL     1      -3.519   4.041  26.043  0.00  0.00    +0.001 A 
ATOM      6  C   UNL     1      -3.145   4.076  25.309  0.00  0.00    -0.000 A 
ATOM     32  C   UNL     1      -3.568   3.900  24.622  0.00  0.00    +0.001 A 
ATOM     33  C   UNL     1      -4.364   3.690  24.670  0.00  0.00    +0.037 A 
BRANCH   3   2
ATOM      1  C   UNL     1      -5.748   2.652  25.530  0.00  0.00    +0.252 C 
ATOM      2  O   UNL     1      -5.535   3.446  25.452  0.00  0.00    -0.471 OA
ENDBRANCH   3   2
ENDBRANCH   7   6
ENDBRANCH   8   7
ENDBRANCH  11   9
ENDBRANCH  12  11
BRANCH  18  19
ATOM     19  C   UNL     1      -0.530   0.120  24.759  0.00  0.00    +0.119 C 
BRANCH  19  20
ATOM     20  N   UNL     1      -1.138  -0.354  25.053  0.00  0.00    -0.203 NA
ATOM     21  C   UNL     1      -1.071  -1.175  25.021  0.00  0.00    +0.272 C 
ATOM     22  O   UNL     1      -0.397  -1.522  24.697  0.00  0.00    -0.271 OA
BRANCH  21  23
ATOM     23  C   UNL     1      -1.679  -1.650  25.315  0.00  0.00    +0.229 C 
BRANCH  23  24
ATOM     24  O   UNL     1      -2.259  -1.938  24.805  0.00  0.00    -0.333 OA
BRANCH  24  25
ATOM     25  C   UNL     1      -2.985  -2.191  25.107  0.00  0.00    +0.257 C 
BRANCH  25  26
ATOM     26  C   UNL     1      -3.581  -2.438  24.593  0.00  0.00    +0.394 C 
ATOM     27  O   UNL     1      -4.122  -1.890  24.296  0.00  0.00    -0.243 OA
ATOM     28  O   UNL     1      -3.637  -3.231  24.378  0.00  0.00    -0.243 OA
ENDBRANCH  25  26
ENDBRANCH  24  25
ENDBRANCH  23  24
ENDBRANCH  21  23
ENDBRANCH  19  20
ENDBRANCH  18  19
TORSDOF 12
ENDMDL
MODEL 5
REMARK VINA RESULT:      -8.3      1.982      4.101
REMARK  Name = 
REMARK  12 active torsions:
REMARK  status: ('A' for Active; 'I' for Inactive)
REMARK    1  A    between atoms: O_2  and  C_3
REMARK    2  A    between atoms: C_6  and  C_7
REMARK    3  A    between atoms: C_7  and  N_8
REMARK    4  A    between atoms: C_9  and  C_11
REMARK    5  A    between atoms: C_11  and  C_12
REMARK    6  A    between atoms: C_14  and  C_15
REMARK    7  A    between atoms: C_18  and  C_19
REMARK    8  A    between atoms: C_19  and  N_20
REMARK    9  A    between atoms: C_21  and  C_23
REMARK   10  A    between atoms: C_23  and  O_24
REMARK   11  A    between atoms: O_24  and  C_25
REMARK   12  A    between atoms: C_25  and  C_26
REMARK                            x       y       z     vdW  Elec       q    Type
REMARK                         _______ _______ _______ _____ _____    ______ ____
ROOT
ATOM     12  C   UNL     1      -4.100   0.461  24.448  0.00  0.00    +0.027 C 
ATOM     13  C   UNL     1      -4.052  -0.077  25.071  0.00  0.00    +0.005 C 
ATOM     14  C   UNL     1      -3.410  -0.594  25.122  0.00  0.00    +0.006 C 
ATOM     18  C   UNL     1      -2.817  -0.571  24.549  0.00  0.00    +0.043 C 
ATOM     29  C   UNL     1      -2.865  -0.033  23.925  0.00  0.00    -0.033 C 
ATOM     30  C   UNL     1      -3.507   0.483  23.875  0.00  0.00    -0.048 C 
ATOM     31  C   UNL     1      -3.555   1.021  23.252  0.00  0.00    +0.026 C 
ENDROOT
BRANCH  14  15
ATOM     15  C   UNL     1      -3.361  -1.132  25.745  0.00  0.00    +0.000 C 
ATOM     16  C   UNL     1      -3.036  -0.901  26.467  0.00  0.00    +0.000 C 
ATOM     17  C   UNL     1      -3.638  -1.903  25.647  0.00  0.00    +0.000 C 
ENDBRANCH  14  15
BRANCH  12  11
ATOM     11  C   UNL     1      -4.742   0.976  24.397  0.00  0.00    +0.091 C 
BRANCH  11   9
ATOM      8  N   UNL     1      -4.341   2.272  24.847  0.00  0.00    -0.201 NA
ATOM      9  C   UNL     1      -4.813   1.601  24.931  0.00  0.00    +0.242 C 
ATOM     10  O   UNL     1      -5.356   1.555  25.550  0.00  0.00    -0.273 OA
BRANCH   8   7
ATOM      7  C   UNL     1      -4.412   2.897  25.380  0.00  0.00    +0.141 C 
BRANCH   7   6
ATOM      3  C   UNL     1      -2.610   4.583  25.562  0.00  0.00    +0.139 A 
ATOM      4  C   UNL     1      -3.058   4.532  24.871  0.00  0.00    +0.037 A 
ATOM      5  C   UNL     1      -3.659   3.969  24.811  0.00  0.00    +0.001 A 
ATOM      6  C   UNL     1      -3.812   3.459  25.441  0.00  0.00    -0.000 A 
ATOM     32  C   UNL     1      -3.363   3.512  26.132  0.00  0.00    +0.001 A 
ATOM     33  C   UNL     1      -2.763   4.073  26.192  0.00  0.00    +0.037 A 
BRANCH   3   2
ATOM      1  C   UNL     1      -1.355   5.105  25.121  0.00  0.00    +0.252 C 
ATOM      2  O   UNL     1      -2.009   5.146  25.622  0.00  0.00    -0.471 OA
ENDBRANCH   3   2
ENDBRANCH   7   6
ENDBRANCH   8   7
ENDBRANCH  11   9
ENDBRANCH  12  11
BRANCH  18  19
ATOM     19  C   UNL     1      -2.174  -1.088  24.600  0.00  0.00    +0.119 C 
BRANCH  19  20
ATOM     20  N   UNL     1      -1.406  -0.797  24.525  0.00  0.00    -0.203 NA
ATOM     21  C   UNL     1      -0.797  -1.302  24.293  0.00  0.00    +0.272 C 
ATOM     22  O   UNL     1      -0.955  -2.096  24.137  0.00  0.00    -0.271 OA
BRANCH  21  23
ATOM     23  C   UNL     1      -0.027  -1.012  24.217  0.00  0.00    +0.229 C 
BRANCH  23  24
ATOM     24  O   UNL     1       0.244  -0.751  23.484  0.00  0.00    -0.333 OA
BRANCH  24  25
ATOM     25  C   UNL     1       0.900  -0.251  23.441  0.00  0.00    +0.257 C 
BRANCH  25  26
ATOM     26  C   UNL     1       1.301  -0.158  22.726  0.00  0.00    +0.394 C 
ATOM     27  O   UNL     1       0.908  -0.297  22.012  0.00  0.00    -0.243 OA
ATOM     28  O   UNL     1       2.092   0.072  22.723  0.00  0.00    -0.243 OA
ENDBRANCH  25  26
ENDBRANCH  24  25
ENDBRANCH  23  24
ENDBRANCH  21  23
ENDBRANCH  19  20
ENDBRANCH  18  19
TORSDOF 12
ENDMDL
MODEL 6
REMARK VINA RESULT:      -8.3      2.109      6.303
REMARK  Name = 
REMARK  12 active torsions:
REMARK  status: ('A' for Active; 'I' for Inactive)
REMARK    1  A    between atoms: O_2  and  C_3
REMARK    2  A    between atoms: C_6  and  C_7
REMARK    3  A    between atoms: C_7  and  N_8
REMARK    4  A    between atoms: C_9  and  C_11
REMARK    5  A    between atoms: C_11  and  C_12
REMARK    6  A    between atoms: C_14  and  C_15
REMARK    7  A    between atoms: C_18  and  C_19
REMARK    8  A    between atoms: C_19  and  N_20
REMARK    9  A    between atoms: C_21  and  C_23
REMARK   10  A    between atoms: C_23  and  O_24
REMARK   11  A    between atoms: O_24  and  C_25
REMARK   12  A    between atoms: C_25  and  C_26
REMARK                            x       y       z     vdW  Elec       q    Type
REMARK                         _______ _______ _______ _____ _____    ______ ____
ROOT
ATOM     12  C   UNL     1      -0.370   0.541  24.216  0.00  0.00    +0.027 C 
ATOM     13  C   UNL     1      -0.038   1.276  24.387  0.00  0.00    +0.005 C 
ATOM     14  C   UNL     1      -0.514   1.892  24.659  0.00  0.00    +0.006 C 
ATOM     18  C   UNL     1      -1.324   1.773  24.759  0.00  0.00    +0.043 C 
ATOM     29  C   UNL     1      -1.658   1.037  24.588  0.00  0.00    -0.033 C 
ATOM     30  C   UNL     1      -1.180   0.422  24.316  0.00  0.00    -0.048 C 
ATOM     31  C   UNL     1      -1.514  -0.313  24.145  0.00  0.00    +0.026 C 
ENDROOT
BRANCH  14  15
ATOM     15  C   UNL     1      -0.182   2.628  24.831  0.00  0.00    +0.000 C 
ATOM     16  C   UNL     1       0.106   2.784  25.587  0.00  0.00    +0.000 C 
ATOM     17  C   UNL     1      -0.137   3.206  24.244  0.00  0.00    +0.000 C 
ENDBRANCH  14  15
BRANCH  12  11
ATOM     11  C   UNL     1       0.106  -0.074  23.944  0.00  0.00    +0.091 C 
BRANCH  11   9
ATOM      8  N   UNL     1       1.411   0.020  23.369  0.00  0.00    -0.201 NA
ATOM      9  C   UNL     1       0.591   0.038  23.286  0.00  0.00    +0.242 C 
ATOM     10  O   UNL     1       0.255   0.168  22.544  0.00  0.00    -0.273 OA
BRANCH   8   7
ATOM      7  C   UNL     1       1.896   0.133  22.711  0.00  0.00    +0.141 C 
BRANCH   7   6
ATOM      3  C   UNL     1       4.349   0.293  22.991  0.00  0.00    +0.139 A 
ATOM      4  C   UNL     1       3.914   0.961  22.779  0.00  0.00    +0.037 A 
ATOM      5  C   UNL     1       3.096   0.907  22.686  0.00  0.00    +0.001 A 
ATOM      6  C   UNL     1       2.713   0.186  22.804  0.00  0.00    -0.000 A 
ATOM     32  C   UNL     1       3.150  -0.482  23.016  0.00  0.00    +0.001 A 
ATOM     33  C   UNL     1       3.967  -0.428  23.110  0.00  0.00    +0.037 A 
BRANCH   3   2
ATOM      1  C   UNL     1       5.508   0.205  23.823  0.00  0.00    +0.252 C 
ATOM      2  O   UNL     1       5.168   0.347  23.085  0.00  0.00    -0.471 OA
ENDBRANCH   3   2
ENDBRANCH   7   6
ENDBRANCH   8   7
ENDBRANCH  11   9
ENDBRANCH  12  11
BRANCH  18  19
ATOM     19  C   UNL     1      -1.802   2.389  25.032  0.00  0.00    +0.119 C 
BRANCH  19  20
ATOM     20  N   UNL     1      -2.595   2.425  24.807  0.00  0.00    -0.203 NA
ATOM     21  C   UNL     1      -3.104   2.954  25.182  0.00  0.00    +0.272 C 
ATOM     22  O   UNL     1      -2.822   3.446  25.780  0.00  0.00    -0.271 OA
BRANCH  21  23
ATOM     23  C   UNL     1      -3.898   2.991  24.958  0.00  0.00    +0.229 C 
BRANCH  23  24
ATOM     24  O   UNL     1      -4.487   2.756  25.486  0.00  0.00    -0.333 OA
BRANCH  24  25
ATOM     25  C   UNL     1      -5.282   2.848  25.284  0.00  0.00    +0.257 C 
BRANCH  25  26
ATOM     26  C   UNL     1      -5.860   2.411  25.678  0.00  0.00    +0.394 C 
ATOM     27  O   UNL     1      -6.273   1.819  25.278  0.00  0.00    -0.243 OA
ATOM     28  O   UNL     1      -6.025   2.565  26.471  0.00  0.00    -0.243 OA
ENDBRANCH  25  26
ENDBRANCH  24  25
ENDBRANCH  23  24
ENDBRANCH  21  23
ENDBRANCH  19  20
ENDBRANCH  18  19
TORSDOF 12
ENDMDL
MODEL 7
REMARK VINA RESULT:      -8.2      2.008      4.616
REMARK  Name = 
REMARK  12 active torsions:
REMARK  status: ('A' for Active; 'I' for Inactive)
REMARK    1  A    between atoms: O_2  and  C_3
REMARK    2  A    between atoms: C_6  and  C_7
REMARK    3  A    between atoms: C_7  and  N_8
REMARK    4  A    between atoms: C_9  and  C_11
REMARK    5  A    between atoms: C_11  and  C_12
REMARK    6  A    between atoms: C_14  and  C_15
REMARK    7  A    between atoms: C_18  and  C_19
REMARK    8  A    between atoms: C_19  and  N_20
REMARK    9  A    between atoms: C_21  and  C_23
REMARK   10  A    between atoms: C_23  and  O_24
REMARK   11  A    between atoms: O_24  and  C_25
REMARK   12  A    between atoms: C_25  and  C_26
REMARK                            x       y       z     vdW  Elec       q    Type
REMARK                         _______ _______ _______ _____ _____    ______ ____
ROOT
ATOM     12  C   UNL     1      -0.655   1.403  24.015  0.00  0.00    +0.027 C 
ATOM     13  C   UNL     1      -0.347   1.671  24.732  0.00  0.00    +0.005 C 
ATOM     14  C   UNL     1      -0.698   2.309  25.119  0.00  0.00    +0.006 C 
ATOM     18  C   UNL     1      -1.357   2.680  24.789  0.00  0.00    +0.043 C 
ATOM     29  C   UNL     1      -1.666   2.412  24.072  0.00  0.00    -0.033 C 
ATOM     30  C   UNL     1      -1.315   1.774  23.686  0.00  0.00    -0.048 C 
ATOM     31  C   UNL     1      -1.623   1.506  22.969  0.00  0.00    +0.026 C 
ENDROOT
BRANCH  14  15
ATOM     15  C   UNL     1      -0.390   2.578  25.836  0.00  0.00    +0.000 C 
ATOM     16  C   UNL     1       0.169   3.184  25.844  0.00  0.00    +0.000 C 
ATOM     17  C   UNL     1      -0.641   2.239  26.545  0.00  0.00    +0.000 C 
ENDBRANCH  14  15
BRANCH  12  11
ATOM     11  C   UNL     1      -0.305   0.765  23.629  0.00  0.00    +0.091 C 
BRANCH  11   9
ATOM      8  N   UNL     1      -0.913  -0.432  24.119  0.00  0.00    -0.201 NA
ATOM      9  C   UNL     1      -0.242   0.035  24.009  0.00  0.00    +0.242 C 
ATOM     10  O   UNL     1       0.492  -0.228  24.278  0.00  0.00    -0.273 OA
BRANCH   8   7
ATOM      7  C   UNL     1      -0.850  -1.162  24.499  0.00  0.00    +0.141 C 
BRANCH   7   6
ATOM      3  C   UNL     1      -2.849  -2.594  24.771  0.00  0.00    +0.139 A 
ATOM      4  C   UNL     1      -2.236  -2.833  24.274  0.00  0.00    +0.037 A 
ATOM      5  C   UNL     1      -1.569  -2.355  24.184  0.00  0.00    +0.001 A 
ATOM      6  C   UNL     1      -1.516  -1.639  24.590  0.00  0.00    -0.000 A 
ATOM     32  C   UNL     1      -2.131  -1.401  25.086  0.00  0.00    +0.001 A 
ATOM     33  C   UNL     1      -2.797  -1.878  25.176  0.00  0.00    +0.037 A 
BRANCH   3   2
ATOM      1  C   UNL     1      -4.114  -3.058  24.292  0.00  0.00    +0.252 C 
ATOM      2  O   UNL     1      -3.517  -3.072  24.861  0.00  0.00    -0.471 OA
ENDBRANCH   3   2
ENDBRANCH   7   6
ENDBRANCH   8   7
ENDBRANCH  11   9
ENDBRANCH  12  11
BRANCH  18  19
ATOM     19  C   UNL     1      -1.708   3.319  25.177  0.00  0.00    +0.119 C 
BRANCH  19  20
ATOM     20  N   UNL     1      -2.522   3.438  25.120  0.00  0.00    -0.203 NA
ATOM     21  C   UNL     1      -2.866   4.102  25.468  0.00  0.00    +0.272 C 
ATOM     22  O   UNL     1      -2.397   4.646  25.873  0.00  0.00    -0.271 OA
BRANCH  21  23
ATOM     23  C   UNL     1      -3.681   4.222  25.411  0.00  0.00    +0.229 C 
BRANCH  23  24
ATOM     24  O   UNL     1      -4.202   3.649  25.695  0.00  0.00    -0.333 OA
BRANCH  24  25
ATOM     25  C   UNL     1      -5.009   3.706  25.527  0.00  0.00    +0.257 C 
BRANCH  25  26
ATOM     26  C   UNL     1      -5.510   3.073  25.696  0.00  0.00    +0.394 C 
ATOM     27  O   UNL     1      -5.729   2.918  26.477  0.00  0.00    -0.243 OA
ATOM     28  O   UNL     1      -5.792   2.596  25.086  0.00  0.00    -0.243 OA
ENDBRANCH  25  26
ENDBRANCH  24  25
ENDBRANCH  23  24
ENDBRANCH  21  23
ENDBRANCH  19  20
ENDBRANCH  18  19
TORSDOF 12
ENDMDL
MODEL 8
REMARK VINA RESULT:      -8.2      1.603      6.500
REMARK  Name = 
REMARK  12 active torsions:
REMARK  status: ('A' for Active; 'I' for Inactive)
REMARK    1  A    between atoms: O_2  and  C_3
REMARK    2  A    between atoms: C_6  and  C_7
REMARK    3  A    between atoms: C_7  and  N_8
REMARK    4  A    between atoms: C_9  and  C_11
REMARK    5  A    between atoms: C_11  and  C_12
REMARK    6  A    between atoms: C_14  and  C_15
REMARK    7  A    between atoms: C_18  and  C_19
REMARK    8  A    between atoms: C_19  and  N_20
REMARK    9  A    between atoms: C_21  and  C_23
REMARK   10  A    between atoms: C_23  and  O_24
REMARK   11  A    between atoms: O_24  and  C_25
REMARK   12  A    between atoms: C_25  and  C_26
REMARK                            x       y       z     vdW  Elec       q    Type
REMARK                         _______ _______ _______ _____ _____    ______ ____
ROOT
ATOM     12  C   UNL     1      -0.380   0.700  24.008  0.00  0.00    +0.027 C 
ATOM     13  C   UNL     1      -0.404  -0.066  24.312  0.00  0.00    +0.005 C 
ATOM     14  C   UNL     1      -1.115  -0.378  24.591  0.00  0.00    +0.006 C 
ATOM     18  C   UNL     1      -1.802   0.076  24.566  0.00  0.00    +0.043 C 
ATOM     29  C   UNL     1      -1.779   0.844  24.261  0.00  0.00    -0.033 C 
ATOM     30  C   UNL     1      -1.068   1.155  23.983  0.00  0.00    -0.048 C 
ATOM     31  C   UNL     1      -1.046   1.921  23.679  0.00  0.00    +0.026 C 
ENDROOT
BRANCH  14  15
ATOM     15  C   UNL     1      -1.138  -1.145  24.895  0.00  0.00    +0.000 C 
ATOM     16  C   UNL     1      -1.383  -1.771  24.419  0.00  0.00    +0.000 C 
ATOM     17  C   UNL     1      -0.917  -1.285  25.678  0.00  0.00    +0.000 C 
ENDBRANCH  14  15
BRANCH  12  11
ATOM     11  C   UNL     1       0.330   1.012  23.730  0.00  0.00    +0.091 C 
BRANCH  11   9
ATOM      8  N   UNL     1       1.627   0.586  23.306  0.00  0.00    -0.201 NA
ATOM      9  C   UNL     1       0.807   0.567  23.224  0.00  0.00    +0.242 C 
ATOM     10  O   UNL     1       0.462   0.104  22.635  0.00  0.00    -0.273 OA
BRANCH   8   7
ATOM      7  C   UNL     1       2.103   0.141  22.801  0.00  0.00    +0.141 C 
BRANCH   7   6
ATOM      3  C   UNL     1       4.564   0.191  23.053  0.00  0.00    +0.139 A 
ATOM      4  C   UNL     1       4.169   0.844  22.740  0.00  0.00    +0.037 A 
ATOM      5  C   UNL     1       3.348   0.827  22.656  0.00  0.00    +0.001 A 
ATOM      6  C   UNL     1       2.923   0.157  22.885  0.00  0.00    -0.000 A 
ATOM     32  C   UNL     1       3.320  -0.495  23.197  0.00  0.00    +0.001 A 
ATOM     33  C   UNL     1       4.140  -0.478  23.281  0.00  0.00    +0.037 A 
BRANCH   3   2
ATOM      1  C   UNL     1       5.723   0.176  23.889  0.00  0.00    +0.252 C 
ATOM      2  O   UNL     1       5.386   0.208  23.137  0.00  0.00    -0.471 OA
ENDBRANCH   3   2
ENDBRANCH   7   6
ENDBRANCH   8   7
ENDBRANCH  11   9
ENDBRANCH  12  11
BRANCH  18  19
ATOM     19  C   UNL     1      -2.514  -0.236  24.844  0.00  0.00    +0.119 C 
BRANCH  19  20
ATOM     20  N   UNL     1      -3.227   0.140  24.665  0.00  0.00    -0.203 NA
ATOM     21  C   UNL     1      -3.907  -0.042  25.096  0.00  0.00    +0.272 C 
ATOM     22  O   UNL     1      -3.874  -0.597  25.703  0.00  0.00    -0.271 OA
BRANCH  21  23
ATOM     23  C   UNL     1      -4.620   0.334  24.917  0.00  0.00    +0.229 C 
BRANCH  23  24
ATOM     24  O   UNL     1      -4.856   0.996  25.348  0.00  0.00    -0.333 OA
BRANCH  24  25
ATOM     25  C   UNL     1      -5.509   1.437  25.102  0.00  0.00    +0.257 C 
BRANCH  25  26
ATOM     26  C   UNL     1      -5.718   2.125  25.506  0.00  0.00    +0.394 C 
ATOM     27  O   UNL     1      -5.493   2.862  25.210  0.00  0.00    -0.243 OA
ATOM     28  O   UNL     1      -6.151   2.076  26.206  0.00  0.00    -0.243 OA
ENDBRANCH  25  26
ENDBRANCH  24  25
ENDBRANCH  23  24
ENDBRANCH  21  23
ENDBRANCH  19  20
ENDBRANCH  18  19
TORSDOF 12
ENDMDL
MODEL 9
REMARK VINA RESULT:      -8.0      1.678      2.453
REMARK  Name = 
REMARK  12 active torsions:
REMARK  status: ('A' for Active; 'I' for Inactive)
REMARK    1  A    between atoms: O_2  and  C_3
REMARK    2  A    between atoms: C_6  and  C_7
REMARK    3  A    between atoms: C_7  and  N_8
REMARK    4  A    between atoms: C_9  and  C_11
REMARK    5  A    between atoms: C_11  and  C_12
REMARK    6  A    between atoms: C_14  and  C_15
REMARK    7  A    between atoms: C_18  and  C_19
REMARK    8  A    between atoms: C_19  and  N_20
REMARK    9  A    between atoms: C_21  and  C_23
REMARK   10  A    between atoms: C_23  and  O_24
REMARK   11  A    between atoms: O_24  and  C_25
REMARK   12  A    between atoms: C_25  and  C_26
REMARK                            x       y       z     vdW  Elec       q    Type
REMARK                         _______ _______ _______ _____ _____    ______ ____
ROOT
ATOM     12  C   UNL     1      -4.170   2.770  24.488  0.00  0.00    +0.027 C 
ATOM     13  C   UNL     1      -4.072   3.123  25.227  0.00  0.00    +0.005 C 
ATOM     14  C   UNL     1      -3.376   3.530  25.401  0.00  0.00    +0.006 C 
ATOM     18  C   UNL     1      -2.777   3.584  24.836  0.00  0.00    +0.043 C 
ATOM     29  C   UNL     1      -2.875   3.231  24.096  0.00  0.00    -0.033 C 
ATOM     30  C   UNL     1      -3.572   2.824  23.922  0.00  0.00    -0.048 C 
ATOM     31  C   UNL     1      -3.669   2.472  23.183  0.00  0.00    +0.026 C 
ENDROOT
BRANCH  14  15
ATOM     15  C   UNL     1      -3.277   3.883  26.141  0.00  0.00    +0.000 C 
ATOM     16  C   UNL     1      -2.956   3.451  26.765  0.00  0.00    +0.000 C 
ATOM     17  C   UNL     1      -3.500   4.669  26.255  0.00  0.00    +0.000 C 
ENDBRANCH  14  15
BRANCH  12  11
ATOM     11  C   UNL     1      -4.866   2.364  24.314  0.00  0.00    +0.091 C 
BRANCH  11   9
ATOM      8  N   UNL     1      -4.673   0.975  24.590  0.00  0.00    -0.201 NA
ATOM      9  C   UNL     1      -5.065   1.685  24.739  0.00  0.00    +0.242 C 
ATOM     10  O   UNL     1      -5.657   1.717  25.312  0.00  0.00    -0.273 OA
BRANCH   8   7
ATOM      7  C   UNL     1      -4.873   0.296  25.015  0.00  0.00    +0.141 C 
BRANCH   7   6
ATOM      3  C   UNL     1      -3.512  -1.757  24.782  0.00  0.00    +0.139 A 
ATOM      4  C   UNL     1      -3.443  -1.292  25.460  0.00  0.00    +0.037 A 
ATOM      5  C   UNL     1      -3.897  -0.607  25.537  0.00  0.00    +0.001 A 
ATOM      6  C   UNL     1      -4.419  -0.388  24.937  0.00  0.00    -0.000 A 
ATOM     32  C   UNL     1      -4.488  -0.854  24.260  0.00  0.00    +0.001 A 
ATOM     33  C   UNL     1      -4.034  -1.538  24.182  0.00  0.00    +0.037 A 
BRANCH   3   2
ATOM      1  C   UNL     1      -2.251  -2.385  24.541  0.00  0.00    +0.252 C 
ATOM      2  O   UNL     1      -3.058  -2.442  24.704  0.00  0.00    -0.471 OA
ENDBRANCH   3   2
ENDBRANCH   7   6
ENDBRANCH   8   7
ENDBRANCH  11   9
ENDBRANCH  12  11
BRANCH  18  19
ATOM     19  C   UNL     1      -2.080   3.991  25.010  0.00  0.00    +0.119 C 
BRANCH  19  20
ATOM     20  N   UNL     1      -1.360   3.590  25.017  0.00  0.00    -0.203 NA
ATOM     21  C   UNL     1      -0.665   3.988  24.821  0.00  0.00    +0.272 C 
ATOM     22  O   UNL     1      -0.690   4.787  24.619  0.00  0.00    -0.271 OA
BRANCH  21  23
ATOM     23  C   UNL     1       0.057   3.587  24.828  0.00  0.00    +0.229 C 
BRANCH  23  24
ATOM     24  O   UNL     1       0.171   2.936  24.334  0.00  0.00    -0.333 OA
BRANCH  24  25
ATOM     25  C   UNL     1       0.583   2.276  24.611  0.00  0.00    +0.257 C 
BRANCH  25  26
ATOM     26  C   UNL     1       0.768   1.660  24.094  0.00  0.00    +0.394 C 
ATOM     27  O   UNL     1       0.211   1.070  23.941  0.00  0.00    -0.243 OA
ATOM     28  O   UNL     1       1.507   1.634  23.731  0.00  0.00    -0.243 OA
ENDBRANCH  25  26
ENDBRANCH  24  25
ENDBRANCH  23  24
ENDBRANCH  21  23
ENDBRANCH  19  20
ENDBRANCH  18  19
TORSDOF 12
ENDMDL
MODEL 10
REMARK VINA RESULT:      -6.2     15.940     18.368
REMARK  Name = 
REMARK  12 active torsions:
REMARK  status: ('A' for Active; 'I' for Inactive)
REMARK    1  A    between atoms: O_2  and  C_3
REMARK    2  A    between atoms: C_6  and  C_7
REMARK    3  A    between atoms: C_7  and  N_8
REMARK    4  A    between atoms: C_9  and  C_11
REMARK    5  A    between atoms: C_11  and  C_12
REMARK    6  A    between atoms: C_14  and  C_15
REMARK    7  A    between atoms: C_18  and  C_19
REMARK    8  A    between atoms: C_19  and  N_20
REMARK    9  A    between atoms: C_21  and  C_23
REMARK   10  A    between atoms: C_23  and  O_24
REMARK   11  A    between atoms: O_24  and  C_25
REMARK   12  A    between atoms: C_25  and  C_26
REMARK                            x       y       z     vdW  Elec       q    Type
REMARK                         _______ _______ _______ _____ _____    ______ ____
ROOT
ATOM     12  C   UNL     1      -4.781  -9.199   9.642  0.00  0.00    +0.027 C 
ATOM     13  C   UNL     1      -5.263  -9.822   9.398  0.00  0.00    +0.005 C 
ATOM     14  C   UNL     1      -6.058  -9.687   9.225  0.00  0.00    +0.006 C 
ATOM     18  C   UNL     1      -6.372  -8.928   9.297  0.00  0.00    +0.043 C 
ATOM     29  C   UNL     1      -5.890  -8.303   9.541  0.00  0.00    -0.033 C 
ATOM     30  C   UNL     1      -5.095  -8.440   9.714  0.00  0.00    -0.048 C 
ATOM     31  C   UNL     1      -4.615  -7.815   9.958  0.00  0.00    +0.026 C 
ENDROOT
BRANCH  14  15
ATOM     15  C   UNL     1      -6.540 -10.311   8.980  0.00  0.00    +0.000 C 
ATOM     16  C   UNL     1      -6.985 -10.731   9.533  0.00  0.00    +0.000 C 
ATOM     17  C   UNL     1      -6.577 -10.515   8.182  0.00  0.00    +0.000 C 
ENDBRANCH  14  15
BRANCH  12  11
ATOM     11  C   UNL     1      -3.987  -9.334   9.815  0.00  0.00    +0.091 C 
BRANCH  11   9
ATOM      8  N   UNL     1      -3.596  -9.984  11.026  0.00  0.00    -0.201 NA
ATOM      9  C   UNL     1      -3.762 -10.018  10.219  0.00  0.00    +0.242 C 
ATOM     10  O   UNL     1      -3.704 -10.735   9.816  0.00  0.00    -0.273 OA
BRANCH   8   7
ATOM      7  C   UNL     1      -3.371 -10.667  11.431  0.00  0.00    +0.141 C 
BRANCH   7   6
ATOM      3  C   UNL     1      -2.708 -10.536  13.811  0.00  0.00    +0.139 A 
ATOM      4  C   UNL     1      -2.135 -10.483  13.220  0.00  0.00    +0.037 A 
ATOM      5  C   UNL     1      -2.357 -10.527  12.426  0.00  0.00    +0.001 A 
ATOM      6  C   UNL     1      -3.151 -10.623  12.224  0.00  0.00    -0.000 A 
ATOM     32  C   UNL     1      -3.723 -10.676  12.816  0.00  0.00    +0.001 A 
ATOM     33  C   UNL     1      -3.502 -10.632  13.609  0.00  0.00    +0.037 A 
BRANCH   3   2
ATOM      1  C   UNL     1      -1.688 -10.475  14.810  0.00  0.00    +0.252 C 
ATOM      2  O   UNL     1      -2.487 -10.492  14.605  0.00  0.00    -0.471 OA
ENDBRANCH   3   2
ENDBRANCH   7   6
ENDBRANCH   8   7
ENDBRANCH  11   9
ENDBRANCH  12  11
BRANCH  18  19
ATOM     19  C   UNL     1      -7.168  -8.792   9.124  0.00  0.00    +0.119 C 
BRANCH  19  20
ATOM     20  N   UNL     1      -7.389  -8.114   8.708  0.00  0.00    -0.203 NA
ATOM     21  C   UNL     1      -8.167  -7.842   8.750  0.00  0.00    +0.272 C 
ATOM     22  O   UNL     1      -8.722  -8.247   9.205  0.00  0.00    -0.271 OA
BRANCH  21  23
ATOM     23  C   UNL     1      -8.389  -7.164   8.334  0.00  0.00    +0.229 C 
BRANCH  23  24
ATOM     24  O   UNL     1      -8.874  -6.602   8.693  0.00  0.00    -0.333 OA
BRANCH  24  25
ATOM     25  C   UNL     1      -9.096  -5.924   8.277  0.00  0.00    +0.257 C 
BRANCH  25  26
ATOM     26  C   UNL     1      -9.523  -5.329   8.658  0.00  0.00    +0.394 C 
ATOM     27  O   UNL     1     -10.273  -5.491   8.963  0.00  0.00    -0.243 OA
ATOM     28  O   UNL     1      -9.201  -4.574   8.733  0.00  0.00    -0.243 OA
ENDBRANCH  25  26
ENDBRANCH  24  25
ENDBRANCH  23  24
ENDBRANCH  21  23
ENDBRANCH  19  20
ENDBRANCH  18  19
TORSDOF 12
ENDMDL
