MODEL 1
REMARK VINA RESULT:      -8.9      0.000      0.000
REMARK  Name = 
REMARK  7 active torsions:
REMARK  status: ('A' for Active; 'I' for Inactive)
REMARK    1  A    between atoms: S_2  and  N_5
REMARK    2  A    between atoms: N_5  and  C_6
REMARK    3  A    between atoms: C_6  and  C_7
REMARK    4  A    between atoms: C_10  and  N_11
REMARK    5  A    between atoms: N_11  and  C_12
REMARK    6  A    between atoms: C_12  and  C_13
REMARK    7  A    between atoms: C_16  and  C_19
REMARK                            x       y       z     vdW  Elec       q    Type
REMARK                         _______ _______ _______ _____ _____    ______ ____
ROOT
ATOM      7  C   UNL     1      -2.738   2.950  24.739  0.00  0.00    +0.166 C 
ATOM      8  O   UNL     1      -3.354   2.926  25.287  0.00  0.00    -0.350 OA
ATOM      9  C   UNL     1      -3.722   2.191  25.225  0.00  0.00    +0.162 C 
ATOM     10  C   UNL     1      -3.333   1.759  24.639  0.00  0.00    +0.135 C 
ATOM     22  C   UNL     1      -2.725   2.228  24.338  0.00  0.00    +0.199 C 
ATOM     23  O   UNL     1      -2.197   2.014  23.742  0.00  0.00    -0.219 OA
ENDROOT
BRANCH   7   6
ATOM      6  C   UNL     1      -2.224   3.583  24.614  0.00  0.00    +0.147 C 
BRANCH   6   5
ATOM      5  N   UNL     1      -1.992   4.056  25.247  0.00  0.00    -0.079 NA
BRANCH   5   2
ATOM      1  C   UNL     1      -0.923   5.290  25.005  0.00  0.00    +0.197 C 
ATOM      2  S   UNL     1      -1.457   4.674  25.126  0.00  0.00    +0.059 S 
ATOM      3  O   UNL     1      -0.832   4.170  25.316  0.00  0.00    -0.156 OA
ATOM      4  O   UNL     1      -2.081   5.178  24.936  0.00  0.00    -0.156 OA
ENDBRANCH   5   2
ENDBRANCH   6   5
ENDBRANCH   7   6
BRANCH  10  11
ATOM     11  N   UNL     1      -3.521   0.993  24.396  0.00  0.00    -0.209 NA
BRANCH  11  12
ATOM     12  C   UNL     1      -3.925   0.486  24.906  0.00  0.00    +0.115 C 
BRANCH  12  13
ATOM     13  C   UNL     1      -3.884  -0.330  24.793  0.00  0.00    -0.005 A 
ATOM     14  C   UNL     1      -3.531  -0.809  25.365  0.00  0.00    -0.003 A 
ATOM     15  C   UNL     1      -3.490  -1.624  25.252  0.00  0.00    +0.006 A 
ATOM     16  C   UNL     1      -3.803  -1.963  24.568  0.00  0.00    +0.080 A 
ATOM     17  C   UNL     1      -4.156  -1.484  23.996  0.00  0.00    +0.006 A 
ATOM     18  C   UNL     1      -4.197  -0.668  24.109  0.00  0.00    -0.003 A 
BRANCH  16  19
ATOM     19  C   UNL     1      -3.762  -2.779  24.455  0.00  0.00    +0.388 C 
ATOM     20  O   UNL     1      -4.098  -3.119  23.782  0.00  0.00    -0.241 OA
ATOM     21  O   UNL     1      -3.386  -3.255  25.013  0.00  0.00    -0.241 OA
ENDBRANCH  16  19
ENDBRANCH  12  13
ENDBRANCH  11  12
ENDBRANCH  10  11
TORSDOF 7
ENDMDL
MODEL 2
REMARK VINA RESULT:      -8.3      2.190      5.902
REMARK  Name = 
REMARK  7 active torsions:
REMARK  status: ('A' for Active; 'I' for Inactive)
REMARK    1  A    between atoms: S_2  and  N_5
REMARK    2  A    between atoms: N_5  and  C_6
REMARK    3  A    between atoms: C_6  and  C_7
REMARK    4  A    between atoms: C_10  and  N_11
REMARK    5  A    between atoms: N_11  and  C_12
REMARK    6  A    between atoms: C_12  and  C_13
REMARK    7  A    between atoms: C_16  and  C_19
REMARK                            x       y       z     vdW  Elec       q    Type
REMARK                         _______ _______ _______ _____ _____    ______ ____
ROOT
ATOM      7  C   UNL     1      -2.462  -0.470  24.885  0.00  0.00    +0.166 C 
ATOM      8  O   UNL     1      -1.796  -0.472  25.371  0.00  0.00    -0.350 OA
ATOM      9  C   UNL     1      -1.526   0.304  25.437  0.00  0.00    +0.162 C 
ATOM     10  C   UNL     1      -2.026   0.786  24.991  0.00  0.00    +0.135 C 
ATOM     22  C   UNL     1      -2.604   0.308  24.650  0.00  0.00    +0.199 C 
ATOM     23  O   UNL     1      -3.217   0.563  24.161  0.00  0.00    -0.219 OA
ENDROOT
BRANCH   7   6
ATOM      6  C   UNL     1      -2.908  -1.130  24.671  0.00  0.00    +0.147 C 
BRANCH   6   5
ATOM      5  N   UNL     1      -2.694  -1.879  24.942  0.00  0.00    -0.079 NA
BRANCH   5   2
ATOM      1  C   UNL     1      -3.565  -3.203  24.485  0.00  0.00    +0.197 C 
ATOM      2  S   UNL     1      -3.130  -2.542  24.713  0.00  0.00    +0.059 S 
ATOM      3  O   UNL     1      -3.629  -2.438  25.362  0.00  0.00    -0.156 OA
ATOM      4  O   UNL     1      -2.632  -2.645  24.064  0.00  0.00    -0.156 OA
ENDBRANCH   5   2
ENDBRANCH   6   5
ENDBRANCH   7   6
BRANCH  10  11
ATOM     11  N   UNL     1      -1.958   1.604  24.903  0.00  0.00    -0.209 NA
BRANCH  11  12
ATOM     12  C   UNL     1      -1.445   2.031  25.389  0.00  0.00    +0.115 C 
BRANCH  12  13
ATOM     13  C   UNL     1      -1.372   2.847  25.295  0.00  0.00    -0.005 A 
ATOM     14  C   UNL     1      -0.776   3.155  24.814  0.00  0.00    -0.003 A 
ATOM     15  C   UNL     1      -0.704   3.971  24.720  0.00  0.00    +0.006 A 
ATOM     16  C   UNL     1      -1.226   4.480  25.107  0.00  0.00    +0.080 A 
ATOM     17  C   UNL     1      -1.821   4.171  25.588  0.00  0.00    +0.006 A 
ATOM     18  C   UNL     1      -1.894   3.355  25.682  0.00  0.00    -0.003 A 
BRANCH  16  19
ATOM     19  C   UNL     1      -1.153   5.296  25.013  0.00  0.00    +0.388 C 
ATOM     20  O   UNL     1      -1.777   5.793  25.225  0.00  0.00    -0.241 OA
ATOM     21  O   UNL     1      -0.457   5.616  24.708  0.00  0.00    -0.241 OA
ENDBRANCH  16  19
ENDBRANCH  12  13
ENDBRANCH  11  12
ENDBRANCH  10  11
TORSDOF 7
ENDMDL
MODEL 3
REMARK VINA RESULT:      -7.7      3.035      4.256
REMARK  Name = 
REMARK  7 active torsions:
REMARK  status: ('A' for Active; 'I' for Inactive)
REMARK    1  A    between atoms: S_2  and  N_5
REMARK    2  A    between atoms: N_5  and  C_6
REMARK    3  A    between atoms: C_6  and  C_7
REMARK    4  A    between atoms: C_10  and  N_11
REMARK    5  A    between atoms: N_11  and  C_12
REMARK    6  A    between atoms: C_12  and  C_13
REMARK    7  A    between atoms: C_16  and  C_19
REMARK                            x       y       z     vdW  Elec       q    Type
REMARK                         _______ _______ _______ _____ _____    ______ ____
ROOT
ATOM      7  C   UNL     1      -0.308   0.363  23.793  0.00  0.00    +0.166 C 
ATOM      8  O   UNL     1      -0.617  -0.352  24.064  0.00  0.00    -0.350 OA
ATOM      9  C   UNL     1      -1.379  -0.211  24.343  0.00  0.00    +0.162 C 
ATOM     10  C   UNL     1      -1.543   0.592  24.244  0.00  0.00    +0.135 C 
ATOM     22  C   UNL     1      -0.880   0.947  23.904  0.00  0.00    +0.199 C 
ATOM     23  O   UNL     1      -0.804   1.744  23.710  0.00  0.00    -0.219 OA
ENDROOT
BRANCH   7   6
ATOM      6  C   UNL     1       0.442   0.475  23.467  0.00  0.00    +0.147 C 
BRANCH   6   5
ATOM      5  N   UNL     1       0.842  -0.159  23.125  0.00  0.00    -0.079 NA
BRANCH   5   2
ATOM      1  C   UNL     1       2.283   0.090  22.360  0.00  0.00    +0.197 C 
ATOM      2  S   UNL     1       1.563  -0.034  22.742  0.00  0.00    +0.059 S 
ATOM      3  O   UNL     1       1.226  -0.277  22.029  0.00  0.00    -0.156 OA
ATOM      4  O   UNL     1       1.900   0.208  23.455  0.00  0.00    -0.156 OA
ENDBRANCH   5   2
ENDBRANCH   6   5
ENDBRANCH   7   6
BRANCH  10  11
ATOM     11  N   UNL     1      -2.245   0.973  24.450  0.00  0.00    -0.209 NA
BRANCH  11  12
ATOM     12  C   UNL     1      -2.972   0.626  24.266  0.00  0.00    +0.115 C 
BRANCH  12  13
ATOM     13  C   UNL     1      -3.673   0.991  24.500  0.00  0.00    -0.005 A 
ATOM     14  C   UNL     1      -4.185   0.605  25.020  0.00  0.00    -0.003 A 
ATOM     15  C   UNL     1      -4.886   0.970  25.255  0.00  0.00    +0.006 A 
ATOM     16  C   UNL     1      -5.077   1.720  24.969  0.00  0.00    +0.080 A 
ATOM     17  C   UNL     1      -4.565   2.106  24.449  0.00  0.00    +0.006 A 
ATOM     18  C   UNL     1      -3.864   1.741  24.215  0.00  0.00    -0.003 A 
BRANCH  16  19
ATOM     19  C   UNL     1      -5.779   2.085  25.204  0.00  0.00    +0.388 C 
ATOM     20  O   UNL     1      -6.500   1.829  24.895  0.00  0.00    -0.241 OA
ATOM     21  O   UNL     1      -5.760   2.705  25.747  0.00  0.00    -0.241 OA
ENDBRANCH  16  19
ENDBRANCH  12  13
ENDBRANCH  11  12
ENDBRANCH  10  11
TORSDOF 7
ENDMDL
MODEL 4
REMARK VINA RESULT:      -6.6      3.171      4.310
REMARK  Name = 
REMARK  7 active torsions:
REMARK  status: ('A' for Active; 'I' for Inactive)
REMARK    1  A    between atoms: S_2  and  N_5
REMARK    2  A    between atoms: N_5  and  C_6
REMARK    3  A    between atoms: C_6  and  C_7
REMARK    4  A    between atoms: C_10  and  N_11
REMARK    5  A    between atoms: N_11  and  C_12
REMARK    6  A    between atoms: C_12  and  C_13
REMARK    7  A    between atoms: C_16  and  C_19
REMARK                            x       y       z     vdW  Elec       q    Type
REMARK                         _______ _______ _______ _____ _____    ______ ____
ROOT
ATOM      7  C   UNL     1      -3.293   1.753  24.636  0.00  0.00    +0.166 C 
ATOM      8  O   UNL     1      -3.156   1.072  25.081  0.00  0.00    -0.350 OA
ATOM      9  C   UNL     1      -2.429   0.759  24.850  0.00  0.00    +0.162 C 
ATOM     10  C   UNL     1      -2.116   1.247  24.263  0.00  0.00    +0.135 C 
ATOM     22  C   UNL     1      -2.649   1.861  24.131  0.00  0.00    +0.199 C 
ATOM     23  O   UNL     1      -2.556   2.476  23.589  0.00  0.00    -0.219 OA
ENDROOT
BRANCH   7   6
ATOM      6  C   UNL     1      -3.956   2.241  24.687  0.00  0.00    +0.147 C 
BRANCH   6   5
ATOM      5  N   UNL     1      -4.460   2.185  25.338  0.00  0.00    -0.079 NA
BRANCH   5   2
ATOM      1  C   UNL     1      -5.712   3.246  25.505  0.00  0.00    +0.197 C 
ATOM      2  S   UNL     1      -5.087   2.716  25.421  0.00  0.00    +0.059 S 
ATOM      3  O   UNL     1      -5.545   2.255  24.914  0.00  0.00    -0.156 OA
ATOM      4  O   UNL     1      -4.628   3.177  25.929  0.00  0.00    -0.156 OA
ENDBRANCH   5   2
ENDBRANCH   6   5
ENDBRANCH   7   6
BRANCH  10  11
ATOM     11  N   UNL     1      -1.394   1.139  23.877  0.00  0.00    -0.209 NA
BRANCH  11  12
ATOM     12  C   UNL     1      -0.821   0.644  24.204  0.00  0.00    +0.115 C 
BRANCH  12  13
ATOM     13  C   UNL     1      -0.109   0.518  23.806  0.00  0.00    -0.005 A 
ATOM     14  C   UNL     1       0.016  -0.190  23.400  0.00  0.00    -0.003 A 
ATOM     15  C   UNL     1       0.728  -0.315  23.003  0.00  0.00    +0.006 A 
ATOM     16  C   UNL     1       1.314   0.266  23.010  0.00  0.00    +0.080 A 
ATOM     17  C   UNL     1       1.187   0.973  23.416  0.00  0.00    +0.006 A 
ATOM     18  C   UNL     1       0.476   1.099  23.814  0.00  0.00    -0.003 A 
BRANCH  16  19
ATOM     19  C   UNL     1       2.025   0.140  22.612  0.00  0.00    +0.388 C 
ATOM     20  O   UNL     1       2.739   0.359  22.965  0.00  0.00    -0.241 OA
ATOM     21  O   UNL     1       2.024  -0.204  21.863  0.00  0.00    -0.241 OA
ENDBRANCH  16  19
ENDBRANCH  12  13
ENDBRANCH  11  12
ENDBRANCH  10  11
TORSDOF 7
ENDMDL
MODEL 5
REMARK VINA RESULT:      -6.3      2.909      4.846
REMARK  Name = 
REMARK  7 active torsions:
REMARK  status: ('A' for Active; 'I' for Inactive)
REMARK    1  A    between atoms: S_2  and  N_5
REMARK    2  A    between atoms: N_5  and  C_6
REMARK    3  A    between atoms: C_6  and  C_7
REMARK    4  A    between atoms: C_10  and  N_11
REMARK    5  A    between atoms: N_11  and  C_12
REMARK    6  A    between atoms: C_12  and  C_13
REMARK    7  A    between atoms: C_16  and  C_19
REMARK                            x       y       z     vdW  Elec       q    Type
REMARK                         _______ _______ _______ _____ _____    ______ ____
ROOT
ATOM      7  C   UNL     1      -1.134   0.528  24.407  0.00  0.00    +0.166 C 
ATOM      8  O   UNL     1      -1.264   0.732  23.619  0.00  0.00    -0.350 OA
ATOM      9  C   UNL     1      -1.755   1.393  23.604  0.00  0.00    +0.162 C 
ATOM     10  C   UNL     1      -1.930   1.599  24.384  0.00  0.00    +0.135 C 
ATOM     22  C   UNL     1      -1.546   1.064  24.881  0.00  0.00    +0.199 C 
ATOM     23  O   UNL     1      -1.570   1.064  25.705  0.00  0.00    -0.219 OA
ENDROOT
BRANCH   7   6
ATOM      6  C   UNL     1      -0.673  -0.102  24.676  0.00  0.00    +0.147 C 
BRANCH   6   5
ATOM      5  N   UNL     1      -0.813  -0.864  24.395  0.00  0.00    -0.079 NA
BRANCH   5   2
ATOM      1  C   UNL     1      -0.119  -2.160  25.145  0.00  0.00    +0.197 C 
ATOM      2  S   UNL     1      -0.466  -1.513  24.770  0.00  0.00    +0.059 S 
ATOM      3  O   UNL     1       0.274  -1.153  24.708  0.00  0.00    -0.156 OA
ATOM      4  O   UNL     1      -1.205  -1.872  24.833  0.00  0.00    -0.156 OA
ENDBRANCH   5   2
ENDBRANCH   6   5
ENDBRANCH   7   6
BRANCH  10  11
ATOM     11  N   UNL     1      -2.406   2.229  24.625  0.00  0.00    -0.209 NA
BRANCH  11  12
ATOM     12  C   UNL     1      -3.081   2.425  24.192  0.00  0.00    +0.115 C 
BRANCH  12  13
ATOM     13  C   UNL     1      -3.751   2.708  24.581  0.00  0.00    -0.005 A 
ATOM     14  C   UNL     1      -4.452   2.272  24.564  0.00  0.00    -0.003 A 
ATOM     15  C   UNL     1      -5.122   2.555  24.953  0.00  0.00    +0.006 A 
ATOM     16  C   UNL     1      -5.092   3.273  25.359  0.00  0.00    +0.080 A 
ATOM     17  C   UNL     1      -4.391   3.708  25.375  0.00  0.00    +0.006 A 
ATOM     18  C   UNL     1      -3.721   3.425  24.986  0.00  0.00    -0.003 A 
BRANCH  16  19
ATOM     19  C   UNL     1      -5.762   3.556  25.748  0.00  0.00    +0.388 C 
ATOM     20  O   UNL     1      -6.192   3.056  26.245  0.00  0.00    -0.241 OA
ATOM     21  O   UNL     1      -6.004   4.337  25.640  0.00  0.00    -0.241 OA
ENDBRANCH  16  19
ENDBRANCH  12  13
ENDBRANCH  11  12
ENDBRANCH  10  11
TORSDOF 7
ENDMDL
MODEL 6
REMARK VINA RESULT:      -6.0      2.376      2.944
REMARK  Name = 
REMARK  7 active torsions:
REMARK  status: ('A' for Active; 'I' for Inactive)
REMARK    1  A    between atoms: S_2  and  N_5
REMARK    2  A    between atoms: N_5  and  C_6
REMARK    3  A    between atoms: C_6  and  C_7
REMARK    4  A    between atoms: C_10  and  N_11
REMARK    5  A    between atoms: N_11  and  C_12
REMARK    6  A    between atoms: C_12  and  C_13
REMARK    7  A    between atoms: C_16  and  C_19
REMARK                            x       y       z     vdW  Elec       q    Type
REMARK                         _______ _______ _______ _____ _____    ______ ____
ROOT
ATOM      7  C   UNL     1      -3.465   2.811  24.979  0.00  0.00    +0.166 C 
ATOM      8  O   UNL     1      -2.795   3.156  25.313  0.00  0.00    -0.350 OA
ATOM      9  C   UNL     1      -2.164   2.635  25.217  0.00  0.00    +0.162 C 
ATOM     10  C   UNL     1      -2.443   1.966  24.823  0.00  0.00    +0.135 C 
ATOM     22  C   UNL     1      -3.247   2.074  24.676  0.00  0.00    +0.199 C 
ATOM     23  O   UNL     1      -3.746   1.541  24.293  0.00  0.00    -0.219 OA
ENDROOT
BRANCH   7   6
ATOM      6  C   UNL     1      -4.220   3.142  24.952  0.00  0.00    +0.147 C 
BRANCH   6   5
ATOM      5  N   UNL     1      -4.536   3.502  25.623  0.00  0.00    -0.079 NA
BRANCH   5   2
ATOM      1  C   UNL     1      -6.091   4.052  25.608  0.00  0.00    +0.197 C 
ATOM      2  S   UNL     1      -5.314   3.778  25.616  0.00  0.00    +0.059 S 
ATOM      3  O   UNL     1      -5.531   3.179  26.141  0.00  0.00    -0.156 OA
ATOM      4  O   UNL     1      -5.098   4.376  25.090  0.00  0.00    -0.156 OA
ENDBRANCH   5   2
ENDBRANCH   6   5
ENDBRANCH   7   6
BRANCH  10  11
ATOM     11  N   UNL     1      -1.996   1.305  24.613  0.00  0.00    -0.209 NA
BRANCH  11  12
ATOM     12  C   UNL     1      -1.370   1.060  25.093  0.00  0.00    +0.115 C 
BRANCH  12  13
ATOM     13  C   UNL     1      -1.150   0.266  25.109  0.00  0.00    -0.005 A 
ATOM     14  C   UNL     1      -1.355  -0.206  25.756  0.00  0.00    -0.003 A 
ATOM     15  C   UNL     1      -1.134  -1.000  25.772  0.00  0.00    +0.006 A 
ATOM     16  C   UNL     1      -0.710  -1.324  25.143  0.00  0.00    +0.080 A 
ATOM     17  C   UNL     1      -0.506  -0.853  24.497  0.00  0.00    +0.006 A 
ATOM     18  C   UNL     1      -0.726  -0.058  24.481  0.00  0.00    -0.003 A 
BRANCH  16  19
ATOM     19  C   UNL     1      -0.489  -2.119  25.159  0.00  0.00    +0.388 C 
ATOM     20  O   UNL     1      -0.991  -2.692  24.841  0.00  0.00    -0.241 OA
ATOM     21  O   UNL     1       0.231  -2.341  25.493  0.00  0.00    -0.241 OA
ENDBRANCH  16  19
ENDBRANCH  12  13
ENDBRANCH  11  12
ENDBRANCH  10  11
TORSDOF 7
ENDMDL
MODEL 7
REMARK VINA RESULT:      -5.8     16.128     18.260
REMARK  Name = 
REMARK  7 active torsions:
REMARK  status: ('A' for Active; 'I' for Inactive)
REMARK    1  A    between atoms: S_2  and  N_5
REMARK    2  A    between atoms: N_5  and  C_6
REMARK    3  A    between atoms: C_6  and  C_7
REMARK    4  A    between atoms: C_10  and  N_11
REMARK    5  A    between atoms: N_11  and  C_12
REMARK    6  A    between atoms: C_12  and  C_13
REMARK    7  A    between atoms: C_16  and  C_19
REMARK                            x       y       z     vdW  Elec       q    Type
REMARK                         _______ _______ _______ _____ _____    ______ ____
ROOT
ATOM      7  C   UNL     1      13.105   8.288  17.492  0.00  0.00    +0.166 C 
ATOM      8  O   UNL     1      12.430   7.827  17.379  0.00  0.00    -0.350 OA
ATOM      9  C   UNL     1      12.042   7.761  18.103  0.00  0.00    +0.162 C 
ATOM     10  C   UNL     1      12.477   8.181  18.665  0.00  0.00    +0.135 C 
ATOM     22  C   UNL     1      13.133   8.507  18.288  0.00  0.00    +0.199 C 
ATOM     23  O   UNL     1      13.716   8.970  18.642  0.00  0.00    -0.219 OA
ENDROOT
BRANCH   7   6
ATOM      6  C   UNL     1      13.654   8.494  16.913  0.00  0.00    +0.147 C 
BRANCH   6   5
ATOM      5  N   UNL     1      13.489   8.350  16.118  0.00  0.00    -0.079 NA
BRANCH   5   2
ATOM      1  C   UNL     1      14.407   9.057  14.943  0.00  0.00    +0.197 C 
ATOM      2  S   UNL     1      13.949   8.703  15.530  0.00  0.00    +0.059 S 
ATOM      3  O   UNL     1      13.280   9.090  15.240  0.00  0.00    -0.156 OA
ATOM      4  O   UNL     1      14.617   8.317  15.820  0.00  0.00    -0.156 OA
ENDBRANCH   5   2
ENDBRANCH   6   5
ENDBRANCH   7   6
BRANCH  10  11
ATOM     11  N   UNL     1      12.287   8.261  19.464  0.00  0.00    -0.209 NA
BRANCH  11  12
ATOM     12  C   UNL     1      11.622   7.880  19.771  0.00  0.00    +0.115 C 
BRANCH  12  13
ATOM     13  C   UNL     1      11.376   8.038  20.542  0.00  0.00    -0.005 A 
ATOM     14  C   UNL     1      11.475   7.469  21.131  0.00  0.00    -0.003 A 
ATOM     15  C   UNL     1      11.229   7.627  21.902  0.00  0.00    +0.006 A 
ATOM     16  C   UNL     1      10.883   8.353  22.085  0.00  0.00    +0.080 A 
ATOM     17  C   UNL     1      10.784   8.922  21.495  0.00  0.00    +0.006 A 
ATOM     18  C   UNL     1      11.030   8.764  20.724  0.00  0.00    -0.003 A 
BRANCH  16  19
ATOM     19  C   UNL     1      10.637   8.511  22.856  0.00  0.00    +0.388 C 
ATOM     20  O   UNL     1       9.941   8.174  23.144  0.00  0.00    -0.241 OA
ATOM     21  O   UNL     1      11.086   9.006  23.339  0.00  0.00    -0.241 OA
ENDBRANCH  16  19
ENDBRANCH  12  13
ENDBRANCH  11  12
ENDBRANCH  10  11
TORSDOF 7
ENDMDL
MODEL 8
REMARK VINA RESULT:      -5.7     17.667     18.581
REMARK  Name = 
REMARK  7 active torsions:
REMARK  status: ('A' for Active; 'I' for Inactive)
REMARK    1  A    between atoms: S_2  and  N_5
REMARK    2  A    between atoms: N_5  and  C_6
REMARK    3  A    between atoms: C_6  and  C_7
REMARK    4  A    between atoms: C_10  and  N_11
REMARK    5  A    between atoms: N_11  and  C_12
REMARK    6  A    between atoms: C_12  and  C_13
REMARK    7  A    between atoms: C_16  and  C_19
REMARK                            x       y       z     vdW  Elec       q    Type
REMARK                         _______ _______ _______ _____ _____    ______ ____
ROOT
ATOM      7  C   UNL     1      -6.799  -8.562   9.168  0.00  0.00    +0.166 C 
ATOM      8  O   UNL     1      -6.398  -8.835   8.501  0.00  0.00    -0.350 OA
ATOM      9  C   UNL     1      -5.686  -9.168   8.751  0.00  0.00    +0.162 C 
ATOM     10  C   UNL     1      -5.647  -9.100   9.572  0.00  0.00    +0.135 C 
ATOM     22  C   UNL     1      -6.334  -8.725   9.830  0.00  0.00    +0.199 C 
ATOM     23  O   UNL     1      -6.525  -8.546  10.612  0.00  0.00    -0.219 OA
ENDROOT
BRANCH   7   6
ATOM      6  C   UNL     1      -7.536  -8.190   9.172  0.00  0.00    +0.147 C 
BRANCH   6   5
ATOM      5  N   UNL     1      -7.855  -7.899   8.470  0.00  0.00    -0.079 NA
BRANCH   5   2
ATOM      1  C   UNL     1      -9.276  -7.062   8.494  0.00  0.00    +0.197 C 
ATOM      2  S   UNL     1      -8.566  -7.480   8.482  0.00  0.00    +0.059 S 
ATOM      3  O   UNL     1      -8.982  -8.188   8.555  0.00  0.00    -0.156 OA
ATOM      4  O   UNL     1      -8.150  -6.772   8.408  0.00  0.00    -0.156 OA
ENDBRANCH   5   2
ENDBRANCH   6   5
ENDBRANCH   7   6
BRANCH  10  11
ATOM     11  N   UNL     1      -5.027  -9.361  10.052  0.00  0.00    -0.209 NA
BRANCH  11  12
ATOM     12  C   UNL     1      -4.292  -9.533   9.718  0.00  0.00    +0.115 C 
BRANCH  12  13
ATOM     13  C   UNL     1      -3.645  -9.687  10.206  0.00  0.00    -0.005 A 
ATOM     14  C   UNL     1      -3.034  -9.135  10.266  0.00  0.00    -0.003 A 
ATOM     15  C   UNL     1      -2.387  -9.289  10.754  0.00  0.00    +0.006 A 
ATOM     16  C   UNL     1      -2.350  -9.994  11.181  0.00  0.00    +0.080 A 
ATOM     17  C   UNL     1      -2.961 -10.545  11.120  0.00  0.00    +0.006 A 
ATOM     18  C   UNL     1      -3.608 -10.391  10.633  0.00  0.00    -0.003 A 
BRANCH  16  19
ATOM     19  C   UNL     1      -1.702 -10.148  11.668  0.00  0.00    +0.388 C 
ATOM     20  O   UNL     1      -1.031  -9.669  11.626  0.00  0.00    -0.241 OA
ATOM     21  O   UNL     1      -1.726 -10.780  12.198  0.00  0.00    -0.241 OA
ENDBRANCH  16  19
ENDBRANCH  12  13
ENDBRANCH  11  12
ENDBRANCH  10  11
TORSDOF 7
ENDMDL
MODEL 9
REMARK VINA RESULT:      -5.3     14.111     16.504
REMARK  Name = 
REMARK  7 active torsions:
REMARK  status: ('A' for Active; 'I' for Inactive)
REMARK    1  A    between atoms: S_2  and  N_5
REMARK    2  A    between atoms: N_5  and  C_6
REMARK    3  A    between atoms: C_6  and  C_7
REMARK    4  A    between atoms: C_10  and  N_11
REMARK    5  A    between atoms: N_11  and  C_12
REMARK    6  A    between atoms: C_12  and  C_13
REMARK    7  A    between atoms: C_16  and  C_19
REMARK                            x       y       z     vdW  Elec       q    Type
REMARK                         _______ _______ _______ _____ _____    ______ ____
ROOT
ATOM      7  C   UNL     1      -6.481 -10.025  15.030  0.00  0.00    +0.166 C 
ATOM      8  O   UNL     1      -7.107 -10.025  14.494  0.00  0.00    -0.350 OA
ATOM      9  C   UNL     1      -6.792 -10.003  13.732  0.00  0.00    +0.162 C 
ATOM     10  C   UNL     1      -5.970  -9.990  13.797  0.00  0.00    +0.135 C 
ATOM     22  C   UNL     1      -5.777 -10.004  14.599  0.00  0.00    +0.199 C 
ATOM     23  O   UNL     1      -5.015  -9.997  14.915  0.00  0.00    -0.219 OA
ENDROOT
BRANCH   7   6
ATOM      6  C   UNL     1      -6.545 -10.043  15.852  0.00  0.00    +0.147 C 
BRANCH   6   5
ATOM      5  N   UNL     1      -7.287  -9.999  16.208  0.00  0.00    -0.079 NA
BRANCH   5   2
ATOM      1  C   UNL     1      -7.410  -9.915  17.851  0.00  0.00    +0.197 C 
ATOM      2  S   UNL     1      -7.349  -9.957  17.031  0.00  0.00    +0.059 S 
ATOM      3  O   UNL     1      -7.364 -10.781  17.072  0.00  0.00    -0.156 OA
ATOM      4  O   UNL     1      -7.334  -9.133  16.990  0.00  0.00    -0.156 OA
ENDBRANCH   5   2
ENDBRANCH   6   5
ENDBRANCH   7   6
BRANCH  10  11
ATOM     11  N   UNL     1      -5.434  -9.968  13.170  0.00  0.00    -0.209 NA
BRANCH  11  12
ATOM     12  C   UNL     1      -5.707  -9.867  12.397  0.00  0.00    +0.115 C 
BRANCH  12  13
ATOM     13  C   UNL     1      -5.176  -9.688  11.793  0.00  0.00    -0.005 A 
ATOM     14  C   UNL     1      -4.578 -10.222  11.597  0.00  0.00    -0.003 A 
ATOM     15  C   UNL     1      -4.046 -10.043  10.992  0.00  0.00    +0.006 A 
ATOM     16  C   UNL     1      -4.112  -9.329  10.583  0.00  0.00    +0.080 A 
ATOM     17  C   UNL     1      -4.710  -8.795  10.779  0.00  0.00    +0.006 A 
ATOM     18  C   UNL     1      -5.241  -8.975  11.384  0.00  0.00    -0.003 A 
BRANCH  16  19
ATOM     19  C   UNL     1      -3.581  -9.149   9.979  0.00  0.00    +0.388 C 
ATOM     20  O   UNL     1      -2.769  -9.146  10.130  0.00  0.00    -0.241 OA
ATOM     21  O   UNL     1      -3.859  -8.973   9.223  0.00  0.00    -0.241 OA
ENDBRANCH  16  19
ENDBRANCH  12  13
ENDBRANCH  11  12
ENDBRANCH  10  11
TORSDOF 7
ENDMDL
MODEL 10
REMARK VINA RESULT:      -5.2     14.119     15.801
REMARK  Name = 
REMARK  7 active torsions:
REMARK  status: ('A' for Active; 'I' for Inactive)
REMARK    1  A    between atoms: S_2  and  N_5
REMARK    2  A    between atoms: N_5  and  C_6
REMARK    3  A    between atoms: C_6  and  C_7
REMARK    4  A    between atoms: C_10  and  N_11
REMARK    5  A    between atoms: N_11  and  C_12
REMARK    6  A    between atoms: C_12  and  C_13
REMARK    7  A    between atoms: C_16  and  C_19
REMARK                            x       y       z     vdW  Elec       q    Type
REMARK                         _______ _______ _______ _____ _____    ______ ____
ROOT
ATOM      7  C   UNL     1      -6.352  -9.987  16.029  0.00  0.00    +0.166 C 
ATOM      8  O   UNL     1      -5.688 -10.173  16.481  0.00  0.00    -0.350 OA
ATOM      9  C   UNL     1      -5.061 -10.319  15.966  0.00  0.00    +0.162 C 
ATOM     10  C   UNL     1      -5.337 -10.222  15.194  0.00  0.00    +0.135 C 
ATOM     22  C   UNL     1      -6.135 -10.017  15.233  0.00  0.00    +0.199 C 
ATOM     23  O   UNL     1      -6.629  -9.868  14.590  0.00  0.00    -0.219 OA
ENDROOT
BRANCH   7   6
ATOM      6  C   UNL     1      -7.101  -9.802  16.320  0.00  0.00    +0.147 C 
BRANCH   6   5
ATOM      5  N   UNL     1      -7.231  -9.774  17.134  0.00  0.00    -0.079 NA
BRANCH   5   2
ATOM      1  C   UNL     1      -8.753  -9.514  17.717  0.00  0.00    +0.197 C 
ATOM      2  S   UNL     1      -7.993  -9.644  17.426  0.00  0.00    +0.059 S 
ATOM      3  O   UNL     1      -7.893  -8.831  17.326  0.00  0.00    -0.156 OA
ATOM      4  O   UNL     1      -8.093 -10.457  17.526  0.00  0.00    -0.156 OA
ENDBRANCH   5   2
ENDBRANCH   6   5
ENDBRANCH   7   6
BRANCH  10  11
ATOM     11  N   UNL     1      -4.893 -10.315  14.505  0.00  0.00    -0.209 NA
BRANCH  11  12
ATOM     12  C   UNL     1      -4.157 -10.687  14.535  0.00  0.00    +0.115 C 
BRANCH  12  13
ATOM     13  C   UNL     1      -3.638 -10.626  13.897  0.00  0.00    -0.005 A 
ATOM     14  C   UNL     1      -3.912 -10.756  13.129  0.00  0.00    -0.003 A 
ATOM     15  C   UNL     1      -3.393 -10.695  12.491  0.00  0.00    +0.006 A 
ATOM     16  C   UNL     1      -2.600 -10.505  12.620  0.00  0.00    +0.080 A 
ATOM     17  C   UNL     1      -2.327 -10.376  13.388  0.00  0.00    +0.006 A 
ATOM     18  C   UNL     1      -2.846 -10.436  14.026  0.00  0.00    -0.003 A 
BRANCH  16  19
ATOM     19  C   UNL     1      -2.081 -10.444  11.982  0.00  0.00    +0.388 C 
ATOM     20  O   UNL     1      -1.320 -10.147  12.097  0.00  0.00    -0.241 OA
ATOM     21  O   UNL     1      -2.323 -10.679  11.229  0.00  0.00    -0.241 OA
ENDBRANCH  16  19
ENDBRANCH  12  13
ENDBRANCH  11  12
ENDBRANCH  10  11
TORSDOF 7
ENDMDL
