MODEL 1
REMARK VINA RESULT:     -10.8      0.000      0.000
REMARK  Name = 
REMARK  9 active torsions:
REMARK  status: ('A' for Active; 'I' for Inactive)
REMARK    1  A    between atoms: C_2  and  N_4
REMARK    2  A    between atoms: N_4  and  C_5
REMARK    3  A    between atoms: C_5  and  C_6
REMARK    4  A    between atoms: C_8  and  C_9
REMARK    5  A    between atoms: C_9  and  C_10
REMARK    6  A    between atoms: C_13  and  C_14
REMARK    7  A    between atoms: C_14  and  N_15
REMARK    8  A    between atoms: N_15  and  C_17
REMARK    9  A    between atoms: C_17  and  C_18
REMARK                            x       y       z     vdW  Elec       q    Type
REMARK                         _______ _______ _______ _____ _____    ______ ____
ROOT
ATOM     10  C   UNL     1      -0.642   1.632  25.568  0.00  0.00    +0.103 A 
ATOM     11  N   UNL     1      -0.155   1.449  24.927  0.00  0.00    -0.082 NA
ATOM     12  O   UNL     1      -0.367   0.702  24.651  0.00  0.00    -0.357 OA
ATOM     13  C   UNL     1      -0.986   0.423  25.121  0.00  0.00    +0.170 A 
ATOM     24  C   UNL     1      -1.155   0.998  25.687  0.00  0.00    +0.055 A 
ENDROOT
BRANCH  10   9
ATOM      9  C   UNL     1      -0.619   2.328  26.011  0.00  0.00    +0.079 C 
BRANCH   9   8
ATOM      6  C   UNL     1      -2.139   3.763  25.379  0.00  0.00    +0.163 C 
ATOM      7  O   UNL     1      -1.790   3.074  25.673  0.00  0.00    -0.354 OA
ATOM      8  C   UNL     1      -0.968   3.016  25.717  0.00  0.00    +0.121 C 
ATOM     25  C   UNL     1      -0.495   3.645  25.469  0.00  0.00    +0.033 C 
ATOM     26  C   UNL     1      -0.844   4.332  25.176  0.00  0.00    +0.038 C 
ATOM     27  C   UNL     1      -1.666   4.392  25.131  0.00  0.00    +0.180 C 
ATOM     28  O   UNL     1      -2.015   5.079  24.838  0.00  0.00    -0.220 OA
BRANCH   6   5
ATOM      5  C   UNL     1      -2.960   3.821  25.335  0.00  0.00    +0.121 C 
BRANCH   5   4
ATOM      4  N   UNL     1      -3.426   3.144  25.416  0.00  0.00    -0.217 NA
BRANCH   4   2
ATOM      1  C   UNL     1      -4.520   2.807  24.560  0.00  0.00    +0.019 C 
ATOM      2  C   UNL     1      -4.232   3.176  25.240  0.00  0.00    +0.073 C 
ATOM      3  C   UNL     1      -4.749   3.574  25.744  0.00  0.00    +0.019 C 
ENDBRANCH   4   2
ENDBRANCH   5   4
ENDBRANCH   6   5
ENDBRANCH   9   8
ENDBRANCH  10   9
BRANCH  13  14
ATOM     14  C   UNL     1      -1.368  -0.304  25.038  0.00  0.00    +0.141 C 
BRANCH  14  15
ATOM     15  N   UNL     1      -2.106  -0.342  24.671  0.00  0.00    -0.261 NA
ATOM     16  C   UNL     1      -2.199  -0.068  23.900  0.00  0.00    +0.090 C 
BRANCH  15  17
ATOM     17  C   UNL     1      -2.753  -0.654  25.079  0.00  0.00    +0.100 C 
BRANCH  17  18
ATOM     18  C   UNL     1      -3.183  -1.278  24.753  0.00  0.00    -0.006 A 
ATOM     19  C   UNL     1      -3.835  -1.122  24.272  0.00  0.00    -0.003 A 
ATOM     20  C   UNL     1      -4.265  -1.745  23.946  0.00  0.00    -0.000 A 
ATOM     21  C   UNL     1      -4.044  -2.525  24.101  0.00  0.00    -0.000 A 
ATOM     22  C   UNL     1      -3.392  -2.681  24.581  0.00  0.00    -0.000 A 
ATOM     23  C   UNL     1      -2.962  -2.058  24.907  0.00  0.00    -0.003 A 
ENDBRANCH  17  18
ENDBRANCH  15  17
ENDBRANCH  14  15
ENDBRANCH  13  14
TORSDOF 9
ENDMDL
MODEL 2
REMARK VINA RESULT:     -10.6      1.232      2.839
REMARK  Name = 
REMARK  9 active torsions:
REMARK  status: ('A' for Active; 'I' for Inactive)
REMARK    1  A    between atoms: C_2  and  N_4
REMARK    2  A    between atoms: N_4  and  C_5
REMARK    3  A    between atoms: C_5  and  C_6
REMARK    4  A    between atoms: C_8  and  C_9
REMARK    5  A    between atoms: C_9  and  C_10
REMARK    6  A    between atoms: C_13  and  C_14
REMARK    7  A    between atoms: C_14  and  N_15
REMARK    8  A    between atoms: N_15  and  C_17
REMARK    9  A    between atoms: C_17  and  C_18
REMARK                            x       y       z     vdW  Elec       q    Type
REMARK                         _______ _______ _______ _____ _____    ______ ____
ROOT
ATOM     10  C   UNL     1      -4.084   2.575  24.565  0.00  0.00    +0.103 A 
ATOM     11  N   UNL     1      -4.550   2.559  25.246  0.00  0.00    -0.082 NA
ATOM     12  O   UNL     1      -4.838   1.793  25.339  0.00  0.00    -0.357 OA
ATOM     13  C   UNL     1      -4.551   1.334  24.716  0.00  0.00    +0.170 A 
ATOM     24  C   UNL     1      -4.085   1.818  24.238  0.00  0.00    +0.055 A 
ENDROOT
BRANCH  10   9
ATOM      9  C   UNL     1      -3.687   3.233  24.264  0.00  0.00    +0.079 C 
BRANCH   9   8
ATOM      6  C   UNL     1      -1.586   3.252  24.856  0.00  0.00    +0.163 C 
ATOM      7  O   UNL     1      -2.299   3.009  24.518  0.00  0.00    -0.354 OA
ATOM      8  C   UNL     1      -2.974   3.475  24.602  0.00  0.00    +0.121 C 
ATOM     25  C   UNL     1      -2.937   4.183  25.025  0.00  0.00    +0.033 C 
ATOM     26  C   UNL     1      -2.225   4.425  25.362  0.00  0.00    +0.038 C 
ATOM     27  C   UNL     1      -1.549   3.960  25.279  0.00  0.00    +0.180 C 
ATOM     28  O   UNL     1      -0.837   4.201  25.617  0.00  0.00    -0.220 OA
BRANCH   6   5
ATOM      5  C   UNL     1      -0.910   2.786  24.772  0.00  0.00    +0.121 C 
BRANCH   5   4
ATOM      4  N   UNL     1      -0.955   2.064  24.373  0.00  0.00    -0.217 NA
BRANCH   4   2
ATOM      1  C   UNL     1       0.361   1.656  23.994  0.00  0.00    +0.019 C 
ATOM      2  C   UNL     1      -0.331   1.526  24.425  0.00  0.00    +0.073 C 
ATOM      3  C   UNL     1      -0.400   0.860  24.906  0.00  0.00    +0.019 C 
ENDBRANCH   4   2
ENDBRANCH   5   4
ENDBRANCH   6   5
ENDBRANCH   9   8
ENDBRANCH  10   9
BRANCH  13  14
ATOM     14  C   UNL     1      -4.704   0.533  24.594  0.00  0.00    +0.141 C 
BRANCH  14  15
ATOM     15  N   UNL     1      -4.158  -0.034  24.843  0.00  0.00    -0.261 NA
ATOM     16  C   UNL     1      -4.055  -0.182  25.647  0.00  0.00    +0.090 C 
BRANCH  15  17
ATOM     17  C   UNL     1      -3.713  -0.451  24.286  0.00  0.00    +0.100 C 
BRANCH  17  18
ATOM     18  C   UNL     1      -3.703  -1.275  24.301  0.00  0.00    -0.006 A 
ATOM     19  C   UNL     1      -4.255  -1.703  23.863  0.00  0.00    -0.003 A 
ATOM     20  C   UNL     1      -4.244  -2.528  23.878  0.00  0.00    -0.000 A 
ATOM     21  C   UNL     1      -3.680  -2.925  24.332  0.00  0.00    -0.000 A 
ATOM     22  C   UNL     1      -3.128  -2.497  24.770  0.00  0.00    -0.000 A 
ATOM     23  C   UNL     1      -3.139  -1.672  24.755  0.00  0.00    -0.003 A 
ENDBRANCH  17  18
ENDBRANCH  15  17
ENDBRANCH  14  15
ENDBRANCH  13  14
TORSDOF 9
ENDMDL
MODEL 3
REMARK VINA RESULT:     -10.4      1.530      4.631
REMARK  Name = 
REMARK  9 active torsions:
REMARK  status: ('A' for Active; 'I' for Inactive)
REMARK    1  A    between atoms: C_2  and  N_4
REMARK    2  A    between atoms: N_4  and  C_5
REMARK    3  A    between atoms: C_5  and  C_6
REMARK    4  A    between atoms: C_8  and  C_9
REMARK    5  A    between atoms: C_9  and  C_10
REMARK    6  A    between atoms: C_13  and  C_14
REMARK    7  A    between atoms: C_14  and  N_15
REMARK    8  A    between atoms: N_15  and  C_17
REMARK    9  A    between atoms: C_17  and  C_18
REMARK                            x       y       z     vdW  Elec       q    Type
REMARK                         _______ _______ _______ _____ _____    ______ ____
ROOT
ATOM     10  C   UNL     1      -1.236  -0.319  25.207  0.00  0.00    +0.103 A 
ATOM     11  N   UNL     1      -0.738  -0.401  24.553  0.00  0.00    -0.082 NA
ATOM     12  O   UNL     1      -0.343   0.314  24.443  0.00  0.00    -0.357 OA
ATOM     13  C   UNL     1      -0.595   0.838  25.029  0.00  0.00    +0.170 A 
ATOM     24  C   UNL     1      -1.147   0.447  25.500  0.00  0.00    +0.055 A 
ENDROOT
BRANCH  10   9
ATOM      9  C   UNL     1      -1.734  -0.901  25.513  0.00  0.00    +0.079 C 
BRANCH   9   8
ATOM      6  C   UNL     1      -3.758  -0.675  24.726  0.00  0.00    +0.163 C 
ATOM      7  O   UNL     1      -3.044  -0.503  25.102  0.00  0.00    -0.354 OA
ATOM      8  C   UNL     1      -2.448  -1.073  25.136  0.00  0.00    +0.121 C 
ATOM     25  C   UNL     1      -2.566  -1.814  24.793  0.00  0.00    +0.033 C 
ATOM     26  C   UNL     1      -3.280  -1.985  24.417  0.00  0.00    +0.038 C 
ATOM     27  C   UNL     1      -3.876  -1.416  24.383  0.00  0.00    +0.180 C 
ATOM     28  O   UNL     1      -4.589  -1.587  24.007  0.00  0.00    -0.220 OA
BRANCH   6   5
ATOM      5  C   UNL     1      -4.353  -0.105  24.692  0.00  0.00    +0.121 C 
BRANCH   5   4
ATOM      4  N   UNL     1      -4.257   0.615  25.085  0.00  0.00    -0.217 NA
BRANCH   4   2
ATOM      1  C   UNL     1      -5.475   1.268  25.450  0.00  0.00    +0.019 C 
ATOM      2  C   UNL     1      -4.803   1.223  24.971  0.00  0.00    +0.073 C 
ATOM      3  C   UNL     1      -4.679   1.784  24.380  0.00  0.00    +0.019 C 
ENDBRANCH   4   2
ENDBRANCH   5   4
ENDBRANCH   6   5
ENDBRANCH   9   8
ENDBRANCH  10   9
BRANCH  13  14
ATOM     14  C   UNL     1      -0.340   1.617  25.125  0.00  0.00    +0.141 C 
BRANCH  14  15
ATOM     15  N   UNL     1      -0.848   2.242  24.946  0.00  0.00    -0.261 NA
ATOM     16  C   UNL     1      -1.089   2.368  24.167  0.00  0.00    +0.090 C 
BRANCH  15  17
ATOM     17  C   UNL     1      -1.115   2.742  25.546  0.00  0.00    +0.100 C 
BRANCH  17  18
ATOM     18  C   UNL     1      -1.231   3.544  25.394  0.00  0.00    -0.006 A 
ATOM     19  C   UNL     1      -1.969   3.887  25.528  0.00  0.00    -0.003 A 
ATOM     20  C   UNL     1      -2.085   4.689  25.377  0.00  0.00    -0.000 A 
ATOM     21  C   UNL     1      -1.462   5.149  25.090  0.00  0.00    -0.000 A 
ATOM     22  C   UNL     1      -0.724   4.806  24.956  0.00  0.00    -0.000 A 
ATOM     23  C   UNL     1      -0.608   4.004  25.108  0.00  0.00    -0.003 A 
ENDBRANCH  17  18
ENDBRANCH  15  17
ENDBRANCH  14  15
ENDBRANCH  13  14
TORSDOF 9
ENDMDL
MODEL 4
REMARK VINA RESULT:     -10.1      1.690      5.536
REMARK  Name = 
REMARK  9 active torsions:
REMARK  status: ('A' for Active; 'I' for Inactive)
REMARK    1  A    between atoms: C_2  and  N_4
REMARK    2  A    between atoms: N_4  and  C_5
REMARK    3  A    between atoms: C_5  and  C_6
REMARK    4  A    between atoms: C_8  and  C_9
REMARK    5  A    between atoms: C_9  and  C_10
REMARK    6  A    between atoms: C_13  and  C_14
REMARK    7  A    between atoms: C_14  and  N_15
REMARK    8  A    between atoms: N_15  and  C_17
REMARK    9  A    between atoms: C_17  and  C_18
REMARK                            x       y       z     vdW  Elec       q    Type
REMARK                         _______ _______ _______ _____ _____    ______ ____
ROOT
ATOM     10  C   UNL     1      -4.152   0.650  24.878  0.00  0.00    +0.103 A 
ATOM     11  N   UNL     1      -4.437   0.895  24.143  0.00  0.00    -0.082 NA
ATOM     12  O   UNL     1      -4.180   1.668  24.016  0.00  0.00    -0.357 OA
ATOM     13  C   UNL     1      -3.738   1.901  24.672  0.00  0.00    +0.170 A 
ATOM     24  C   UNL     1      -3.720   1.272  25.204  0.00  0.00    +0.055 A 
ENDROOT
BRANCH  10   9
ATOM      9  C   UNL     1      -4.278  -0.088  25.225  0.00  0.00    +0.079 C 
BRANCH   9   8
ATOM      6  C   UNL     1      -2.783  -1.573  24.651  0.00  0.00    +0.163 C 
ATOM      7  O   UNL     1      -3.126  -0.898  24.981  0.00  0.00    -0.354 OA
ATOM      8  C   UNL     1      -3.935  -0.763  24.895  0.00  0.00    +0.121 C 
ATOM     25  C   UNL     1      -4.402  -1.303  24.481  0.00  0.00    +0.033 C 
ATOM     26  C   UNL     1      -4.060  -1.977  24.153  0.00  0.00    +0.038 C 
ATOM     27  C   UNL     1      -3.250  -2.113  24.237  0.00  0.00    +0.180 C 
ATOM     28  O   UNL     1      -2.908  -2.786  23.908  0.00  0.00    -0.220 OA
BRANCH   6   5
ATOM      5  C   UNL     1      -1.974  -1.707  24.736  0.00  0.00    +0.121 C 
BRANCH   5   4
ATOM      4  N   UNL     1      -1.472  -1.085  24.942  0.00  0.00    -0.217 NA
BRANCH   4   2
ATOM      1  C   UNL     1      -0.286  -1.720  25.421  0.00  0.00    +0.019 C 
ATOM      2  C   UNL     1      -0.654  -1.187  24.910  0.00  0.00    +0.073 C 
ATOM      3  C   UNL     1      -0.205  -0.757  24.368  0.00  0.00    +0.019 C 
ENDBRANCH   4   2
ENDBRANCH   5   4
ENDBRANCH   6   5
ENDBRANCH   9   8
ENDBRANCH  10   9
BRANCH  13  14
ATOM     14  C   UNL     1      -3.375   2.635  24.777  0.00  0.00    +0.141 C 
BRANCH  14  15
ATOM     15  N   UNL     1      -2.566   2.719  24.639  0.00  0.00    -0.261 NA
ATOM     16  C   UNL     1      -2.250   2.522  23.903  0.00  0.00    +0.090 C 
BRANCH  15  17
ATOM     17  C   UNL     1      -2.073   3.000  25.238  0.00  0.00    +0.100 C 
BRANCH  17  18
ATOM     18  C   UNL     1      -1.699   3.730  25.156  0.00  0.00    -0.006 A 
ATOM     19  C   UNL     1      -0.920   3.768  24.888  0.00  0.00    -0.003 A 
ATOM     20  C   UNL     1      -0.547   4.498  24.806  0.00  0.00    -0.000 A 
ATOM     21  C   UNL     1      -0.953   5.192  24.993  0.00  0.00    -0.000 A 
ATOM     22  C   UNL     1      -1.731   5.155  25.262  0.00  0.00    -0.000 A 
ATOM     23  C   UNL     1      -2.105   4.424  25.344  0.00  0.00    -0.003 A 
ENDBRANCH  17  18
ENDBRANCH  15  17
ENDBRANCH  14  15
ENDBRANCH  13  14
TORSDOF 9
ENDMDL
MODEL 5
REMARK VINA RESULT:      -9.3      1.334      3.997
REMARK  Name = 
REMARK  9 active torsions:
REMARK  status: ('A' for Active; 'I' for Inactive)
REMARK    1  A    between atoms: C_2  and  N_4
REMARK    2  A    between atoms: N_4  and  C_5
REMARK    3  A    between atoms: C_5  and  C_6
REMARK    4  A    between atoms: C_8  and  C_9
REMARK    5  A    between atoms: C_9  and  C_10
REMARK    6  A    between atoms: C_13  and  C_14
REMARK    7  A    between atoms: C_14  and  N_15
REMARK    8  A    between atoms: N_15  and  C_17
REMARK    9  A    between atoms: C_17  and  C_18
REMARK                            x       y       z     vdW  Elec       q    Type
REMARK                         _______ _______ _______ _____ _____    ______ ____
ROOT
ATOM     10  C   UNL     1      -0.946   3.205  25.506  0.00  0.00    +0.103 A 
ATOM     11  N   UNL     1      -0.945   3.941  25.132  0.00  0.00    -0.082 NA
ATOM     12  O   UNL     1      -1.717   4.230  25.135  0.00  0.00    -0.357 OA
ATOM     13  C   UNL     1      -2.196   3.673  25.511  0.00  0.00    +0.170 A 
ATOM     24  C   UNL     1      -1.720   3.040  25.740  0.00  0.00    +0.055 A 
ENDROOT
BRANCH  10   9
ATOM      9  C   UNL     1      -0.290   2.721  25.625  0.00  0.00    +0.079 C 
BRANCH   9   8
ATOM      6  C   UNL     1      -0.264   0.802  24.584  0.00  0.00    +0.163 C 
ATOM      7  O   UNL     1      -0.450   1.388  25.134  0.00  0.00    -0.354 OA
ATOM      8  C   UNL     1      -0.104   2.134  25.075  0.00  0.00    +0.121 C 
ATOM     25  C   UNL     1       0.428   2.295  24.465  0.00  0.00    +0.033 C 
ATOM     26  C   UNL     1       0.614   1.710  23.915  0.00  0.00    +0.038 C 
ATOM     27  C   UNL     1       0.268   0.963  23.974  0.00  0.00    +0.180 C 
ATOM     28  O   UNL     1       0.453   0.377  23.424  0.00  0.00    -0.220 OA
BRANCH   6   5
ATOM      5  C   UNL     1      -0.611   0.056  24.643  0.00  0.00    +0.121 C 
BRANCH   5   4
ATOM      4  N   UNL     1      -0.932  -0.193  25.362  0.00  0.00    -0.217 NA
BRANCH   4   2
ATOM      1  C   UNL     1      -0.961  -1.621  25.406  0.00  0.00    +0.019 C 
ATOM      2  C   UNL     1      -1.359  -0.897  25.400  0.00  0.00    +0.073 C 
ATOM      3  C   UNL     1      -2.183  -0.879  25.433  0.00  0.00    +0.019 C 
ENDBRANCH   4   2
ENDBRANCH   5   4
ENDBRANCH   6   5
ENDBRANCH   9   8
ENDBRANCH  10   9
BRANCH  13  14
ATOM     14  C   UNL     1      -3.009   3.738  25.635  0.00  0.00    +0.141 C 
BRANCH  14  15
ATOM     15  N   UNL     1      -3.537   3.386  25.107  0.00  0.00    -0.261 NA
ATOM     16  C   UNL     1      -3.776   3.792  24.431  0.00  0.00    +0.090 C 
BRANCH  15  17
ATOM     17  C   UNL     1      -3.824   2.627  25.256  0.00  0.00    +0.100 C 
BRANCH  17  18
ATOM     18  C   UNL     1      -4.637   2.489  25.275  0.00  0.00    -0.006 A 
ATOM     19  C   UNL     1      -5.110   2.888  25.821  0.00  0.00    -0.003 A 
ATOM     20  C   UNL     1      -5.923   2.751  25.840  0.00  0.00    -0.000 A 
ATOM     21  C   UNL     1      -6.263   2.214  25.313  0.00  0.00    -0.000 A 
ATOM     22  C   UNL     1      -5.790   1.816  24.768  0.00  0.00    -0.000 A 
ATOM     23  C   UNL     1      -4.977   1.953  24.748  0.00  0.00    -0.003 A 
ENDBRANCH  17  18
ENDBRANCH  15  17
ENDBRANCH  14  15
ENDBRANCH  13  14
TORSDOF 9
ENDMDL
MODEL 6
REMARK VINA RESULT:      -9.0      1.406      4.498
REMARK  Name = 
REMARK  9 active torsions:
REMARK  status: ('A' for Active; 'I' for Inactive)
REMARK    1  A    between atoms: C_2  and  N_4
REMARK    2  A    between atoms: N_4  and  C_5
REMARK    3  A    between atoms: C_5  and  C_6
REMARK    4  A    between atoms: C_8  and  C_9
REMARK    5  A    between atoms: C_9  and  C_10
REMARK    6  A    between atoms: C_13  and  C_14
REMARK    7  A    between atoms: C_14  and  N_15
REMARK    8  A    between atoms: N_15  and  C_17
REMARK    9  A    between atoms: C_17  and  C_18
REMARK                            x       y       z     vdW  Elec       q    Type
REMARK                         _______ _______ _______ _____ _____    ______ ____
ROOT
ATOM     10  C   UNL     1      -0.960   1.114  24.219  0.00  0.00    +0.103 A 
ATOM     11  N   UNL     1      -0.658   1.500  24.884  0.00  0.00    -0.082 NA
ATOM     12  O   UNL     1      -1.117   2.171  25.018  0.00  0.00    -0.357 OA
ATOM     13  C   UNL     1      -1.702   2.201  24.436  0.00  0.00    +0.170 A 
ATOM     24  C   UNL     1      -1.604   1.548  23.942  0.00  0.00    +0.055 A 
ENDROOT
BRANCH  10   9
ATOM      9  C   UNL     1      -0.667   0.417  23.888  0.00  0.00    +0.079 C 
BRANCH   9   8
ATOM      6  C   UNL     1      -1.727  -1.345  24.621  0.00  0.00    +0.163 C 
ATOM      7  O   UNL     1      -1.578  -0.621  24.254  0.00  0.00    -0.354 OA
ATOM      8  C   UNL     1      -0.815  -0.308  24.255  0.00  0.00    +0.121 C 
ATOM     25  C   UNL     1      -0.201  -0.718  24.621  0.00  0.00    +0.033 C 
ATOM     26  C   UNL     1      -0.349  -1.442  24.987  0.00  0.00    +0.038 C 
ATOM     27  C   UNL     1      -1.112  -1.756  24.988  0.00  0.00    +0.180 C 
ATOM     28  O   UNL     1      -1.261  -2.480  25.353  0.00  0.00    -0.220 OA
BRANCH   6   5
ATOM      5  C   UNL     1      -2.490  -1.658  24.620  0.00  0.00    +0.121 C 
BRANCH   5   4
ATOM      4  N   UNL     1      -3.033  -1.420  24.046  0.00  0.00    -0.217 NA
BRANCH   4   2
ATOM      1  C   UNL     1      -4.066  -2.399  23.913  0.00  0.00    +0.019 C 
ATOM      2  C   UNL     1      -3.826  -1.635  24.115  0.00  0.00    +0.073 C 
ATOM      3  C   UNL     1      -4.380  -1.086  24.385  0.00  0.00    +0.019 C 
ENDBRANCH   4   2
ENDBRANCH   5   4
ENDBRANCH   6   5
ENDBRANCH   9   8
ENDBRANCH  10   9
BRANCH  13  14
ATOM     14  C   UNL     1      -2.282   2.784  24.361  0.00  0.00    +0.141 C 
BRANCH  14  15
ATOM     15  N   UNL     1      -3.080   2.576  24.397  0.00  0.00    -0.261 NA
ATOM     16  C   UNL     1      -3.511   2.470  23.702  0.00  0.00    +0.090 C 
BRANCH  15  17
ATOM     17  C   UNL     1      -3.447   2.475  25.130  0.00  0.00    +0.100 C 
BRANCH  17  18
ATOM     18  C   UNL     1      -4.204   2.776  25.257  0.00  0.00    -0.006 A 
ATOM     19  C   UNL     1      -4.308   3.577  25.421  0.00  0.00    -0.003 A 
ATOM     20  C   UNL     1      -5.065   3.878  25.548  0.00  0.00    -0.000 A 
ATOM     21  C   UNL     1      -5.720   3.377  25.510  0.00  0.00    -0.000 A 
ATOM     22  C   UNL     1      -5.617   2.576  25.346  0.00  0.00    -0.000 A 
ATOM     23  C   UNL     1      -4.859   2.275  25.219  0.00  0.00    -0.003 A 
ENDBRANCH  17  18
ENDBRANCH  15  17
ENDBRANCH  14  15
ENDBRANCH  13  14
TORSDOF 9
ENDMDL
MODEL 7
REMARK VINA RESULT:      -8.3      1.456      2.103
REMARK  Name = 
REMARK  9 active torsions:
REMARK  status: ('A' for Active; 'I' for Inactive)
REMARK    1  A    between atoms: C_2  and  N_4
REMARK    2  A    between atoms: N_4  and  C_5
REMARK    3  A    between atoms: C_5  and  C_6
REMARK    4  A    between atoms: C_8  and  C_9
REMARK    5  A    between atoms: C_9  and  C_10
REMARK    6  A    between atoms: C_13  and  C_14
REMARK    7  A    between atoms: C_14  and  N_15
REMARK    8  A    between atoms: N_15  and  C_17
REMARK    9  A    between atoms: C_17  and  C_18
REMARK                            x       y       z     vdW  Elec       q    Type
REMARK                         _______ _______ _______ _____ _____    ______ ____
ROOT
ATOM     10  C   UNL     1      -0.729   1.012  23.848  0.00  0.00    +0.103 A 
ATOM     11  N   UNL     1      -0.253   1.112  24.515  0.00  0.00    -0.082 NA
ATOM     12  O   UNL     1      -0.147   0.373  24.865  0.00  0.00    -0.357 OA
ATOM     13  C   UNL     1      -0.556  -0.184  24.414  0.00  0.00    +0.170 A 
ATOM     24  C   UNL     1      -0.915   0.211  23.786  0.00  0.00    +0.055 A 
ENDROOT
BRANCH  10   9
ATOM      9  C   UNL     1      -0.973   1.608  23.333  0.00  0.00    +0.079 C 
BRANCH   9   8
ATOM      6  C   UNL     1      -2.624   2.849  24.042  0.00  0.00    +0.163 C 
ATOM      7  O   UNL     1      -1.869   2.523  23.967  0.00  0.00    -0.354 OA
ATOM      8  C   UNL     1      -1.728   1.934  23.407  0.00  0.00    +0.121 C 
ATOM     25  C   UNL     1      -2.341   1.671  22.922  0.00  0.00    +0.033 C 
ATOM     26  C   UNL     1      -3.095   1.996  22.997  0.00  0.00    +0.038 C 
ATOM     27  C   UNL     1      -3.237   2.585  23.557  0.00  0.00    +0.180 C 
ATOM     28  O   UNL     1      -3.991   2.911  23.631  0.00  0.00    -0.220 OA
BRANCH   6   5
ATOM      5  C   UNL     1      -2.765   3.438  24.602  0.00  0.00    +0.121 C 
BRANCH   5   4
ATOM      4  N   UNL     1      -2.131   3.796  24.992  0.00  0.00    -0.217 NA
BRANCH   4   2
ATOM      1  C   UNL     1      -1.945   5.156  25.386  0.00  0.00    +0.019 C 
ATOM      2  C   UNL     1      -2.270   4.410  25.524  0.00  0.00    +0.073 C 
ATOM      3  C   UNL     1      -2.732   4.279  26.195  0.00  0.00    +0.019 C 
ENDBRANCH   4   2
ENDBRANCH   5   4
ENDBRANCH   6   5
ENDBRANCH   9   8
ENDBRANCH  10   9
BRANCH  13  14
ATOM     14  C   UNL     1      -0.599  -0.994  24.566  0.00  0.00    +0.141 C 
BRANCH  14  15
ATOM     15  N   UNL     1      -1.127  -1.280  25.133  0.00  0.00    -0.261 NA
ATOM     16  C   UNL     1      -1.348  -0.804  25.768  0.00  0.00    +0.090 C 
BRANCH  15  17
ATOM     17  C   UNL     1      -1.433  -2.043  25.062  0.00  0.00    +0.100 C 
BRANCH  17  18
ATOM     18  C   UNL     1      -2.239  -2.153  24.925  0.00  0.00    -0.006 A 
ATOM     19  C   UNL     1      -2.793  -1.844  25.451  0.00  0.00    -0.003 A 
ATOM     20  C   UNL     1      -3.599  -1.954  25.314  0.00  0.00    -0.000 A 
ATOM     21  C   UNL     1      -3.850  -2.373  24.648  0.00  0.00    -0.000 A 
ATOM     22  C   UNL     1      -3.296  -2.681  24.122  0.00  0.00    -0.000 A 
ATOM     23  C   UNL     1      -2.490  -2.571  24.259  0.00  0.00    -0.003 A 
ENDBRANCH  17  18
ENDBRANCH  15  17
ENDBRANCH  14  15
ENDBRANCH  13  14
TORSDOF 9
ENDMDL
MODEL 8
REMARK VINA RESULT:      -7.4      1.769      5.367
REMARK  Name = 
REMARK  9 active torsions:
REMARK  status: ('A' for Active; 'I' for Inactive)
REMARK    1  A    between atoms: C_2  and  N_4
REMARK    2  A    between atoms: N_4  and  C_5
REMARK    3  A    between atoms: C_5  and  C_6
REMARK    4  A    between atoms: C_8  and  C_9
REMARK    5  A    between atoms: C_9  and  C_10
REMARK    6  A    between atoms: C_13  and  C_14
REMARK    7  A    between atoms: C_14  and  N_15
REMARK    8  A    between atoms: N_15  and  C_17
REMARK    9  A    between atoms: C_17  and  C_18
REMARK                            x       y       z     vdW  Elec       q    Type
REMARK                         _______ _______ _______ _____ _____    ______ ____
ROOT
ATOM     10  C   UNL     1      -4.812   1.755  24.868  0.00  0.00    +0.103 A 
ATOM     11  N   UNL     1      -5.190   1.740  25.602  0.00  0.00    -0.082 NA
ATOM     12  O   UNL     1      -5.103   2.483  25.949  0.00  0.00    -0.357 OA
ATOM     13  C   UNL     1      -4.671   2.958  25.430  0.00  0.00    +0.170 A 
ATOM     24  C   UNL     1      -4.492   2.508  24.762  0.00  0.00    +0.055 A 
ENDROOT
BRANCH  10   9
ATOM      9  C   UNL     1      -4.764   1.128  24.334  0.00  0.00    +0.079 C 
BRANCH   9   8
ATOM      6  C   UNL     1      -3.201  -0.391  24.470  0.00  0.00    +0.163 C 
ATOM      7  O   UNL     1      -3.919   0.003  24.581  0.00  0.00    -0.354 OA
ATOM      8  C   UNL     1      -4.047   0.735  24.224  0.00  0.00    +0.121 C 
ATOM     25  C   UNL     1      -3.458   1.074  23.755  0.00  0.00    +0.033 C 
ATOM     26  C   UNL     1      -2.742   0.681  23.645  0.00  0.00    +0.038 C 
ATOM     27  C   UNL     1      -2.613  -0.052  24.002  0.00  0.00    +0.180 C 
ATOM     28  O   UNL     1      -1.897  -0.445  23.892  0.00  0.00    -0.220 OA
BRANCH   6   5
ATOM      5  C   UNL     1      -3.074  -1.123  24.828  0.00  0.00    +0.121 C 
BRANCH   5   4
ATOM      4  N   UNL     1      -3.656  -1.707  24.792  0.00  0.00    -0.217 NA
BRANCH   4   2
ATOM      1  C   UNL     1      -3.601  -3.111  24.530  0.00  0.00    +0.019 C 
ATOM      2  C   UNL     1      -3.487  -2.474  25.043  0.00  0.00    +0.073 C 
ATOM      3  C   UNL     1      -3.204  -2.605  25.807  0.00  0.00    +0.019 C 
ENDBRANCH   4   2
ENDBRANCH   5   4
ENDBRANCH   6   5
ENDBRANCH   9   8
ENDBRANCH  10   9
BRANCH  13  14
ATOM     14  C   UNL     1      -4.457   3.745  25.556  0.00  0.00    +0.141 C 
BRANCH  14  15
ATOM     15  N   UNL     1      -3.717   4.015  25.310  0.00  0.00    -0.261 NA
ATOM     16  C   UNL     1      -3.604   4.256  24.530  0.00  0.00    +0.090 C 
BRANCH  15  17
ATOM     17  C   UNL     1      -3.090   4.043  25.847  0.00  0.00    +0.100 C 
BRANCH  17  18
ATOM     18  C   UNL     1      -2.337   4.260  25.589  0.00  0.00    -0.006 A 
ATOM     19  C   UNL     1      -1.737   3.695  25.545  0.00  0.00    -0.003 A 
ATOM     20  C   UNL     1      -0.985   3.912  25.288  0.00  0.00    -0.000 A 
ATOM     21  C   UNL     1      -0.831   4.694  25.074  0.00  0.00    -0.000 A 
ATOM     22  C   UNL     1      -1.430   5.259  25.118  0.00  0.00    -0.000 A 
ATOM     23  C   UNL     1      -2.183   5.042  25.376  0.00  0.00    -0.003 A 
ENDBRANCH  17  18
ENDBRANCH  15  17
ENDBRANCH  14  15
ENDBRANCH  13  14
TORSDOF 9
ENDMDL
