MODEL 1
REMARK VINA RESULT:     -12.9      0.000      0.000
REMARK  Name = 
REMARK  4 active torsions:
REMARK  status: ('A' for Active; 'I' for Inactive)
REMARK    1  A    between atoms: C_2  and  C_23
REMARK    2  A    between atoms: C_6  and  C_8
REMARK    3  A    between atoms: C_11  and  C_12
REMARK    4  A    between atoms: C_12  and  C_13
REMARK                            x       y       z     vdW  Elec       q    Type
REMARK                         _______ _______ _______ _____ _____    ______ ____
ROOT
ATOM      8  C   UNL     1      -3.949   1.831  24.837  0.00  0.00    +0.227 A 
ATOM      9  N   UNL     1      -4.713   1.840  25.148  0.00  0.00    -0.112 NA
ATOM     10  N   UNL     1      -5.038   1.088  25.044  0.00  0.00    -0.111 NA
ATOM     11  C   UNL     1      -4.476   0.616  24.669  0.00  0.00    +0.231 A 
ATOM     22  O   UNL     1      -3.803   1.075  24.540  0.00  0.00    -0.423 OA
ENDROOT
BRANCH   8   6
ATOM      1  O   UNL     1      -1.417   3.238  26.148  0.00  0.00    -0.269 OA
ATOM      2  C   UNL     1      -1.758   3.617  25.500  0.00  0.00    +0.255 C 
ATOM      3  N   UNL     1      -2.416   3.288  25.129  0.00  0.00    -0.275 N 
ATOM      4  C   UNL     1      -2.814   3.604  24.478  0.00  0.00    +0.094 C 
ATOM      5  C   UNL     1      -3.436   3.096  24.290  0.00  0.00    +0.033 C 
ATOM      6  C   UNL     1      -3.424   2.467  24.824  0.00  0.00    +0.100 C 
ATOM      7  C   UNL     1      -2.793   2.586  25.342  0.00  0.00    +0.103 C 
BRANCH   2  23
ATOM     23  C   UNL     1      -1.439   4.327  25.223  0.00  0.00    +0.083 A 
ATOM     24  C   UNL     1      -1.765   5.078  25.324  0.00  0.00    +0.012 A 
ATOM     25  C   UNL     1      -1.265   5.623  24.960  0.00  0.00    +0.008 A 
ATOM     26  C   UNL     1      -0.630   5.210  24.635  0.00  0.00    +0.036 A 
ATOM     27  S   UNL     1      -0.736   4.409  24.798  0.00  0.00    -0.082 S 
ENDBRANCH   2  23
ENDBRANCH   8   6
BRANCH  11  12
ATOM     12  C   UNL     1      -4.571  -0.176  24.459  0.00  0.00    +0.115 C 
BRANCH  12  13
ATOM     13  C   UNL     1      -4.150  -0.761  24.859  0.00  0.00    +0.008 A 
ATOM     14  C   UNL     1      -3.816  -0.690  25.611  0.00  0.00    +0.095 A 
ATOM     15  N   UNL     1      -3.449  -1.406  25.795  0.00  0.00    -0.244 NA
ATOM     16  C   UNL     1      -3.556  -1.918  25.158  0.00  0.00    +0.081 A 
ATOM     17  C   UNL     1      -3.990  -1.520  24.580  0.00  0.00    +0.016 A 
ATOM     18  C   UNL     1      -4.182  -1.901  23.873  0.00  0.00    +0.001 A 
ATOM     19  C   UNL     1      -3.941  -2.679  23.745  0.00  0.00    +0.000 A 
ATOM     20  C   UNL     1      -3.508  -3.077  24.323  0.00  0.00    +0.002 A 
ATOM     21  C   UNL     1      -3.315  -2.698  25.029  0.00  0.00    +0.019 A 
ENDBRANCH  12  13
ENDBRANCH  11  12
TORSDOF 4
ENDMDL
MODEL 2
REMARK VINA RESULT:     -11.5      1.699      5.497
REMARK  Name = 
REMARK  4 active torsions:
REMARK  status: ('A' for Active; 'I' for Inactive)
REMARK    1  A    between atoms: C_2  and  C_23
REMARK    2  A    between atoms: C_6  and  C_8
REMARK    3  A    between atoms: C_11  and  C_12
REMARK    4  A    between atoms: C_12  and  C_13
REMARK                            x       y       z     vdW  Elec       q    Type
REMARK                         _______ _______ _______ _____ _____    ______ ____
ROOT
ATOM      8  C   UNL     1      -4.343   1.293  24.651  0.00  0.00    +0.227 A 
ATOM      9  N   UNL     1      -5.102   1.550  24.848  0.00  0.00    -0.112 NA
ATOM     10  N   UNL     1      -5.097   2.375  24.856  0.00  0.00    -0.111 NA
ATOM     11  C   UNL     1      -4.336   2.628  24.665  0.00  0.00    +0.231 A 
ATOM     22  O   UNL     1      -3.869   1.960  24.539  0.00  0.00    -0.423 OA
ENDROOT
BRANCH   8   6
ATOM      1  O   UNL     1      -3.483  -1.386  26.132  0.00  0.00    -0.269 OA
ATOM      2  C   UNL     1      -3.492  -1.405  25.307  0.00  0.00    +0.255 C 
ATOM      3  N   UNL     1      -3.709  -0.732  24.882  0.00  0.00    -0.275 N 
ATOM      4  C   UNL     1      -3.743  -0.669  24.060  0.00  0.00    +0.094 C 
ATOM      5  C   UNL     1      -3.985   0.098  23.874  0.00  0.00    +0.033 C 
ATOM      6  C   UNL     1      -4.100   0.508  24.580  0.00  0.00    +0.100 C 
ATOM      7  C   UNL     1      -3.929  -0.005  25.203  0.00  0.00    +0.103 C 
BRANCH   2  23
ATOM     23  C   UNL     1      -3.284  -2.096  24.908  0.00  0.00    +0.083 A 
ATOM     24  C   UNL     1      -3.803  -2.683  24.649  0.00  0.00    +0.012 A 
ATOM     25  C   UNL     1      -3.359  -3.271  24.280  0.00  0.00    +0.008 A 
ATOM     26  C   UNL     1      -2.565  -3.049  24.309  0.00  0.00    +0.036 A 
ATOM     27  S   UNL     1      -2.518  -2.323  24.698  0.00  0.00    -0.082 S 
ENDBRANCH   2  23
ENDBRANCH   8   6
BRANCH  11  12
ATOM     12  C   UNL     1      -4.085   3.412  24.611  0.00  0.00    +0.115 C 
BRANCH  12  13
ATOM     13  C   UNL     1      -3.595   3.729  25.193  0.00  0.00    +0.008 A 
ATOM     14  C   UNL     1      -3.757   3.756  26.002  0.00  0.00    +0.095 A 
ATOM     15  N   UNL     1      -3.119   4.119  26.378  0.00  0.00    -0.244 NA
ATOM     16  C   UNL     1      -2.563   4.317  25.803  0.00  0.00    +0.081 A 
ATOM     17  C   UNL     1      -2.857   4.076  25.070  0.00  0.00    +0.016 A 
ATOM     18  C   UNL     1      -2.414   4.204  24.386  0.00  0.00    +0.001 A 
ATOM     19  C   UNL     1      -1.677   4.572  24.434  0.00  0.00    +0.000 A 
ATOM     20  C   UNL     1      -1.384   4.812  25.166  0.00  0.00    +0.002 A 
ATOM     21  C   UNL     1      -1.826   4.685  25.851  0.00  0.00    +0.019 A 
ENDBRANCH  12  13
ENDBRANCH  11  12
TORSDOF 4
ENDMDL
MODEL 3
REMARK VINA RESULT:     -11.3      2.034      5.991
REMARK  Name = 
REMARK  4 active torsions:
REMARK  status: ('A' for Active; 'I' for Inactive)
REMARK    1  A    between atoms: C_2  and  C_23
REMARK    2  A    between atoms: C_6  and  C_8
REMARK    3  A    between atoms: C_11  and  C_12
REMARK    4  A    between atoms: C_12  and  C_13
REMARK                            x       y       z     vdW  Elec       q    Type
REMARK                         _______ _______ _______ _____ _____    ______ ____
ROOT
ATOM      8  C   UNL     1      -1.261   0.772  25.359  0.00  0.00    +0.227 A 
ATOM      9  N   UNL     1      -0.701   0.766  25.964  0.00  0.00    -0.112 NA
ATOM     10  N   UNL     1      -0.368   1.520  26.011  0.00  0.00    -0.111 NA
ATOM     11  C   UNL     1      -0.722   1.991  25.435  0.00  0.00    +0.231 A 
ATOM     22  O   UNL     1      -1.275   1.530  25.032  0.00  0.00    -0.423 OA
ENDROOT
BRANCH   8   6
ATOM      1  O   UNL     1      -4.046  -0.743  25.600  0.00  0.00    -0.269 OA
ATOM      2  C   UNL     1      -3.486  -1.075  25.094  0.00  0.00    +0.255 C 
ATOM      3  N   UNL     1      -2.750  -0.716  25.001  0.00  0.00    -0.275 N 
ATOM      4  C   UNL     1      -2.137  -0.983  24.516  0.00  0.00    +0.094 C 
ATOM      5  C   UNL     1      -1.505  -0.458  24.592  0.00  0.00    +0.033 C 
ATOM      6  C   UNL     1      -1.727   0.134  25.123  0.00  0.00    +0.100 C 
ATOM      7  C   UNL     1      -2.496  -0.026  25.375  0.00  0.00    +0.103 C 
BRANCH   2  23
ATOM     23  C   UNL     1      -3.662  -1.767  24.681  0.00  0.00    +0.083 A 
ATOM     24  C   UNL     1      -3.422  -2.530  24.885  0.00  0.00    +0.012 A 
ATOM     25  C   UNL     1      -3.722  -3.051  24.321  0.00  0.00    +0.008 A 
ATOM     26  C   UNL     1      -4.148  -2.612  23.768  0.00  0.00    +0.036 A 
ATOM     27  S   UNL     1      -4.111  -1.818  23.990  0.00  0.00    -0.082 S 
ENDBRANCH   2  23
ENDBRANCH   8   6
BRANCH  11  12
ATOM     12  C   UNL     1      -0.554   2.785  25.288  0.00  0.00    +0.115 C 
BRANCH  12  13
ATOM     13  C   UNL     1      -1.117   3.364  25.456  0.00  0.00    +0.008 A 
ATOM     14  C   UNL     1      -1.794   3.262  25.916  0.00  0.00    +0.095 A 
ATOM     15  N   UNL     1      -2.197   3.981  25.939  0.00  0.00    -0.244 NA
ATOM     16  C   UNL     1      -1.770   4.527  25.493  0.00  0.00    +0.081 A 
ATOM     17  C   UNL     1      -1.102   4.146  25.195  0.00  0.00    +0.016 A 
ATOM     18  C   UNL     1      -0.566   4.561  24.724  0.00  0.00    +0.001 A 
ATOM     19  C   UNL     1      -0.698   5.356  24.551  0.00  0.00    +0.000 A 
ATOM     20  C   UNL     1      -1.366   5.737  24.850  0.00  0.00    +0.002 A 
ATOM     21  C   UNL     1      -1.902   5.324  25.321  0.00  0.00    +0.019 A 
ENDBRANCH  12  13
ENDBRANCH  11  12
TORSDOF 4
ENDMDL
MODEL 4
REMARK VINA RESULT:     -10.5      1.686      2.326
REMARK  Name = 
REMARK  4 active torsions:
REMARK  status: ('A' for Active; 'I' for Inactive)
REMARK    1  A    between atoms: C_2  and  C_23
REMARK    2  A    between atoms: C_6  and  C_8
REMARK    3  A    between atoms: C_11  and  C_12
REMARK    4  A    between atoms: C_12  and  C_13
REMARK                            x       y       z     vdW  Elec       q    Type
REMARK                         _______ _______ _______ _____ _____    ______ ____
ROOT
ATOM      8  C   UNL     1      -1.136   0.611  25.424  0.00  0.00    +0.227 A 
ATOM      9  N   UNL     1      -0.483   0.120  25.310  0.00  0.00    -0.112 NA
ATOM     10  N   UNL     1      -0.729  -0.660  25.417  0.00  0.00    -0.111 NA
ATOM     11  C   UNL     1      -1.534  -0.652  25.598  0.00  0.00    +0.231 A 
ATOM     22  O   UNL     1      -1.786   0.134  25.602  0.00  0.00    -0.423 OA
ENDROOT
BRANCH   8   6
ATOM      1  O   UNL     1      -2.437   3.201  24.117  0.00  0.00    -0.269 OA
ATOM      2  C   UNL     1      -1.822   3.325  24.652  0.00  0.00    +0.255 C 
ATOM      3  N   UNL     1      -1.455   2.682  25.015  0.00  0.00    -0.275 N 
ATOM      4  C   UNL     1      -0.836   2.720  25.560  0.00  0.00    +0.094 C 
ATOM      5  C   UNL     1      -0.642   1.949  25.779  0.00  0.00    +0.033 C 
ATOM      6  C   UNL     1      -1.140   1.434  25.370  0.00  0.00    +0.100 C 
ATOM      7  C   UNL     1      -1.643   1.887  24.899  0.00  0.00    +0.103 C 
BRANCH   2  23
ATOM     23  C   UNL     1      -1.573   4.093  24.824  0.00  0.00    +0.083 A 
ATOM     24  C   UNL     1      -0.861   4.437  24.590  0.00  0.00    +0.012 A 
ATOM     25  C   UNL     1      -0.843   5.208  24.882  0.00  0.00    +0.008 A 
ATOM     26  C   UNL     1      -1.543   5.341  25.296  0.00  0.00    +0.036 A 
ATOM     27  S   UNL     1      -1.995   4.652  25.261  0.00  0.00    -0.082 S 
ENDBRANCH   2  23
ENDBRANCH   8   6
BRANCH  11  12
ATOM     12  C   UNL     1      -2.004  -1.313  25.748  0.00  0.00    +0.115 C 
BRANCH  12  13
ATOM     13  C   UNL     1      -2.180  -1.840  25.138  0.00  0.00    +0.008 A 
ATOM     14  C   UNL     1      -1.640  -2.328  24.748  0.00  0.00    +0.095 A 
ATOM     15  N   UNL     1      -2.053  -2.761  24.181  0.00  0.00    -0.244 NA
ATOM     16  C   UNL     1      -2.847  -2.542  24.220  0.00  0.00    +0.081 A 
ATOM     17  C   UNL     1      -2.925  -1.973  24.812  0.00  0.00    +0.016 A 
ATOM     18  C   UNL     1      -3.666  -1.649  24.977  0.00  0.00    +0.001 A 
ATOM     19  C   UNL     1      -4.328  -1.893  24.550  0.00  0.00    +0.000 A 
ATOM     20  C   UNL     1      -4.250  -2.463  23.959  0.00  0.00    +0.002 A 
ATOM     21  C   UNL     1      -3.510  -2.787  23.793  0.00  0.00    +0.019 A 
ENDBRANCH  12  13
ENDBRANCH  11  12
TORSDOF 4
ENDMDL
