MODEL 1
REMARK VINA RESULT:     -13.3      0.000      0.000
REMARK  Name = 
REMARK  5 active torsions:
REMARK  status: ('A' for Active; 'I' for Inactive)
REMARK    1  A    between atoms: C_7  and  N_10
REMARK    2  A    between atoms: C_17  and  N_18
REMARK    3  A    between atoms: C_19  and  C_21
REMARK    4  A    between atoms: C_21  and  O_22
REMARK    5  A    between atoms: O_22  and  C_23
REMARK                            x       y       z     vdW  Elec       q    Type
REMARK                         _______ _______ _______ _____ _____    ______ ____
ROOT
ATOM     10  N   UNL     1      -4.660   0.316  24.846  0.00  0.00    -0.273 NA
ATOM     11  C   UNL     1      -5.225   0.926  24.931  0.00  0.00    +0.074 C 
ATOM     12  C   UNL     1      -4.644   1.712  24.787  0.00  0.00    +0.039 C 
ATOM     13  C   UNL     1      -4.308   2.448  24.693  0.00  0.00    +0.011 C 
ATOM     14  C   UNL     1      -4.101   1.777  24.679  0.00  0.00    +0.056 C 
ATOM     15  C   UNL     1      -4.676   1.028  24.821  0.00  0.00    +0.078 C 
ATOM     16  C   UNL     1      -3.354   1.256  24.556  0.00  0.00    +0.056 A 
ATOM     17  C   UNL     1      -2.547   1.320  24.397  0.00  0.00    +0.085 A 
ATOM     29  C   UNL     1      -2.084   0.640  24.334  0.00  0.00    +0.023 A 
ATOM     30  C   UNL     1      -2.428  -0.104  24.431  0.00  0.00    +0.062 A 
ATOM     31  C   UNL     1      -3.235  -0.168  24.589  0.00  0.00    +0.261 A 
ATOM     32  O   UNL     1      -3.082  -0.978  24.592  0.00  0.00    -0.267 OA
ATOM     33  N   UNL     1      -3.698   0.512  24.652  0.00  0.00    -0.298 N 
ATOM     34  C   UNL     1      -3.869   1.159  24.659  0.00  0.00    +0.110 C 
ENDROOT
BRANCH  10   7
ATOM      1  C   UNL     1      -3.444  -3.168  24.024  0.00  0.00    +0.095 C 
ATOM      2  C   UNL     1      -3.427  -2.743  24.730  0.00  0.00    +0.226 C 
ATOM      3  O   UNL     1      -3.102  -3.083  25.408  0.00  0.00    -0.275 OA
ATOM      4  N   UNL     1      -3.735  -1.978  24.760  0.00  0.00    -0.279 N 
ATOM      5  C   UNL     1      -3.718  -1.553  25.466  0.00  0.00    +0.095 C 
ATOM      6  C   UNL     1      -4.026  -0.789  25.495  0.00  0.00    +0.038 C 
ATOM      7  C   UNL     1      -4.352  -0.449  24.817  0.00  0.00    +0.061 C 
ATOM      8  C   UNL     1      -4.369  -0.874  24.111  0.00  0.00    +0.038 C 
ATOM      9  C   UNL     1      -4.061  -1.639  24.081  0.00  0.00    +0.095 C 
ENDBRANCH  10   7
BRANCH  17  18
ATOM     18  N   UNL     1      -2.204   2.064  24.301  0.00  0.00    -0.175 NA
ATOM     19  C   UNL     1      -1.412   2.182  24.502  0.00  0.00    +0.290 C 
ATOM     20  O   UNL     1      -0.965   1.556  24.799  0.00  0.00    -0.269 OA
BRANCH  19  21
ATOM     21  C   UNL     1      -1.069   2.926  24.405  0.00  0.00    +0.291 C 
BRANCH  21  22
ATOM     22  O   UNL     1      -0.933   3.406  25.062  0.00  0.00    -0.466 OA
BRANCH  22  23
ATOM     23  C   UNL     1      -1.014   4.224  24.999  0.00  0.00    +0.139 A 
ATOM     24  C   UNL     1      -0.437   4.667  24.608  0.00  0.00    +0.037 A 
ATOM     25  C   UNL     1      -0.518   5.485  24.545  0.00  0.00    +0.003 A 
ATOM     26  C   UNL     1      -1.176   5.862  24.873  0.00  0.00    +0.000 A 
ATOM     27  C   UNL     1      -1.752   5.418  25.265  0.00  0.00    +0.003 A 
ATOM     28  C   UNL     1      -1.671   4.601  25.327  0.00  0.00    +0.037 A 
ENDBRANCH  22  23
ENDBRANCH  21  22
ENDBRANCH  19  21
ENDBRANCH  17  18
TORSDOF 5
ENDMDL
MODEL 2
REMARK VINA RESULT:     -13.1      1.295      5.349
REMARK  Name = 
REMARK  5 active torsions:
REMARK  status: ('A' for Active; 'I' for Inactive)
REMARK    1  A    between atoms: C_7  and  N_10
REMARK    2  A    between atoms: C_17  and  N_18
REMARK    3  A    between atoms: C_19  and  C_21
REMARK    4  A    between atoms: C_21  and  O_22
REMARK    5  A    between atoms: O_22  and  C_23
REMARK                            x       y       z     vdW  Elec       q    Type
REMARK                         _______ _______ _______ _____ _____    ______ ____
ROOT
ATOM     10  N   UNL     1      -4.437   3.648  25.464  0.00  0.00    -0.273 NA
ATOM     11  C   UNL     1      -5.248   3.612  25.661  0.00  0.00    +0.074 C 
ATOM     12  C   UNL     1      -5.440   2.679  25.398  0.00  0.00    +0.039 C 
ATOM     13  C   UNL     1      -5.757   1.947  25.233  0.00  0.00    +0.011 C 
ATOM     14  C   UNL     1      -5.134   2.267  25.181  0.00  0.00    +0.056 C 
ATOM     15  C   UNL     1      -4.964   3.170  25.440  0.00  0.00    +0.078 C 
ATOM     16  C   UNL     1      -4.269   2.119  24.909  0.00  0.00    +0.056 A 
ATOM     17  C   UNL     1      -3.790   1.530  24.588  0.00  0.00    +0.085 A 
ATOM     29  C   UNL     1      -2.994   1.683  24.435  0.00  0.00    +0.023 A 
ATOM     30  C   UNL     1      -2.677   2.426  24.602  0.00  0.00    +0.062 A 
ATOM     31  C   UNL     1      -3.156   3.016  24.923  0.00  0.00    +0.261 A 
ATOM     32  O   UNL     1      -2.467   3.469  24.898  0.00  0.00    -0.267 OA
ATOM     33  N   UNL     1      -3.952   2.863  25.076  0.00  0.00    -0.298 N 
ATOM     34  C   UNL     1      -4.534   2.535  25.116  0.00  0.00    +0.110 C 
ENDROOT
BRANCH  10   7
ATOM      1  C   UNL     1      -1.205   5.307  24.415  0.00  0.00    +0.095 C 
ATOM      2  C   UNL     1      -1.409   4.914  25.110  0.00  0.00    +0.226 C 
ATOM      3  O   UNL     1      -0.856   4.837  25.718  0.00  0.00    -0.275 OA
ATOM      4  N   UNL     1      -2.166   4.597  25.199  0.00  0.00    -0.279 N 
ATOM      5  C   UNL     1      -2.370   4.204  25.894  0.00  0.00    +0.095 C 
ATOM      6  C   UNL     1      -3.126   3.887  25.983  0.00  0.00    +0.038 C 
ATOM      7  C   UNL     1      -3.679   3.965  25.376  0.00  0.00    +0.061 C 
ATOM      8  C   UNL     1      -3.476   4.358  24.680  0.00  0.00    +0.038 C 
ATOM      9  C   UNL     1      -2.719   4.675  24.592  0.00  0.00    +0.095 C 
ENDBRANCH  10   7
BRANCH  17  18
ATOM     18  N   UNL     1      -4.107   0.786  24.420  0.00  0.00    -0.175 NA
ATOM     19  C   UNL     1      -3.613   0.174  24.171  0.00  0.00    +0.290 C 
ATOM     20  O   UNL     1      -2.803   0.306  24.088  0.00  0.00    -0.269 OA
BRANCH  19  21
ATOM     21  C   UNL     1      -3.930  -0.569  24.003  0.00  0.00    +0.291 C 
BRANCH  21  22
ATOM     22  O   UNL     1      -4.048  -1.114  24.611  0.00  0.00    -0.466 OA
BRANCH  22  23
ATOM     23  C   UNL     1      -3.917  -1.917  24.476  0.00  0.00    +0.139 A 
ATOM     24  C   UNL     1      -3.421  -2.344  24.979  0.00  0.00    +0.037 A 
ATOM     25  C   UNL     1      -3.290  -3.148  24.844  0.00  0.00    +0.003 A 
ATOM     26  C   UNL     1      -3.655  -3.524  24.206  0.00  0.00    +0.000 A 
ATOM     27  C   UNL     1      -4.151  -3.096  23.704  0.00  0.00    +0.003 A 
ATOM     28  C   UNL     1      -4.281  -2.293  23.839  0.00  0.00    +0.037 A 
ENDBRANCH  22  23
ENDBRANCH  21  22
ENDBRANCH  19  21
ENDBRANCH  17  18
TORSDOF 5
ENDMDL
MODEL 3
REMARK VINA RESULT:     -12.4      1.315      5.639
REMARK  Name = 
REMARK  5 active torsions:
REMARK  status: ('A' for Active; 'I' for Inactive)
REMARK    1  A    between atoms: C_7  and  N_10
REMARK    2  A    between atoms: C_17  and  N_18
REMARK    3  A    between atoms: C_19  and  C_21
REMARK    4  A    between atoms: C_21  and  O_22
REMARK    5  A    between atoms: O_22  and  C_23
REMARK                            x       y       z     vdW  Elec       q    Type
REMARK                         _______ _______ _______ _____ _____    ______ ____
ROOT
ATOM     10  N   UNL     1      -0.620   2.331  25.744  0.00  0.00    -0.273 NA
ATOM     11  C   UNL     1      -0.168   1.709  26.071  0.00  0.00    +0.074 C 
ATOM     12  C   UNL     1      -0.663   0.936  25.708  0.00  0.00    +0.039 C 
ATOM     13  C   UNL     1      -0.955   0.206  25.492  0.00  0.00    +0.011 C 
ATOM     14  C   UNL     1      -1.112   0.881  25.381  0.00  0.00    +0.056 C 
ATOM     15  C   UNL     1      -0.623   1.619  25.740  0.00  0.00    +0.078 C 
ATOM     16  C   UNL     1      -1.715   1.419  24.943  0.00  0.00    +0.056 A 
ATOM     17  C   UNL     1      -2.381   1.371  24.458  0.00  0.00    +0.085 A 
ATOM     29  C   UNL     1      -2.748   2.061  24.194  0.00  0.00    +0.023 A 
ATOM     30  C   UNL     1      -2.449   2.798  24.414  0.00  0.00    +0.062 A 
ATOM     31  C   UNL     1      -1.784   2.846  24.899  0.00  0.00    +0.261 A 
ATOM     32  O   UNL     1      -1.893   3.659  24.823  0.00  0.00    -0.267 OA
ATOM     33  N   UNL     1      -1.417   2.156  25.164  0.00  0.00    -0.298 N 
ATOM     34  C   UNL     1      -1.289   1.505  25.254  0.00  0.00    +0.110 C 
ENDROOT
BRANCH  10   7
ATOM      1  C   UNL     1      -1.219   5.831  24.444  0.00  0.00    +0.095 C 
ATOM      2  C   UNL     1      -1.571   5.417  25.064  0.00  0.00    +0.226 C 
ATOM      3  O   UNL     1      -2.162   5.776  25.515  0.00  0.00    -0.275 OA
ATOM      4  N   UNL     1      -1.334   4.646  25.235  0.00  0.00    -0.279 N 
ATOM      5  C   UNL     1      -1.686   4.233  25.855  0.00  0.00    +0.095 C 
ATOM      6  C   UNL     1      -1.449   3.462  26.025  0.00  0.00    +0.038 C 
ATOM      7  C   UNL     1      -0.858   3.103  25.574  0.00  0.00    +0.061 C 
ATOM      8  C   UNL     1      -0.505   3.516  24.954  0.00  0.00    +0.038 C 
ATOM      9  C   UNL     1      -0.743   4.288  24.784  0.00  0.00    +0.095 C 
ENDBRANCH  10   7
BRANCH  17  18
ATOM     18  N   UNL     1      -2.679   0.634  24.238  0.00  0.00    -0.175 NA
ATOM     19  C   UNL     1      -3.489   0.537  24.119  0.00  0.00    +0.290 C 
ATOM     20  O   UNL     1      -4.001   1.176  24.219  0.00  0.00    -0.269 OA
BRANCH  19  21
ATOM     21  C   UNL     1      -3.788  -0.200  23.898  0.00  0.00    +0.291 C 
BRANCH  21  22
ATOM     22  O   UNL     1      -4.113  -0.701  24.468  0.00  0.00    -0.466 OA
BRANCH  22  23
ATOM     23  C   UNL     1      -4.006  -1.517  24.409  0.00  0.00    +0.139 A 
ATOM     24  C   UNL     1      -3.613  -1.926  25.009  0.00  0.00    +0.037 A 
ATOM     25  C   UNL     1      -3.506  -2.742  24.950  0.00  0.00    +0.003 A 
ATOM     26  C   UNL     1      -3.792  -3.149  24.291  0.00  0.00    +0.000 A 
ATOM     27  C   UNL     1      -4.185  -2.739  23.692  0.00  0.00    +0.003 A 
ATOM     28  C   UNL     1      -4.292  -1.924  23.751  0.00  0.00    +0.037 A 
ENDBRANCH  22  23
ENDBRANCH  21  22
ENDBRANCH  19  21
ENDBRANCH  17  18
TORSDOF 5
ENDMDL
MODEL 4
REMARK VINA RESULT:     -11.9      2.491      4.399
REMARK  Name = 
REMARK  5 active torsions:
REMARK  status: ('A' for Active; 'I' for Inactive)
REMARK    1  A    between atoms: C_7  and  N_10
REMARK    2  A    between atoms: C_17  and  N_18
REMARK    3  A    between atoms: C_19  and  C_21
REMARK    4  A    between atoms: C_21  and  O_22
REMARK    5  A    between atoms: O_22  and  C_23
REMARK                            x       y       z     vdW  Elec       q    Type
REMARK                         _______ _______ _______ _____ _____    ______ ____
ROOT
ATOM     10  N   UNL     1      -2.727   4.169  25.254  0.00  0.00    -0.273 NA
ATOM     11  C   UNL     1      -2.215   4.823  25.347  0.00  0.00    +0.074 C 
ATOM     12  C   UNL     1      -1.358   4.398  25.099  0.00  0.00    +0.039 C 
ATOM     13  C   UNL     1      -0.587   4.202  24.925  0.00  0.00    +0.011 C 
ATOM     14  C   UNL     1      -1.212   3.884  24.939  0.00  0.00    +0.056 C 
ATOM     15  C   UNL     1      -2.033   4.309  25.181  0.00  0.00    +0.078 C 
ATOM     16  C   UNL     1      -1.611   3.070  24.786  0.00  0.00    +0.056 A 
ATOM     17  C   UNL     1      -1.427   2.301  24.552  0.00  0.00    +0.085 A 
ATOM     29  C   UNL     1      -2.023   1.734  24.495  0.00  0.00    +0.023 A 
ATOM     30  C   UNL     1      -2.803   1.935  24.672  0.00  0.00    +0.062 A 
ATOM     31  C   UNL     1      -2.987   2.705  24.906  0.00  0.00    +0.261 A 
ATOM     32  O   UNL     1      -3.758   2.414  24.951  0.00  0.00    -0.267 OA
ATOM     33  N   UNL     1      -2.391   3.272  24.963  0.00  0.00    -0.298 N 
ATOM     34  C   UNL     1      -1.783   3.552  24.941  0.00  0.00    +0.110 C 
ENDROOT
BRANCH  10   7
ATOM      1  C   UNL     1      -5.804   2.078  25.930  0.00  0.00    +0.095 C 
ATOM      2  C   UNL     1      -5.538   2.439  25.238  0.00  0.00    +0.226 C 
ATOM      3  O   UNL     1      -5.974   2.368  24.541  0.00  0.00    -0.275 OA
ATOM      4  N   UNL     1      -4.836   2.872  25.242  0.00  0.00    -0.279 N 
ATOM      5  C   UNL     1      -4.569   3.232  24.550  0.00  0.00    +0.095 C 
ATOM      6  C   UNL     1      -3.867   3.665  24.553  0.00  0.00    +0.038 C 
ATOM      7  C   UNL     1      -3.430   3.736  25.250  0.00  0.00    +0.061 C 
ATOM      8  C   UNL     1      -3.696   3.376  25.943  0.00  0.00    +0.038 C 
ATOM      9  C   UNL     1      -4.399   2.943  25.939  0.00  0.00    +0.095 C 
ENDBRANCH  10   7
BRANCH  17  18
ATOM     18  N   UNL     1      -0.646   2.099  24.375  0.00  0.00    -0.175 NA
ATOM     19  C   UNL     1      -0.467   1.338  24.114  0.00  0.00    +0.290 C 
ATOM     20  O   UNL     1      -1.067   0.778  24.029  0.00  0.00    -0.269 OA
BRANCH  19  21
ATOM     21  C   UNL     1       0.314   1.136  23.937  0.00  0.00    +0.291 C 
BRANCH  21  22
ATOM     22  O   UNL     1       0.474   0.459  23.493  0.00  0.00    -0.466 OA
BRANCH  22  23
ATOM     23  C   UNL     1       1.211   0.366  23.134  0.00  0.00    +0.139 A 
ATOM     24  C   UNL     1       1.866   0.776  23.425  0.00  0.00    +0.037 A 
ATOM     25  C   UNL     1       2.603   0.683  23.066  0.00  0.00    +0.003 A 
ATOM     26  C   UNL     1       2.686   0.181  22.416  0.00  0.00    +0.000 A 
ATOM     27  C   UNL     1       2.030  -0.229  22.126  0.00  0.00    +0.003 A 
ATOM     28  C   UNL     1       1.294  -0.136  22.485  0.00  0.00    +0.037 A 
ENDBRANCH  22  23
ENDBRANCH  21  22
ENDBRANCH  19  21
ENDBRANCH  17  18
TORSDOF 5
ENDMDL
MODEL 5
REMARK VINA RESULT:     -11.5      2.971      3.857
REMARK  Name = 
REMARK  5 active torsions:
REMARK  status: ('A' for Active; 'I' for Inactive)
REMARK    1  A    between atoms: C_7  and  N_10
REMARK    2  A    between atoms: C_17  and  N_18
REMARK    3  A    between atoms: C_19  and  C_21
REMARK    4  A    between atoms: C_21  and  O_22
REMARK    5  A    between atoms: O_22  and  C_23
REMARK                            x       y       z     vdW  Elec       q    Type
REMARK                         _______ _______ _______ _____ _____    ______ ____
ROOT
ATOM     10  N   UNL     1      -2.241   1.035  24.989  0.00  0.00    -0.273 NA
ATOM     11  C   UNL     1      -2.173   1.850  25.159  0.00  0.00    +0.074 C 
ATOM     12  C   UNL     1      -1.250   2.009  24.844  0.00  0.00    +0.039 C 
ATOM     13  C   UNL     1      -0.519   2.299  24.633  0.00  0.00    +0.011 C 
ATOM     14  C   UNL     1      -0.858   1.685  24.615  0.00  0.00    +0.056 C 
ATOM     15  C   UNL     1      -1.751   1.548  24.924  0.00  0.00    +0.078 C 
ATOM     16  C   UNL     1      -0.748   0.808  24.363  0.00  0.00    +0.056 A 
ATOM     17  C   UNL     1      -0.188   0.304  24.027  0.00  0.00    +0.085 A 
ATOM     29  C   UNL     1      -0.371  -0.491  23.906  0.00  0.00    +0.023 A 
ATOM     30  C   UNL     1      -1.113  -0.782  24.120  0.00  0.00    +0.062 A 
ATOM     31  C   UNL     1      -1.672  -0.278  24.455  0.00  0.00    +0.261 A 
ATOM     32  O   UNL     1      -2.144  -0.954  24.473  0.00  0.00    -0.267 OA
ATOM     33  N   UNL     1      -1.490   0.517  24.577  0.00  0.00    -0.298 N 
ATOM     34  C   UNL     1      -1.145   1.091  24.582  0.00  0.00    +0.110 C 
ENDROOT
BRANCH  10   7
ATOM      1  C   UNL     1      -4.040  -2.176  24.122  0.00  0.00    +0.095 C 
ATOM      2  C   UNL     1      -3.604  -1.964  24.789  0.00  0.00    +0.226 C 
ATOM      3  O   UNL     1      -3.509  -2.502  25.408  0.00  0.00    -0.275 OA
ATOM      4  N   UNL     1      -3.263  -1.214  24.840  0.00  0.00    -0.279 N 
ATOM      5  C   UNL     1      -2.828  -1.002  25.507  0.00  0.00    +0.095 C 
ATOM      6  C   UNL     1      -2.487  -0.253  25.557  0.00  0.00    +0.038 C 
ATOM      7  C   UNL     1      -2.582   0.285  24.939  0.00  0.00    +0.061 C 
ATOM      8  C   UNL     1      -3.018   0.074  24.271  0.00  0.00    +0.038 C 
ATOM      9  C   UNL     1      -3.358  -0.676  24.221  0.00  0.00    +0.095 C 
ENDBRANCH  10   7
BRANCH  17  18
ATOM     18  N   UNL     1       0.554   0.595  23.813  0.00  0.00    -0.175 NA
ATOM     19  C   UNL     1       1.031   0.166  23.295  0.00  0.00    +0.290 C 
ATOM     20  O   UNL     1       0.767  -0.554  22.991  0.00  0.00    -0.269 OA
BRANCH  19  21
ATOM     21  C   UNL     1       1.773   0.457  23.081  0.00  0.00    +0.291 C 
BRANCH  21  22
ATOM     22  O   UNL     1       2.350  -0.058  22.793  0.00  0.00    -0.466 OA
BRANCH  22  23
ATOM     23  C   UNL     1       3.149   0.137  22.865  0.00  0.00    +0.139 A 
ATOM     24  C   UNL     1       3.426   0.856  22.568  0.00  0.00    +0.037 A 
ATOM     25  C   UNL     1       4.224   1.051  22.639  0.00  0.00    +0.003 A 
ATOM     26  C   UNL     1       4.746   0.527  23.007  0.00  0.00    +0.000 A 
ATOM     27  C   UNL     1       4.468  -0.191  23.303  0.00  0.00    +0.003 A 
ATOM     28  C   UNL     1       3.670  -0.386  23.232  0.00  0.00    +0.037 A 
ENDBRANCH  22  23
ENDBRANCH  21  22
ENDBRANCH  19  21
ENDBRANCH  17  18
TORSDOF 5
ENDMDL
MODEL 6
REMARK VINA RESULT:     -11.4      1.399      2.389
REMARK  Name = 
REMARK  5 active torsions:
REMARK  status: ('A' for Active; 'I' for Inactive)
REMARK    1  A    between atoms: C_7  and  N_10
REMARK    2  A    between atoms: C_17  and  N_18
REMARK    3  A    between atoms: C_19  and  C_21
REMARK    4  A    between atoms: C_21  and  O_22
REMARK    5  A    between atoms: O_22  and  C_23
REMARK                            x       y       z     vdW  Elec       q    Type
REMARK                         _______ _______ _______ _____ _____    ______ ____
ROOT
ATOM     10  N   UNL     1      -0.738  -0.964  24.338  0.00  0.00    -0.273 NA
ATOM     11  C   UNL     1       0.055  -0.755  24.178  0.00  0.00    +0.074 C 
ATOM     12  C   UNL     1      -0.035   0.229  24.157  0.00  0.00    +0.039 C 
ATOM     13  C   UNL     1       0.057   1.037  24.108  0.00  0.00    +0.011 C 
ATOM     14  C   UNL     1      -0.463   0.581  24.226  0.00  0.00    +0.056 C 
ATOM     15  C   UNL     1      -0.359  -0.368  24.243  0.00  0.00    +0.078 C 
ATOM     16  C   UNL     1      -1.364   0.545  24.400  0.00  0.00    +0.056 A 
ATOM     17  C   UNL     1      -2.016   1.039  24.506  0.00  0.00    +0.085 A 
ATOM     29  C   UNL     1      -2.759   0.714  24.661  0.00  0.00    +0.023 A 
ATOM     30  C   UNL     1      -2.849  -0.105  24.710  0.00  0.00    +0.062 A 
ATOM     31  C   UNL     1      -2.197  -0.599  24.604  0.00  0.00    +0.261 A 
ATOM     32  O   UNL     1      -2.743  -1.203  24.733  0.00  0.00    -0.267 OA
ATOM     33  N   UNL     1      -1.455  -0.274  24.449  0.00  0.00    -0.298 N 
ATOM     34  C   UNL     1      -0.977   0.182  24.340  0.00  0.00    +0.110 C 
ENDROOT
BRANCH  10   7
ATOM      1  C   UNL     1      -3.815  -3.161  24.288  0.00  0.00    +0.095 C 
ATOM      2  C   UNL     1      -3.355  -2.890  24.916  0.00  0.00    +0.226 C 
ATOM      3  O   UNL     1      -3.550  -3.100  25.690  0.00  0.00    -0.275 OA
ATOM      4  N   UNL     1      -2.701  -2.408  24.772  0.00  0.00    -0.279 N 
ATOM      5  C   UNL     1      -2.241  -2.137  25.401  0.00  0.00    +0.095 C 
ATOM      6  C   UNL     1      -1.587  -1.656  25.257  0.00  0.00    +0.038 C 
ATOM      7  C   UNL     1      -1.392  -1.446  24.483  0.00  0.00    +0.061 C 
ATOM      8  C   UNL     1      -1.852  -1.717  23.854  0.00  0.00    +0.038 C 
ATOM      9  C   UNL     1      -2.506  -2.198  23.998  0.00  0.00    +0.095 C 
ENDBRANCH  10   7
BRANCH  17  18
ATOM     18  N   UNL     1      -1.926   1.857  24.457  0.00  0.00    -0.175 NA
ATOM     19  C   UNL     1      -2.488   2.355  24.798  0.00  0.00    +0.290 C 
ATOM     20  O   UNL     1      -3.141   2.035  25.188  0.00  0.00    -0.269 OA
BRANCH  19  21
ATOM     21  C   UNL     1      -2.398   3.174  24.749  0.00  0.00    +0.291 C 
BRANCH  21  22
ATOM     22  O   UNL     1      -2.001   3.582  25.346  0.00  0.00    -0.466 OA
BRANCH  22  23
ATOM     23  C   UNL     1      -1.696   4.335  25.199  0.00  0.00    +0.139 A 
ATOM     24  C   UNL     1      -0.909   4.423  24.968  0.00  0.00    +0.037 A 
ATOM     25  C   UNL     1      -0.604   5.176  24.821  0.00  0.00    +0.003 A 
ATOM     26  C   UNL     1      -1.088   5.840  24.906  0.00  0.00    +0.000 A 
ATOM     27  C   UNL     1      -1.875   5.750  25.137  0.00  0.00    +0.003 A 
ATOM     28  C   UNL     1      -2.179   4.998  25.283  0.00  0.00    +0.037 A 
ENDBRANCH  22  23
ENDBRANCH  21  22
ENDBRANCH  19  21
ENDBRANCH  17  18
TORSDOF 5
ENDMDL
MODEL 7
REMARK VINA RESULT:     -11.2      2.457      3.918
REMARK  Name = 
REMARK  5 active torsions:
REMARK  status: ('A' for Active; 'I' for Inactive)
REMARK    1  A    between atoms: C_7  and  N_10
REMARK    2  A    between atoms: C_17  and  N_18
REMARK    3  A    between atoms: C_19  and  C_21
REMARK    4  A    between atoms: C_21  and  O_22
REMARK    5  A    between atoms: O_22  and  C_23
REMARK                            x       y       z     vdW  Elec       q    Type
REMARK                         _______ _______ _______ _____ _____    ______ ____
ROOT
ATOM     10  N   UNL     1      -3.414  -1.371  24.883  0.00  0.00    -0.273 NA
ATOM     11  C   UNL     1      -3.226  -2.184  24.918  0.00  0.00    +0.074 C 
ATOM     12  C   UNL     1      -2.261  -2.140  24.711  0.00  0.00    +0.039 C 
ATOM     13  C   UNL     1      -1.472  -2.273  24.556  0.00  0.00    +0.011 C 
ATOM     14  C   UNL     1      -1.907  -1.724  24.598  0.00  0.00    +0.056 C 
ATOM     15  C   UNL     1      -2.839  -1.783  24.800  0.00  0.00    +0.078 C 
ATOM     16  C   UNL     1      -1.922  -0.809  24.517  0.00  0.00    +0.056 A 
ATOM     17  C   UNL     1      -1.425  -0.172  24.354  0.00  0.00    +0.085 A 
ATOM     29  C   UNL     1      -1.726   0.596  24.347  0.00  0.00    +0.023 A 
ATOM     30  C   UNL     1      -2.526   0.727  24.504  0.00  0.00    +0.062 A 
ATOM     31  C   UNL     1      -3.024   0.090  24.667  0.00  0.00    +0.261 A 
ATOM     32  O   UNL     1      -3.603   0.672  24.736  0.00  0.00    -0.267 OA
ATOM     33  N   UNL     1      -2.722  -0.678  24.674  0.00  0.00    -0.298 N 
ATOM     34  C   UNL     1      -2.286  -1.184  24.628  0.00  0.00    +0.110 C 
ENDROOT
BRANCH  10   7
ATOM      1  C   UNL     1      -5.337   1.771  25.733  0.00  0.00    +0.095 C 
ATOM      2  C   UNL     1      -5.241   1.374  25.017  0.00  0.00    +0.226 C 
ATOM      3  O   UNL     1      -5.602   1.663  24.334  0.00  0.00    -0.275 OA
ATOM      4  N   UNL     1      -4.784   0.688  24.983  0.00  0.00    -0.279 N 
ATOM      5  C   UNL     1      -4.688   0.291  24.267  0.00  0.00    +0.095 C 
ATOM      6  C   UNL     1      -4.231  -0.395  24.233  0.00  0.00    +0.038 C 
ATOM      7  C   UNL     1      -3.871  -0.685  24.917  0.00  0.00    +0.061 C 
ATOM      8  C   UNL     1      -3.966  -0.288  25.634  0.00  0.00    +0.038 C 
ATOM      9  C   UNL     1      -4.423   0.399  25.667  0.00  0.00    +0.095 C 
ENDBRANCH  10   7
BRANCH  17  18
ATOM     18  N   UNL     1      -0.625  -0.302  24.197  0.00  0.00    -0.175 NA
ATOM     19  C   UNL     1      -0.186   0.266  23.791  0.00  0.00    +0.290 C 
ATOM     20  O   UNL     1      -0.547   0.965  23.542  0.00  0.00    -0.269 OA
BRANCH  19  21
ATOM     21  C   UNL     1       0.613   0.135  23.635  0.00  0.00    +0.291 C 
BRANCH  21  22
ATOM     22  O   UNL     1       0.949   0.420  22.937  0.00  0.00    -0.466 OA
BRANCH  22  23
ATOM     23  C   UNL     1       1.767   0.394  22.832  0.00  0.00    +0.139 A 
ATOM     24  C   UNL     1       2.104  -0.193  22.360  0.00  0.00    +0.037 A 
ATOM     25  C   UNL     1       2.922  -0.219  22.255  0.00  0.00    +0.003 A 
ATOM     26  C   UNL     1       3.403   0.343  22.622  0.00  0.00    +0.000 A 
ATOM     27  C   UNL     1       3.065   0.930  23.094  0.00  0.00    +0.003 A 
ATOM     28  C   UNL     1       2.248   0.955  23.199  0.00  0.00    +0.037 A 
ENDBRANCH  22  23
ENDBRANCH  21  22
ENDBRANCH  19  21
ENDBRANCH  17  18
TORSDOF 5
ENDMDL
MODEL 8
REMARK VINA RESULT:     -10.6      2.422      4.244
REMARK  Name = 
REMARK  5 active torsions:
REMARK  status: ('A' for Active; 'I' for Inactive)
REMARK    1  A    between atoms: C_7  and  N_10
REMARK    2  A    between atoms: C_17  and  N_18
REMARK    3  A    between atoms: C_19  and  C_21
REMARK    4  A    between atoms: C_21  and  O_22
REMARK    5  A    between atoms: O_22  and  C_23
REMARK                            x       y       z     vdW  Elec       q    Type
REMARK                         _______ _______ _______ _____ _____    ______ ____
ROOT
ATOM     10  N   UNL     1      -0.560  -0.989  24.435  0.00  0.00    -0.273 NA
ATOM     11  C   UNL     1      -1.003  -1.496  24.929  0.00  0.00    +0.074 C 
ATOM     12  C   UNL     1      -1.703  -0.866  25.228  0.00  0.00    +0.039 C 
ATOM     13  C   UNL     1      -2.338  -0.480  25.562  0.00  0.00    +0.011 C 
ATOM     14  C   UNL     1      -1.810  -0.328  25.125  0.00  0.00    +0.056 C 
ATOM     15  C   UNL     1      -1.141  -0.949  24.845  0.00  0.00    +0.078 C 
ATOM     16  C   UNL     1      -1.456   0.364  24.635  0.00  0.00    +0.056 A 
ATOM     17  C   UNL     1      -1.588   1.160  24.463  0.00  0.00    +0.085 A 
ATOM     29  C   UNL     1      -1.077   1.562  23.956  0.00  0.00    +0.023 A 
ATOM     30  C   UNL     1      -0.435   1.168  23.619  0.00  0.00    +0.062 A 
ATOM     31  C   UNL     1      -0.303   0.372  23.791  0.00  0.00    +0.261 A 
ATOM     32  O   UNL     1       0.345   0.460  23.288  0.00  0.00    -0.267 OA
ATOM     33  N   UNL     1      -0.814  -0.030  24.298  0.00  0.00    -0.298 N 
ATOM     34  C   UNL     1      -1.327  -0.149  24.712  0.00  0.00    +0.110 C 
ENDROOT
BRANCH  10   7
ATOM      1  C   UNL     1       2.526   0.295  22.667  0.00  0.00    +0.095 C 
ATOM      2  C   UNL     1       1.822  -0.015  22.369  0.00  0.00    +0.226 C 
ATOM      3  O   UNL     1       1.713  -0.080  21.553  0.00  0.00    -0.275 OA
ATOM      4  N   UNL     1       1.226  -0.258  22.885  0.00  0.00    -0.279 N 
ATOM      5  C   UNL     1       0.522  -0.567  22.587  0.00  0.00    +0.095 C 
ATOM      6  C   UNL     1      -0.073  -0.811  23.102  0.00  0.00    +0.038 C 
ATOM      7  C   UNL     1       0.036  -0.745  23.918  0.00  0.00    +0.061 C 
ATOM      8  C   UNL     1       0.740  -0.436  24.217  0.00  0.00    +0.038 C 
ATOM      9  C   UNL     1       1.335  -0.193  23.700  0.00  0.00    +0.095 C 
ENDBRANCH  10   7
BRANCH  17  18
ATOM     18  N   UNL     1      -2.230   1.554  24.800  0.00  0.00    -0.175 NA
ATOM     19  C   UNL     1      -2.542   2.223  24.432  0.00  0.00    +0.290 C 
ATOM     20  O   UNL     1      -2.211   2.498  23.728  0.00  0.00    -0.269 OA
BRANCH  19  21
ATOM     21  C   UNL     1      -3.184   2.617  24.769  0.00  0.00    +0.291 C 
BRANCH  21  22
ATOM     22  O   UNL     1      -3.916   2.612  24.389  0.00  0.00    -0.466 OA
BRANCH  22  23
ATOM     23  C   UNL     1      -4.610   2.693  24.828  0.00  0.00    +0.139 A 
ATOM     24  C   UNL     1      -4.768   3.401  25.222  0.00  0.00    +0.037 A 
ATOM     25  C   UNL     1      -5.461   3.482  25.662  0.00  0.00    +0.003 A 
ATOM     26  C   UNL     1      -5.997   2.855  25.707  0.00  0.00    +0.000 A 
ATOM     27  C   UNL     1      -5.838   2.148  25.312  0.00  0.00    +0.003 A 
ATOM     28  C   UNL     1      -5.145   2.067  24.873  0.00  0.00    +0.037 A 
ENDBRANCH  22  23
ENDBRANCH  21  22
ENDBRANCH  19  21
ENDBRANCH  17  18
TORSDOF 5
ENDMDL
