MODEL 1
REMARK VINA RESULT:      -9.2      0.000      0.000
REMARK  Name = 
REMARK  7 active torsions:
REMARK  status: ('A' for Active; 'I' for Inactive)
REMARK    1  A    between atoms: C_3  and  C_4
REMARK    2  A    between atoms: C_4  and  N_5
REMARK    3  A    between atoms: C_6  and  C_8
REMARK    4  A    between atoms: C_13  and  N_14
REMARK    5  A    between atoms: N_14  and  C_15
REMARK    6  A    between atoms: C_15  and  C_16
REMARK    7  A    between atoms: C_19  and  C_22
REMARK                            x       y       z     vdW  Elec       q    Type
REMARK                         _______ _______ _______ _____ _____    ______ ____
ROOT
ATOM      1  O   UNL     1      -3.562   1.969  25.668  0.00  0.00    -0.219 OA
ATOM      2  C   UNL     1      -3.511   2.139  24.862  0.00  0.00    +0.199 C 
ATOM      3  C   UNL     1      -3.302   2.867  24.533  0.00  0.00    +0.169 C 
ATOM     11  O   UNL     1      -3.322   2.790  23.712  0.00  0.00    -0.350 OA
ATOM     12  C   UNL     1      -3.543   2.015  23.534  0.00  0.00    +0.162 C 
ATOM     13  C   UNL     1      -3.660   1.614  24.244  0.00  0.00    +0.135 C 
ENDROOT
BRANCH   3   4
ATOM      4  C   UNL     1      -3.108   3.551  24.952  0.00  0.00    +0.147 C 
BRANCH   4   5
ATOM      5  N   UNL     1      -2.419   3.965  24.766  0.00  0.00    -0.203 NA
ATOM      6  C   UNL     1      -2.157   4.572  25.260  0.00  0.00    +0.241 C 
ATOM      7  O   UNL     1      -2.584   4.763  25.940  0.00  0.00    -0.273 OA
BRANCH   6   8
ATOM      8  C   UNL     1      -1.468   4.987  25.075  0.00  0.00    +0.078 C 
ATOM      9  C   UNL     1      -0.658   4.993  24.920  0.00  0.00    +0.010 C 
ATOM     10  C   UNL     1      -1.086   5.698  24.909  0.00  0.00    +0.010 C 
ENDBRANCH   6   8
ENDBRANCH   4   5
ENDBRANCH   3   4
BRANCH  13  14
ATOM     14  N   UNL     1      -3.886   0.824  24.325  0.00  0.00    -0.209 NA
BRANCH  14  15
ATOM     15  C   UNL     1      -3.604   0.259  23.793  0.00  0.00    +0.115 C 
BRANCH  15  16
ATOM     16  C   UNL     1      -3.609  -0.540  24.000  0.00  0.00    -0.005 A 
ATOM     17  C   UNL     1      -2.933  -0.885  24.325  0.00  0.00    -0.003 A 
ATOM     18  C   UNL     1      -2.938  -1.683  24.532  0.00  0.00    +0.006 A 
ATOM     19  C   UNL     1      -3.617  -2.136  24.414  0.00  0.00    +0.080 A 
ATOM     20  C   UNL     1      -4.292  -1.791  24.090  0.00  0.00    +0.006 A 
ATOM     21  C   UNL     1      -4.288  -0.992  23.882  0.00  0.00    -0.003 A 
BRANCH  19  22
ATOM     22  C   UNL     1      -3.621  -2.935  24.622  0.00  0.00    +0.388 C 
ATOM     23  O   UNL     1      -3.492  -3.159  25.406  0.00  0.00    -0.241 OA
ATOM     24  O   UNL     1      -3.753  -3.511  24.045  0.00  0.00    -0.241 OA
ENDBRANCH  19  22
ENDBRANCH  15  16
ENDBRANCH  14  15
ENDBRANCH  13  14
TORSDOF 7
ENDMDL
MODEL 2
REMARK VINA RESULT:      -9.1      1.226      5.926
REMARK  Name = 
REMARK  7 active torsions:
REMARK  status: ('A' for Active; 'I' for Inactive)
REMARK    1  A    between atoms: C_3  and  C_4
REMARK    2  A    between atoms: C_4  and  N_5
REMARK    3  A    between atoms: C_6  and  C_8
REMARK    4  A    between atoms: C_13  and  N_14
REMARK    5  A    between atoms: N_14  and  C_15
REMARK    6  A    between atoms: C_15  and  C_16
REMARK    7  A    between atoms: C_19  and  C_22
REMARK                            x       y       z     vdW  Elec       q    Type
REMARK                         _______ _______ _______ _____ _____    ______ ____
ROOT
ATOM      1  O   UNL     1      -3.306   0.869  23.528  0.00  0.00    -0.219 OA
ATOM      2  C   UNL     1      -3.795   0.883  24.192  0.00  0.00    +0.199 C 
ATOM      3  C   UNL     1      -4.262   0.259  24.465  0.00  0.00    +0.169 C 
ATOM     11  O   UNL     1      -4.659   0.514  25.141  0.00  0.00    -0.350 OA
ATOM     12  C   UNL     1      -4.438   1.296  25.286  0.00  0.00    +0.162 C 
ATOM     13  C   UNL     1      -3.905   1.524  24.700  0.00  0.00    +0.135 C 
ENDROOT
BRANCH   3   4
ATOM      4  C   UNL     1      -4.320  -0.489  24.121  0.00  0.00    +0.147 C 
BRANCH   4   5
ATOM      5  N   UNL     1      -3.960  -1.137  24.482  0.00  0.00    -0.203 NA
ATOM      6  C   UNL     1      -4.022  -1.886  24.142  0.00  0.00    +0.241 C 
ATOM      7  O   UNL     1      -4.445  -1.986  23.440  0.00  0.00    -0.273 OA
BRANCH   6   8
ATOM      8  C   UNL     1      -3.663  -2.535  24.503  0.00  0.00    +0.078 C 
ATOM      9  C   UNL     1      -3.426  -3.325  24.480  0.00  0.00    +0.010 C 
ATOM     10  C   UNL     1      -3.276  -2.869  25.150  0.00  0.00    +0.010 C 
ENDBRANCH   6   8
ENDBRANCH   4   5
ENDBRANCH   3   4
BRANCH  13  14
ATOM     14  N   UNL     1      -3.544   2.262  24.633  0.00  0.00    -0.209 NA
BRANCH  14  15
ATOM     15  C   UNL     1      -3.276   2.653  25.309  0.00  0.00    +0.115 C 
BRANCH  15  16
ATOM     16  C   UNL     1      -2.756   3.290  25.238  0.00  0.00    -0.005 A 
ATOM     17  C   UNL     1      -1.953   3.184  25.396  0.00  0.00    -0.003 A 
ATOM     18  C   UNL     1      -1.432   3.821  25.325  0.00  0.00    +0.006 A 
ATOM     19  C   UNL     1      -1.715   4.561  25.096  0.00  0.00    +0.080 A 
ATOM     20  C   UNL     1      -2.517   4.666  24.939  0.00  0.00    +0.006 A 
ATOM     21  C   UNL     1      -3.039   4.030  25.010  0.00  0.00    -0.003 A 
BRANCH  19  22
ATOM     22  C   UNL     1      -1.194   5.197  25.026  0.00  0.00    +0.388 C 
ATOM     23  O   UNL     1      -0.400   5.062  24.844  0.00  0.00    -0.241 OA
ATOM     24  O   UNL     1      -1.466   5.969  25.137  0.00  0.00    -0.241 OA
ENDBRANCH  19  22
ENDBRANCH  15  16
ENDBRANCH  14  15
ENDBRANCH  13  14
TORSDOF 7
ENDMDL
MODEL 3
REMARK VINA RESULT:      -8.9      1.858      2.149
REMARK  Name = 
REMARK  7 active torsions:
REMARK  status: ('A' for Active; 'I' for Inactive)
REMARK    1  A    between atoms: C_3  and  C_4
REMARK    2  A    between atoms: C_4  and  N_5
REMARK    3  A    between atoms: C_6  and  C_8
REMARK    4  A    between atoms: C_13  and  N_14
REMARK    5  A    between atoms: N_14  and  C_15
REMARK    6  A    between atoms: C_15  and  C_16
REMARK    7  A    between atoms: C_19  and  C_22
REMARK                            x       y       z     vdW  Elec       q    Type
REMARK                         _______ _______ _______ _____ _____    ______ ____
ROOT
ATOM      1  O   UNL     1      -1.147   1.375  23.708  0.00  0.00    -0.219 OA
ATOM      2  C   UNL     1      -0.960   1.345  24.511  0.00  0.00    +0.199 C 
ATOM      3  C   UNL     1      -0.645   1.963  24.959  0.00  0.00    +0.169 C 
ATOM     11  O   UNL     1      -0.546   1.692  25.731  0.00  0.00    -0.350 OA
ATOM     12  C   UNL     1      -0.800   0.908  25.761  0.00  0.00    +0.162 C 
ATOM     13  C   UNL     1      -1.056   0.694  25.008  0.00  0.00    +0.135 C 
ENDROOT
BRANCH   3   4
ATOM      4  C   UNL     1      -0.461   2.718  24.682  0.00  0.00    +0.147 C 
BRANCH   4   5
ATOM      5  N   UNL     1      -0.887   3.371  24.951  0.00  0.00    -0.203 NA
ATOM      6  C   UNL     1      -0.709   4.125  24.668  0.00  0.00    +0.241 C 
ATOM      7  O   UNL     1      -0.104   4.226  24.116  0.00  0.00    -0.273 OA
BRANCH   6   8
ATOM      8  C   UNL     1      -1.136   4.778  24.937  0.00  0.00    +0.078 C 
ATOM      9  C   UNL     1      -1.785   5.090  25.339  0.00  0.00    +0.010 C 
ATOM     10  C   UNL     1      -1.226   5.595  25.002  0.00  0.00    +0.010 C 
ENDBRANCH   6   8
ENDBRANCH   4   5
ENDBRANCH   3   4
BRANCH  13  14
ATOM     14  N   UNL     1      -1.356  -0.043  24.787  0.00  0.00    -0.209 NA
BRANCH  14  15
ATOM     15  C   UNL     1      -1.781  -0.494  25.332  0.00  0.00    +0.115 C 
BRANCH  15  16
ATOM     16  C   UNL     1      -2.296  -1.082  25.067  0.00  0.00    -0.005 A 
ATOM     17  C   UNL     1      -1.996  -1.756  24.697  0.00  0.00    -0.003 A 
ATOM     18  C   UNL     1      -2.511  -2.343  24.432  0.00  0.00    +0.006 A 
ATOM     19  C   UNL     1      -3.325  -2.257  24.537  0.00  0.00    +0.080 A 
ATOM     20  C   UNL     1      -3.624  -1.584  24.907  0.00  0.00    +0.006 A 
ATOM     21  C   UNL     1      -3.110  -0.996  25.172  0.00  0.00    -0.003 A 
BRANCH  19  22
ATOM     22  C   UNL     1      -3.839  -2.846  24.272  0.00  0.00    +0.388 C 
ATOM     23  O   UNL     1      -3.746  -3.623  24.532  0.00  0.00    -0.241 OA
ATOM     24  O   UNL     1      -4.447  -2.656  23.745  0.00  0.00    -0.241 OA
ENDBRANCH  19  22
ENDBRANCH  15  16
ENDBRANCH  14  15
ENDBRANCH  13  14
TORSDOF 7
ENDMDL
MODEL 4
REMARK VINA RESULT:      -8.9      2.029      6.264
REMARK  Name = 
REMARK  7 active torsions:
REMARK  status: ('A' for Active; 'I' for Inactive)
REMARK    1  A    between atoms: C_3  and  C_4
REMARK    2  A    between atoms: C_4  and  N_5
REMARK    3  A    between atoms: C_6  and  C_8
REMARK    4  A    between atoms: C_13  and  N_14
REMARK    5  A    between atoms: N_14  and  C_15
REMARK    6  A    between atoms: C_15  and  C_16
REMARK    7  A    between atoms: C_19  and  C_22
REMARK                            x       y       z     vdW  Elec       q    Type
REMARK                         _______ _______ _______ _____ _____    ______ ____
ROOT
ATOM      1  O   UNL     1      -1.149   0.356  23.846  0.00  0.00    -0.219 OA
ATOM      2  C   UNL     1      -1.127   0.205  24.657  0.00  0.00    +0.199 C 
ATOM      3  C   UNL     1      -1.260  -0.525  25.019  0.00  0.00    +0.169 C 
ATOM     11  O   UNL     1      -1.183  -0.423  25.833  0.00  0.00    -0.350 OA
ATOM     12  C   UNL     1      -1.002   0.369  25.975  0.00  0.00    +0.162 C 
ATOM     13  C   UNL     1      -0.968   0.757  25.249  0.00  0.00    +0.135 C 
ENDROOT
BRANCH   3   4
ATOM      4  C   UNL     1      -1.438  -1.232  24.632  0.00  0.00    +0.147 C 
BRANCH   4   5
ATOM      5  N   UNL     1      -2.211  -1.521  24.638  0.00  0.00    -0.203 NA
ATOM      6  C   UNL     1      -2.367  -2.286  24.372  0.00  0.00    +0.241 C 
ATOM      7  O   UNL     1      -1.750  -2.762  24.099  0.00  0.00    -0.273 OA
BRANCH   6   8
ATOM      8  C   UNL     1      -3.140  -2.576  24.379  0.00  0.00    +0.078 C 
ATOM      9  C   UNL     1      -3.937  -2.488  24.186  0.00  0.00    +0.010 C 
ATOM     10  C   UNL     1      -3.680  -3.164  24.583  0.00  0.00    +0.010 C 
ENDBRANCH   6   8
ENDBRANCH   4   5
ENDBRANCH   3   4
BRANCH  13  14
ATOM     14  N   UNL     1      -0.803   1.557  25.133  0.00  0.00    -0.209 NA
BRANCH  14  15
ATOM     15  C   UNL     1      -0.967   2.102  25.732  0.00  0.00    +0.115 C 
BRANCH  15  16
ATOM     16  C   UNL     1      -1.030   2.905  25.552  0.00  0.00    -0.005 A 
ATOM     17  C   UNL     1      -0.390   3.302  25.212  0.00  0.00    -0.003 A 
ATOM     18  C   UNL     1      -0.453   4.105  25.032  0.00  0.00    +0.006 A 
ATOM     19  C   UNL     1      -1.154   4.510  25.191  0.00  0.00    +0.080 A 
ATOM     20  C   UNL     1      -1.792   4.113  25.530  0.00  0.00    +0.006 A 
ATOM     21  C   UNL     1      -1.730   3.310  25.711  0.00  0.00    -0.003 A 
BRANCH  19  22
ATOM     22  C   UNL     1      -1.215   5.313  25.011  0.00  0.00    +0.388 C 
ATOM     23  O   UNL     1      -1.904   5.727  25.200  0.00  0.00    -0.241 OA
ATOM     24  O   UNL     1      -0.588   5.702  24.641  0.00  0.00    -0.241 OA
ENDBRANCH  19  22
ENDBRANCH  15  16
ENDBRANCH  14  15
ENDBRANCH  13  14
TORSDOF 7
ENDMDL
MODEL 5
REMARK VINA RESULT:      -8.2      3.149      4.920
REMARK  Name = 
REMARK  7 active torsions:
REMARK  status: ('A' for Active; 'I' for Inactive)
REMARK    1  A    between atoms: C_3  and  C_4
REMARK    2  A    between atoms: C_4  and  N_5
REMARK    3  A    between atoms: C_6  and  C_8
REMARK    4  A    between atoms: C_13  and  N_14
REMARK    5  A    between atoms: N_14  and  C_15
REMARK    6  A    between atoms: C_15  and  C_16
REMARK    7  A    between atoms: C_19  and  C_22
REMARK                            x       y       z     vdW  Elec       q    Type
REMARK                         _______ _______ _______ _____ _____    ______ ____
ROOT
ATOM      1  O   UNL     1      -1.471   0.495  25.051  0.00  0.00    -0.219 OA
ATOM      2  C   UNL     1      -1.397   0.956  24.370  0.00  0.00    +0.199 C 
ATOM      3  C   UNL     1      -0.807   0.883  23.797  0.00  0.00    +0.169 C 
ATOM     11  O   UNL     1      -0.945   1.452  23.217  0.00  0.00    -0.350 OA
ATOM     12  C   UNL     1      -1.620   1.876  23.430  0.00  0.00    +0.162 C 
ATOM     13  C   UNL     1      -1.899   1.570  24.143  0.00  0.00    +0.135 C 
ENDROOT
BRANCH   3   4
ATOM      4  C   UNL     1      -0.189   0.337  23.805  0.00  0.00    +0.147 C 
BRANCH   4   5
ATOM      5  N   UNL     1       0.464   0.446  23.312  0.00  0.00    -0.203 NA
ATOM      6  C   UNL     1       1.023  -0.154  23.228  0.00  0.00    +0.241 C 
ATOM      7  O   UNL     1       0.929  -0.865  23.637  0.00  0.00    -0.273 OA
BRANCH   6   8
ATOM      8  C   UNL     1       1.675  -0.045  22.735  0.00  0.00    +0.078 C 
ATOM      9  C   UNL     1       2.445   0.229  22.619  0.00  0.00    +0.010 C 
ATOM     10  C   UNL     1       2.036  -0.128  21.998  0.00  0.00    +0.010 C 
ENDBRANCH   6   8
ENDBRANCH   4   5
ENDBRANCH   3   4
BRANCH  13  14
ATOM     14  N   UNL     1      -2.563   1.830  24.557  0.00  0.00    -0.209 NA
BRANCH  14  15
ATOM     15  C   UNL     1      -3.096   2.347  24.196  0.00  0.00    +0.115 C 
BRANCH  15  16
ATOM     16  C   UNL     1      -3.766   2.600  24.606  0.00  0.00    -0.005 A 
ATOM     17  C   UNL     1      -3.715   3.245  25.119  0.00  0.00    -0.003 A 
ATOM     18  C   UNL     1      -4.385   3.498  25.530  0.00  0.00    +0.006 A 
ATOM     19  C   UNL     1      -5.104   3.107  25.427  0.00  0.00    +0.080 A 
ATOM     20  C   UNL     1      -5.154   2.463  24.915  0.00  0.00    +0.006 A 
ATOM     21  C   UNL     1      -4.485   2.209  24.504  0.00  0.00    -0.003 A 
BRANCH  19  22
ATOM     22  C   UNL     1      -5.773   3.361  25.838  0.00  0.00    +0.388 C 
ATOM     23  O   UNL     1      -6.143   2.857  26.377  0.00  0.00    -0.241 OA
ATOM     24  O   UNL     1      -6.074   4.119  25.710  0.00  0.00    -0.241 OA
ENDBRANCH  19  22
ENDBRANCH  15  16
ENDBRANCH  14  15
ENDBRANCH  13  14
TORSDOF 7
ENDMDL
MODEL 6
REMARK VINA RESULT:      -6.3     13.759     15.538
REMARK  Name = 
REMARK  7 active torsions:
REMARK  status: ('A' for Active; 'I' for Inactive)
REMARK    1  A    between atoms: C_3  and  C_4
REMARK    2  A    between atoms: C_4  and  N_5
REMARK    3  A    between atoms: C_6  and  C_8
REMARK    4  A    between atoms: C_13  and  N_14
REMARK    5  A    between atoms: N_14  and  C_15
REMARK    6  A    between atoms: C_15  and  C_16
REMARK    7  A    between atoms: C_19  and  C_22
REMARK                            x       y       z     vdW  Elec       q    Type
REMARK                         _______ _______ _______ _____ _____    ______ ____
ROOT
ATOM      1  O   UNL     1      -3.161 -10.781  15.226  0.00  0.00    -0.219 OA
ATOM      2  C   UNL     1      -3.874 -10.705  14.818  0.00  0.00    +0.199 C 
ATOM      3  C   UNL     1      -3.962 -10.653  13.999  0.00  0.00    +0.169 C 
ATOM     11  O   UNL     1      -4.766 -10.584  13.832  0.00  0.00    -0.350 OA
ATOM     12  C   UNL     1      -5.176 -10.593  14.548  0.00  0.00    +0.162 C 
ATOM     13  C   UNL     1      -4.626 -10.669  15.157  0.00  0.00    +0.135 C 
ENDROOT
BRANCH   3   4
ATOM      4  C   UNL     1      -3.350 -10.667  13.445  0.00  0.00    +0.147 C 
BRANCH   4   5
ATOM      5  N   UNL     1      -3.473 -10.362  12.688  0.00  0.00    -0.203 NA
ATOM      6  C   UNL     1      -2.862 -10.373  12.134  0.00  0.00    +0.241 C 
ATOM      7  O   UNL     1      -2.127 -10.689  12.338  0.00  0.00    -0.273 OA
BRANCH   6   8
ATOM      8  C   UNL     1      -2.984 -10.068  11.378  0.00  0.00    +0.078 C 
ATOM      9  C   UNL     1      -2.718  -9.627  10.734  0.00  0.00    +0.010 C 
ATOM     10  C   UNL     1      -3.463  -9.980  10.712  0.00  0.00    +0.010 C 
ENDBRANCH   6   8
ENDBRANCH   4   5
ENDBRANCH   3   4
BRANCH  13  14
ATOM     14  N   UNL     1      -4.795 -10.701  15.964  0.00  0.00    -0.209 NA
BRANCH  14  15
ATOM     15  C   UNL     1      -5.365 -10.199  16.285  0.00  0.00    +0.115 C 
BRANCH  15  16
ATOM     16  C   UNL     1      -5.616 -10.306  17.064  0.00  0.00    -0.005 A 
ATOM     17  C   UNL     1      -5.062 -10.440  17.661  0.00  0.00    -0.003 A 
ATOM     18  C   UNL     1      -5.313 -10.547  18.439  0.00  0.00    +0.006 A 
ATOM     19  C   UNL     1      -6.117 -10.520  18.621  0.00  0.00    +0.080 A 
ATOM     20  C   UNL     1      -6.671 -10.387  18.025  0.00  0.00    +0.006 A 
ATOM     21  C   UNL     1      -6.420 -10.279  17.246  0.00  0.00    -0.003 A 
BRANCH  19  22
ATOM     22  C   UNL     1      -6.367 -10.628  19.400  0.00  0.00    +0.388 C 
ATOM     23  O   UNL     1      -5.815 -10.779  19.994  0.00  0.00    -0.241 OA
ATOM     24  O   UNL     1      -7.171 -10.585  19.585  0.00  0.00    -0.241 OA
ENDBRANCH  19  22
ENDBRANCH  15  16
ENDBRANCH  14  15
ENDBRANCH  13  14
TORSDOF 7
ENDMDL
MODEL 7
REMARK VINA RESULT:      -6.1     17.599     18.431
REMARK  Name = 
REMARK  7 active torsions:
REMARK  status: ('A' for Active; 'I' for Inactive)
REMARK    1  A    between atoms: C_3  and  C_4
REMARK    2  A    between atoms: C_4  and  N_5
REMARK    3  A    between atoms: C_6  and  C_8
REMARK    4  A    between atoms: C_13  and  N_14
REMARK    5  A    between atoms: N_14  and  C_15
REMARK    6  A    between atoms: C_15  and  C_16
REMARK    7  A    between atoms: C_19  and  C_22
REMARK                            x       y       z     vdW  Elec       q    Type
REMARK                         _______ _______ _______ _____ _____    ______ ____
ROOT
ATOM      1  O   UNL     1      -6.762  -8.972  10.691  0.00  0.00    -0.219 OA
ATOM      2  C   UNL     1      -6.498  -8.896   9.913  0.00  0.00    +0.199 C 
ATOM      3  C   UNL     1      -6.943  -8.623   9.274  0.00  0.00    +0.169 C 
ATOM     11  O   UNL     1      -6.463  -8.638   8.604  0.00  0.00    -0.350 OA
ATOM     12  C   UNL     1      -5.721  -8.921   8.828  0.00  0.00    +0.162 C 
ATOM     13  C   UNL     1      -5.743  -9.080   9.636  0.00  0.00    +0.135 C 
ENDROOT
BRANCH   3   4
ATOM      4  C   UNL     1      -7.731  -8.377   9.302  0.00  0.00    +0.147 C 
BRANCH   4   5
ATOM      5  N   UNL     1      -7.966  -7.700   8.893  0.00  0.00    -0.203 NA
ATOM      6  C   UNL     1      -8.757  -7.468   8.898  0.00  0.00    +0.241 C 
ATOM      7  O   UNL     1      -9.314  -7.914   9.314  0.00  0.00    -0.273 OA
BRANCH   6   8
ATOM      8  C   UNL     1      -8.992  -6.791   8.490  0.00  0.00    +0.078 C 
ATOM      9  C   UNL     1      -8.803  -6.077   8.124  0.00  0.00    +0.010 C 
ATOM     10  C   UNL     1      -9.587  -6.334   8.148  0.00  0.00    +0.010 C 
ENDBRANCH   6   8
ENDBRANCH   4   5
ENDBRANCH   3   4
BRANCH  13  14
ATOM     14  N   UNL     1      -5.119  -9.373  10.091  0.00  0.00    -0.209 NA
BRANCH  14  15
ATOM     15  C   UNL     1      -4.408  -9.580   9.728  0.00  0.00    +0.115 C 
BRANCH  15  16
ATOM     16  C   UNL     1      -3.736  -9.719  10.187  0.00  0.00    -0.005 A 
ATOM     17  C   UNL     1      -3.637 -10.447  10.563  0.00  0.00    -0.003 A 
ATOM     18  C   UNL     1      -2.966 -10.585  11.023  0.00  0.00    +0.006 A 
ATOM     19  C   UNL     1      -2.395  -9.996  11.106  0.00  0.00    +0.080 A 
ATOM     20  C   UNL     1      -2.493  -9.269  10.730  0.00  0.00    +0.006 A 
ATOM     21  C   UNL     1      -3.165  -9.130  10.270  0.00  0.00    -0.003 A 
BRANCH  19  22
ATOM     22  C   UNL     1      -1.723 -10.135  11.566  0.00  0.00    +0.388 C 
ATOM     23  O   UNL     1      -1.045  -9.677  11.455  0.00  0.00    -0.241 OA
ATOM     24  O   UNL     1      -1.730 -10.732  12.136  0.00  0.00    -0.241 OA
ENDBRANCH  19  22
ENDBRANCH  15  16
ENDBRANCH  14  15
ENDBRANCH  13  14
TORSDOF 7
ENDMDL
MODEL 8
REMARK VINA RESULT:      -6.0     14.057     16.544
REMARK  Name = 
REMARK  7 active torsions:
REMARK  status: ('A' for Active; 'I' for Inactive)
REMARK    1  A    between atoms: C_3  and  C_4
REMARK    2  A    between atoms: C_4  and  N_5
REMARK    3  A    between atoms: C_6  and  C_8
REMARK    4  A    between atoms: C_13  and  N_14
REMARK    5  A    between atoms: N_14  and  C_15
REMARK    6  A    between atoms: C_15  and  C_16
REMARK    7  A    between atoms: C_19  and  C_22
REMARK                            x       y       z     vdW  Elec       q    Type
REMARK                         _______ _______ _______ _____ _____    ______ ____
ROOT
ATOM      1  O   UNL     1      -3.645 -10.475  14.351  0.00  0.00    -0.219 OA
ATOM      2  C   UNL     1      -4.468 -10.432  14.385  0.00  0.00    +0.199 C 
ATOM      3  C   UNL     1      -4.930 -10.502  15.065  0.00  0.00    +0.169 C 
ATOM     11  O   UNL     1      -5.721 -10.425  14.844  0.00  0.00    -0.350 OA
ATOM     12  C   UNL     1      -5.748 -10.308  14.028  0.00  0.00    +0.162 C 
ATOM     13  C   UNL     1      -4.974 -10.312  13.744  0.00  0.00    +0.135 C 
ENDROOT
BRANCH   3   4
ATOM      4  C   UNL     1      -4.650 -10.628  15.830  0.00  0.00    +0.147 C 
BRANCH   4   5
ATOM      5  N   UNL     1      -5.172 -10.610  16.469  0.00  0.00    -0.203 NA
ATOM      6  C   UNL     1      -4.886 -10.687  17.239  0.00  0.00    +0.241 C 
ATOM      7  O   UNL     1      -4.077 -10.781  17.370  0.00  0.00    -0.273 OA
BRANCH   6   8
ATOM      8  C   UNL     1      -5.409 -10.669  17.877  0.00  0.00    +0.078 C 
ATOM      9  C   UNL     1      -6.178 -10.608  18.168  0.00  0.00    +0.010 C 
ATOM     10  C   UNL     1      -5.545 -10.699  18.689  0.00  0.00    +0.010 C 
ENDBRANCH   6   8
ENDBRANCH   4   5
ENDBRANCH   3   4
BRANCH  13  14
ATOM     14  N   UNL     1      -4.744 -10.213  12.958  0.00  0.00    -0.209 NA
BRANCH  14  15
ATOM     15  C   UNL     1      -5.308 -10.023  12.385  0.00  0.00    +0.115 C 
BRANCH  15  16
ATOM     16  C   UNL     1      -5.067  -9.817  11.623  0.00  0.00    -0.005 A 
ATOM     17  C   UNL     1      -4.784 -10.398  11.110  0.00  0.00    -0.003 A 
ATOM     18  C   UNL     1      -4.543 -10.191  10.348  0.00  0.00    +0.006 A 
ATOM     19  C   UNL     1      -4.585  -9.406  10.100  0.00  0.00    +0.080 A 
ATOM     20  C   UNL     1      -4.868  -8.826  10.613  0.00  0.00    +0.006 A 
ATOM     21  C   UNL     1      -5.109  -9.031  11.376  0.00  0.00    -0.003 A 
BRANCH  19  22
ATOM     22  C   UNL     1      -4.344  -9.200   9.338  0.00  0.00    +0.388 C 
ATOM     23  O   UNL     1      -4.852  -9.321   8.698  0.00  0.00    -0.241 OA
ATOM     24  O   UNL     1      -3.596  -8.874   9.215  0.00  0.00    -0.241 OA
ENDBRANCH  19  22
ENDBRANCH  15  16
ENDBRANCH  14  15
ENDBRANCH  13  14
TORSDOF 7
ENDMDL
MODEL 9
REMARK VINA RESULT:      -5.9     13.937     15.742
REMARK  Name = 
REMARK  7 active torsions:
REMARK  status: ('A' for Active; 'I' for Inactive)
REMARK    1  A    between atoms: C_3  and  C_4
REMARK    2  A    between atoms: C_4  and  N_5
REMARK    3  A    between atoms: C_6  and  C_8
REMARK    4  A    between atoms: C_13  and  N_14
REMARK    5  A    between atoms: N_14  and  C_15
REMARK    6  A    between atoms: C_15  and  C_16
REMARK    7  A    between atoms: C_19  and  C_22
REMARK                            x       y       z     vdW  Elec       q    Type
REMARK                         _______ _______ _______ _____ _____    ______ ____
ROOT
ATOM      1  O   UNL     1      -5.154  -9.769  16.084  0.00  0.00    -0.219 OA
ATOM      2  C   UNL     1      -5.776  -9.899  15.558  0.00  0.00    +0.199 C 
ATOM      3  C   UNL     1      -6.580  -9.840  15.734  0.00  0.00    +0.169 C 
ATOM     11  O   UNL     1      -7.004 -10.016  15.050  0.00  0.00    -0.350 OA
ATOM     12  C   UNL     1      -6.463 -10.183  14.450  0.00  0.00    +0.162 C 
ATOM     13  C   UNL     1      -5.704 -10.111  14.764  0.00  0.00    +0.135 C 
ENDROOT
BRANCH   3   4
ATOM      4  C   UNL     1      -6.902  -9.641  16.467  0.00  0.00    +0.147 C 
BRANCH   4   5
ATOM      5  N   UNL     1      -7.667  -9.335  16.512  0.00  0.00    -0.203 NA
ATOM      6  C   UNL     1      -8.024  -9.219  17.247  0.00  0.00    +0.241 C 
ATOM      7  O   UNL     1      -7.614  -9.409  17.938  0.00  0.00    -0.273 OA
BRANCH   6   8
ATOM      8  C   UNL     1      -8.789  -8.913  17.291  0.00  0.00    +0.078 C 
ATOM      9  C   UNL     1      -9.553  -8.943  17.601  0.00  0.00    +0.010 C 
ATOM     10  C   UNL     1      -9.349  -8.355  17.059  0.00  0.00    +0.010 C 
ENDBRANCH   6   8
ENDBRANCH   4   5
ENDBRANCH   3   4
BRANCH  13  14
ATOM     14  N   UNL     1      -4.997 -10.230  14.357  0.00  0.00    -0.209 NA
BRANCH  14  15
ATOM     15  C   UNL     1      -5.010 -10.521  13.585  0.00  0.00    +0.115 C 
BRANCH  15  16
ATOM     16  C   UNL     1      -4.329 -10.485  13.119  0.00  0.00    -0.005 A 
ATOM     17  C   UNL     1      -3.602 -10.717  13.433  0.00  0.00    -0.003 A 
ATOM     18  C   UNL     1      -2.922 -10.681  12.968  0.00  0.00    +0.006 A 
ATOM     19  C   UNL     1      -2.969 -10.412  12.190  0.00  0.00    +0.080 A 
ATOM     20  C   UNL     1      -3.695 -10.180  11.876  0.00  0.00    +0.006 A 
ATOM     21  C   UNL     1      -4.376 -10.216  12.341  0.00  0.00    -0.003 A 
BRANCH  19  22
ATOM     22  C   UNL     1      -2.288 -10.376  11.725  0.00  0.00    +0.388 C 
ATOM     23  O   UNL     1      -2.287  -9.935  11.027  0.00  0.00    -0.241 OA
ATOM     24  O   UNL     1      -1.607 -10.781  11.957  0.00  0.00    -0.241 OA
ENDBRANCH  19  22
ENDBRANCH  15  16
ENDBRANCH  14  15
ENDBRANCH  13  14
TORSDOF 7
ENDMDL
MODEL 10
REMARK VINA RESULT:      -5.9     13.958     14.772
REMARK  Name = 
REMARK  7 active torsions:
REMARK  status: ('A' for Active; 'I' for Inactive)
REMARK    1  A    between atoms: C_3  and  C_4
REMARK    2  A    between atoms: C_4  and  N_5
REMARK    3  A    between atoms: C_6  and  C_8
REMARK    4  A    between atoms: C_13  and  N_14
REMARK    5  A    between atoms: N_14  and  C_15
REMARK    6  A    between atoms: C_15  and  C_16
REMARK    7  A    between atoms: C_19  and  C_22
REMARK                            x       y       z     vdW  Elec       q    Type
REMARK                         _______ _______ _______ _____ _____    ______ ____
ROOT
ATOM      1  O   UNL     1      -6.230  -9.884  17.904  0.00  0.00    -0.219 OA
ATOM      2  C   UNL     1      -6.488 -10.033  17.134  0.00  0.00    +0.199 C 
ATOM      3  C   UNL     1      -7.271 -10.020  16.874  0.00  0.00    +0.169 C 
ATOM     11  O   UNL     1      -7.275 -10.200  16.070  0.00  0.00    -0.350 OA
ATOM     12  C   UNL     1      -6.495 -10.323  15.832  0.00  0.00    +0.162 C 
ATOM     13  C   UNL     1      -6.009 -10.220  16.489  0.00  0.00    +0.135 C 
ENDROOT
BRANCH   3   4
ATOM      4  C   UNL     1      -7.933  -9.857  17.339  0.00  0.00    +0.147 C 
BRANCH   4   5
ATOM      5  N   UNL     1      -8.517  -9.346  17.058  0.00  0.00    -0.203 NA
ATOM      6  C   UNL     1      -9.196  -9.208  17.507  0.00  0.00    +0.241 C 
ATOM      7  O   UNL     1      -9.289  -9.582  18.238  0.00  0.00    -0.273 OA
BRANCH   6   8
ATOM      8  C   UNL     1      -9.780  -8.698  17.227  0.00  0.00    +0.078 C 
ATOM      9  C   UNL     1     -10.440  -8.561  16.753  0.00  0.00    +0.010 C 
ATOM     10  C   UNL     1     -10.130  -7.952  17.215  0.00  0.00    +0.010 C 
ENDBRANCH   6   8
ENDBRANCH   4   5
ENDBRANCH   3   4
BRANCH  13  14
ATOM     14  N   UNL     1      -5.187 -10.291  16.501  0.00  0.00    -0.209 NA
BRANCH  14  15
ATOM     15  C   UNL     1      -4.807 -10.777  15.953  0.00  0.00    +0.115 C 
BRANCH  15  16
ATOM     16  C   UNL     1      -3.996 -10.699  15.825  0.00  0.00    -0.005 A 
ATOM     17  C   UNL     1      -3.711 -10.538  15.067  0.00  0.00    -0.003 A 
ATOM     18  C   UNL     1      -2.900 -10.460  14.940  0.00  0.00    +0.006 A 
ATOM     19  C   UNL     1      -2.374 -10.543  15.569  0.00  0.00    +0.080 A 
ATOM     20  C   UNL     1      -2.658 -10.703  16.327  0.00  0.00    +0.006 A 
ATOM     21  C   UNL     1      -3.470 -10.781  16.455  0.00  0.00    -0.003 A 
BRANCH  19  22
ATOM     22  C   UNL     1      -1.562 -10.464  15.441  0.00  0.00    +0.388 C 
ATOM     23  O   UNL     1      -1.026 -10.781  15.983  0.00  0.00    -0.241 OA
ATOM     24  O   UNL     1      -1.286 -10.069  14.771  0.00  0.00    -0.241 OA
ENDBRANCH  19  22
ENDBRANCH  15  16
ENDBRANCH  14  15
ENDBRANCH  13  14
TORSDOF 7
ENDMDL
