MODEL 1
REMARK VINA RESULT:      -8.8      0.000      0.000
REMARK  Name = 
REMARK  8 active torsions:
REMARK  status: ('A' for Active; 'I' for Inactive)
REMARK    1  A    between atoms: C_3  and  C_4
REMARK    2  A    between atoms: C_4  and  N_5
REMARK    3  A    between atoms: C_6  and  C_8
REMARK    4  A    between atoms: C_13  and  N_14
REMARK    5  A    between atoms: N_14  and  C_15
REMARK    6  A    between atoms: N_14  and  C_21
REMARK    7  A    between atoms: C_15  and  C_16
REMARK    8  A    between atoms: C_21  and  C_22
REMARK                            x       y       z     vdW  Elec       q    Type
REMARK                         _______ _______ _______ _____ _____    ______ ____
ROOT
ATOM      1  O   UNL     1      -2.386   1.250  25.702  0.00  0.00    -0.219 OA
ATOM      2  C   UNL     1      -2.480   1.322  24.885  0.00  0.00    +0.198 C 
ATOM      3  C   UNL     1      -2.372   0.722  24.330  0.00  0.00    +0.168 C 
ATOM     11  O   UNL     1      -2.524   1.035  23.582  0.00  0.00    -0.350 OA
ATOM     12  C   UNL     1      -2.725   1.830  23.675  0.00  0.00    +0.161 C 
ATOM     13  C   UNL     1      -2.698   2.007  24.481  0.00  0.00    +0.121 C 
ENDROOT
BRANCH   3   4
ATOM      4  C   UNL     1      -2.151  -0.056  24.494  0.00  0.00    +0.147 C 
BRANCH   4   5
ATOM      5  N   UNL     1      -2.718  -0.656  24.491  0.00  0.00    -0.203 NA
ATOM      6  C   UNL     1      -2.484  -1.444  24.556  0.00  0.00    +0.241 C 
ATOM      7  O   UNL     1      -1.685  -1.633  24.623  0.00  0.00    -0.273 OA
BRANCH   6   8
ATOM      8  C   UNL     1      -3.051  -2.044  24.553  0.00  0.00    +0.078 C 
ATOM      9  C   UNL     1      -3.645  -2.464  24.164  0.00  0.00    +0.010 C 
ATOM     10  C   UNL     1      -3.439  -2.663  24.938  0.00  0.00    +0.010 C 
ENDBRANCH   6   8
ENDBRANCH   4   5
ENDBRANCH   3   4
BRANCH  13  14
ATOM     14  N   UNL     1      -2.861   2.741  24.820  0.00  0.00    -0.257 NA
BRANCH  14  15
ATOM     15  C   UNL     1      -3.518   3.174  24.572  0.00  0.00    +0.139 C 
BRANCH  15  16
ATOM     16  C   UNL     1      -4.239   3.091  24.962  0.00  0.00    +0.155 A 
ATOM     17  N   UNL     1      -4.925   2.759  24.647  0.00  0.00    -0.226 NA
ATOM     18  C   UNL     1      -5.512   2.787  25.226  0.00  0.00    +0.121 A 
ATOM     19  C   UNL     1      -5.189   3.136  25.900  0.00  0.00    +0.121 A 
ATOM     20  N   UNL     1      -4.402   3.324  25.736  0.00  0.00    -0.226 NA
ENDBRANCH  15  16
ENDBRANCH  14  15
BRANCH  14  21
ATOM     21  C   UNL     1      -2.367   3.041  25.409  0.00  0.00    +0.139 C 
BRANCH  21  22
ATOM     22  C   UNL     1      -1.867   3.675  25.244  0.00  0.00    +0.155 A 
ATOM     23  N   UNL     1      -2.070   4.474  25.272  0.00  0.00    -0.226 NA
ATOM     24  C   UNL     1      -1.403   4.914  25.066  0.00  0.00    +0.121 A 
ATOM     25  C   UNL     1      -0.787   4.387  24.910  0.00  0.00    +0.121 A 
ATOM     26  N   UNL     1      -1.074   3.621  25.020  0.00  0.00    -0.226 NA
ENDBRANCH  21  22
ENDBRANCH  14  21
ENDBRANCH  13  14
TORSDOF 8
ENDMDL
MODEL 2
REMARK VINA RESULT:      -8.8      0.087      2.389
REMARK  Name = 
REMARK  8 active torsions:
REMARK  status: ('A' for Active; 'I' for Inactive)
REMARK    1  A    between atoms: C_3  and  C_4
REMARK    2  A    between atoms: C_4  and  N_5
REMARK    3  A    between atoms: C_6  and  C_8
REMARK    4  A    between atoms: C_13  and  N_14
REMARK    5  A    between atoms: N_14  and  C_15
REMARK    6  A    between atoms: N_14  and  C_21
REMARK    7  A    between atoms: C_15  and  C_16
REMARK    8  A    between atoms: C_21  and  C_22
REMARK                            x       y       z     vdW  Elec       q    Type
REMARK                         _______ _______ _______ _____ _____    ______ ____
ROOT
ATOM      1  O   UNL     1      -2.336   1.307  25.729  0.00  0.00    -0.219 OA
ATOM      2  C   UNL     1      -2.434   1.360  24.912  0.00  0.00    +0.198 C 
ATOM      3  C   UNL     1      -2.330   0.747  24.371  0.00  0.00    +0.168 C 
ATOM     11  O   UNL     1      -2.486   1.044  23.616  0.00  0.00    -0.350 OA
ATOM     12  C   UNL     1      -2.687   1.840  23.692  0.00  0.00    +0.161 C 
ATOM     13  C   UNL     1      -2.655   2.036  24.493  0.00  0.00    +0.121 C 
ENDROOT
BRANCH   3   4
ATOM      4  C   UNL     1      -2.109  -0.027  24.550  0.00  0.00    +0.147 C 
BRANCH   4   5
ATOM      5  N   UNL     1      -2.669  -0.632  24.530  0.00  0.00    -0.203 NA
ATOM      6  C   UNL     1      -2.431  -1.417  24.624  0.00  0.00    +0.241 C 
ATOM      7  O   UNL     1      -1.635  -1.596  24.738  0.00  0.00    -0.273 OA
BRANCH   6   8
ATOM      8  C   UNL     1      -2.992  -2.022  24.604  0.00  0.00    +0.078 C 
ATOM      9  C   UNL     1      -3.490  -2.520  24.176  0.00  0.00    +0.010 C 
ATOM     10  C   UNL     1      -3.464  -2.572  24.999  0.00  0.00    +0.010 C 
ENDBRANCH   6   8
ENDBRANCH   4   5
ENDBRANCH   3   4
BRANCH  13  14
ATOM     14  N   UNL     1      -2.815   2.777  24.817  0.00  0.00    -0.257 NA
BRANCH  14  15
ATOM     15  C   UNL     1      -2.321   3.089  25.400  0.00  0.00    +0.139 C 
BRANCH  15  16
ATOM     16  C   UNL     1      -1.831   3.728  25.226  0.00  0.00    +0.155 A 
ATOM     17  N   UNL     1      -2.013   4.524  25.341  0.00  0.00    -0.226 NA
ATOM     18  C   UNL     1      -1.366   4.972  25.091  0.00  0.00    +0.121 A 
ATOM     19  C   UNL     1      -0.784   4.453  24.822  0.00  0.00    +0.121 A 
ATOM     20  N   UNL     1      -1.071   3.684  24.905  0.00  0.00    -0.226 NA
ENDBRANCH  15  16
ENDBRANCH  14  15
BRANCH  14  21
ATOM     21  C   UNL     1      -3.471   3.207  24.558  0.00  0.00    +0.139 C 
BRANCH  21  22
ATOM     22  C   UNL     1      -4.192   3.135  24.951  0.00  0.00    +0.155 A 
ATOM     23  N   UNL     1      -4.362   3.409  25.710  0.00  0.00    -0.226 NA
ATOM     24  C   UNL     1      -5.146   3.219  25.881  0.00  0.00    +0.121 A 
ATOM     25  C   UNL     1      -5.462   2.827  25.227  0.00  0.00    +0.121 A 
ATOM     26  N   UNL     1      -4.873   2.775  24.652  0.00  0.00    -0.226 NA
ENDBRANCH  21  22
ENDBRANCH  14  21
ENDBRANCH  13  14
TORSDOF 8
ENDMDL
MODEL 3
REMARK VINA RESULT:      -8.2      1.279      4.474
REMARK  Name = 
REMARK  8 active torsions:
REMARK  status: ('A' for Active; 'I' for Inactive)
REMARK    1  A    between atoms: C_3  and  C_4
REMARK    2  A    between atoms: C_4  and  N_5
REMARK    3  A    between atoms: C_6  and  C_8
REMARK    4  A    between atoms: C_13  and  N_14
REMARK    5  A    between atoms: N_14  and  C_15
REMARK    6  A    between atoms: N_14  and  C_21
REMARK    7  A    between atoms: C_15  and  C_16
REMARK    8  A    between atoms: C_21  and  C_22
REMARK                            x       y       z     vdW  Elec       q    Type
REMARK                         _______ _______ _______ _____ _____    ______ ____
ROOT
ATOM      1  O   UNL     1      -2.652   1.415  25.640  0.00  0.00    -0.219 OA
ATOM      2  C   UNL     1      -2.717   1.496  24.822  0.00  0.00    +0.198 C 
ATOM      3  C   UNL     1      -2.209   1.924  24.334  0.00  0.00    +0.168 C 
ATOM     11  O   UNL     1      -2.481   1.855  23.558  0.00  0.00    -0.350 OA
ATOM     12  C   UNL     1      -3.157   1.383  23.566  0.00  0.00    +0.161 C 
ATOM     13  C   UNL     1      -3.304   1.161  24.347  0.00  0.00    +0.121 C 
ENDROOT
BRANCH   3   4
ATOM      4  C   UNL     1      -1.545   2.348  24.579  0.00  0.00    +0.147 C 
BRANCH   4   5
ATOM      5  N   UNL     1      -1.569   3.172  24.610  0.00  0.00    -0.203 NA
ATOM      6  C   UNL     1      -0.908   3.594  24.864  0.00  0.00    +0.241 C 
ATOM      7  O   UNL     1      -0.222   3.194  25.087  0.00  0.00    -0.273 OA
BRANCH   6   8
ATOM      8  C   UNL     1      -0.932   4.418  24.896  0.00  0.00    +0.078 C 
ATOM      9  C   UNL     1      -1.307   5.114  25.134  0.00  0.00    +0.010 C 
ATOM     10  C   UNL     1      -0.599   5.151  24.712  0.00  0.00    +0.010 C 
ENDBRANCH   6   8
ENDBRANCH   4   5
ENDBRANCH   3   4
BRANCH  13  14
ATOM     14  N   UNL     1      -3.927   0.688  24.607  0.00  0.00    -0.257 NA
BRANCH  14  15
ATOM     15  C   UNL     1      -3.778   0.043  25.101  0.00  0.00    +0.139 C 
BRANCH  15  16
ATOM     16  C   UNL     1      -3.805  -0.723  24.798  0.00  0.00    +0.155 A 
ATOM     17  N   UNL     1      -3.431  -1.384  25.119  0.00  0.00    -0.226 NA
ATOM     18  C   UNL     1      -3.605  -2.033  24.640  0.00  0.00    +0.121 A 
ATOM     19  C   UNL     1      -4.088  -1.773  24.024  0.00  0.00    +0.121 A 
ATOM     20  N   UNL     1      -4.211  -0.964  24.122  0.00  0.00    -0.226 NA
ENDBRANCH  15  16
ENDBRANCH  14  15
BRANCH  14  21
ATOM     21  C   UNL     1      -4.700   0.859  24.373  0.00  0.00    +0.139 C 
BRANCH  21  22
ATOM     22  C   UNL     1      -5.182   1.326  24.853  0.00  0.00    +0.155 A 
ATOM     23  N   UNL     1      -5.427   1.144  25.619  0.00  0.00    -0.226 NA
ATOM     24  C   UNL     1      -5.900   1.763  25.889  0.00  0.00    +0.121 A 
ATOM     25  C   UNL     1      -5.947   2.329  25.290  0.00  0.00    +0.121 A 
ATOM     26  N   UNL     1      -5.503   2.059  24.649  0.00  0.00    -0.226 NA
ENDBRANCH  21  22
ENDBRANCH  14  21
ENDBRANCH  13  14
TORSDOF 8
ENDMDL
MODEL 4
REMARK VINA RESULT:      -8.2      1.281      4.332
REMARK  Name = 
REMARK  8 active torsions:
REMARK  status: ('A' for Active; 'I' for Inactive)
REMARK    1  A    between atoms: C_3  and  C_4
REMARK    2  A    between atoms: C_4  and  N_5
REMARK    3  A    between atoms: C_6  and  C_8
REMARK    4  A    between atoms: C_13  and  N_14
REMARK    5  A    between atoms: N_14  and  C_15
REMARK    6  A    between atoms: N_14  and  C_21
REMARK    7  A    between atoms: C_15  and  C_16
REMARK    8  A    between atoms: C_21  and  C_22
REMARK                            x       y       z     vdW  Elec       q    Type
REMARK                         _______ _______ _______ _____ _____    ______ ____
ROOT
ATOM      1  O   UNL     1      -2.655   1.406  25.655  0.00  0.00    -0.219 OA
ATOM      2  C   UNL     1      -2.720   1.490  24.837  0.00  0.00    +0.198 C 
ATOM      3  C   UNL     1      -2.212   1.922  24.353  0.00  0.00    +0.168 C 
ATOM     11  O   UNL     1      -2.482   1.857  23.576  0.00  0.00    -0.350 OA
ATOM     12  C   UNL     1      -3.158   1.384  23.580  0.00  0.00    +0.161 C 
ATOM     13  C   UNL     1      -3.305   1.158  24.360  0.00  0.00    +0.121 C 
ENDROOT
BRANCH   3   4
ATOM      4  C   UNL     1      -1.549   2.346  24.600  0.00  0.00    +0.147 C 
BRANCH   4   5
ATOM      5  N   UNL     1      -1.566   3.171  24.613  0.00  0.00    -0.203 NA
ATOM      6  C   UNL     1      -0.914   3.593  24.891  0.00  0.00    +0.241 C 
ATOM      7  O   UNL     1      -0.245   3.191  25.156  0.00  0.00    -0.273 OA
BRANCH   6   8
ATOM      8  C   UNL     1      -0.932   4.417  24.904  0.00  0.00    +0.078 C 
ATOM      9  C   UNL     1      -1.299   5.121  25.130  0.00  0.00    +0.010 C 
ATOM     10  C   UNL     1      -0.595   5.143  24.700  0.00  0.00    +0.010 C 
ENDBRANCH   6   8
ENDBRANCH   4   5
ENDBRANCH   3   4
BRANCH  13  14
ATOM     14  N   UNL     1      -3.928   0.682  24.617  0.00  0.00    -0.257 NA
BRANCH  14  15
ATOM     15  C   UNL     1      -4.702   0.853  24.384  0.00  0.00    +0.139 C 
BRANCH  15  16
ATOM     16  C   UNL     1      -5.183   1.318  24.864  0.00  0.00    +0.155 A 
ATOM     17  N   UNL     1      -5.509   2.048  24.661  0.00  0.00    -0.226 NA
ATOM     18  C   UNL     1      -5.951   2.318  25.303  0.00  0.00    +0.121 A 
ATOM     19  C   UNL     1      -5.899   1.754  25.903  0.00  0.00    +0.121 A 
ATOM     20  N   UNL     1      -5.425   1.137  25.631  0.00  0.00    -0.226 NA
ENDBRANCH  15  16
ENDBRANCH  14  15
BRANCH  14  21
ATOM     21  C   UNL     1      -3.778   0.035  25.107  0.00  0.00    +0.139 C 
BRANCH  21  22
ATOM     22  C   UNL     1      -3.808  -0.730  24.799  0.00  0.00    +0.155 A 
ATOM     23  N   UNL     1      -4.193  -0.961  24.107  0.00  0.00    -0.226 NA
ATOM     24  C   UNL     1      -4.080  -1.772  24.011  0.00  0.00    +0.121 A 
ATOM     25  C   UNL     1      -3.625  -2.044  24.644  0.00  0.00    +0.121 A 
ATOM     26  N   UNL     1      -3.456  -1.399  25.131  0.00  0.00    -0.226 NA
ENDBRANCH  21  22
ENDBRANCH  14  21
ENDBRANCH  13  14
TORSDOF 8
ENDMDL
MODEL 5
REMARK VINA RESULT:      -8.0      1.338      2.549
REMARK  Name = 
REMARK  8 active torsions:
REMARK  status: ('A' for Active; 'I' for Inactive)
REMARK    1  A    between atoms: C_3  and  C_4
REMARK    2  A    between atoms: C_4  and  N_5
REMARK    3  A    between atoms: C_6  and  C_8
REMARK    4  A    between atoms: C_13  and  N_14
REMARK    5  A    between atoms: N_14  and  C_15
REMARK    6  A    between atoms: N_14  and  C_21
REMARK    7  A    between atoms: C_15  and  C_16
REMARK    8  A    between atoms: C_21  and  C_22
REMARK                            x       y       z     vdW  Elec       q    Type
REMARK                         _______ _______ _______ _____ _____    ______ ____
ROOT
ATOM      1  O   UNL     1      -3.430   0.904  25.391  0.00  0.00    -0.219 OA
ATOM      2  C   UNL     1      -3.291   0.995  24.583  0.00  0.00    +0.198 C 
ATOM      3  C   UNL     1      -3.528   0.476  23.988  0.00  0.00    +0.168 C 
ATOM     11  O   UNL     1      -3.274   0.781  23.265  0.00  0.00    -0.350 OA
ATOM     12  C   UNL     1      -2.878   1.490  23.413  0.00  0.00    +0.161 C 
ATOM     13  C   UNL     1      -2.889   1.622  24.228  0.00  0.00    +0.121 C 
ENDROOT
BRANCH   3   4
ATOM      4  C   UNL     1      -3.947  -0.227  24.097  0.00  0.00    +0.147 C 
BRANCH   4   5
ATOM      5  N   UNL     1      -3.542  -0.934  24.223  0.00  0.00    -0.203 NA
ATOM      6  C   UNL     1      -3.946  -1.653  24.182  0.00  0.00    +0.241 C 
ATOM      7  O   UNL     1      -4.753  -1.664  24.015  0.00  0.00    -0.273 OA
BRANCH   6   8
ATOM      8  C   UNL     1      -3.541  -2.360  24.308  0.00  0.00    +0.078 C 
ATOM      9  C   UNL     1      -2.872  -2.764  24.574  0.00  0.00    +0.010 C 
ATOM     10  C   UNL     1      -3.508  -3.184  24.259  0.00  0.00    +0.010 C 
ENDBRANCH   6   8
ENDBRANCH   4   5
ENDBRANCH   3   4
BRANCH  13  14
ATOM     14  N   UNL     1      -2.556   2.268  24.618  0.00  0.00    -0.257 NA
BRANCH  14  15
ATOM     15  C   UNL     1      -2.002   2.148  25.218  0.00  0.00    +0.139 C 
BRANCH  15  16
ATOM     16  C   UNL     1      -1.197   2.209  25.055  0.00  0.00    +0.155 A 
ATOM     17  N   UNL     1      -0.594   1.782  25.422  0.00  0.00    -0.226 NA
ATOM     18  C   UNL     1       0.124   2.017  25.090  0.00  0.00    +0.121 A 
ATOM     19  C   UNL     1      -0.035   2.590  24.518  0.00  0.00    +0.121 A 
ATOM     20  N   UNL     1      -0.851   2.709  24.497  0.00  0.00    -0.226 NA
ENDBRANCH  15  16
ENDBRANCH  14  15
BRANCH  14  21
ATOM     21  C   UNL     1      -2.776   3.035  24.407  0.00  0.00    +0.139 C 
BRANCH  21  22
ATOM     22  C   UNL     1      -3.317   3.450  24.869  0.00  0.00    +0.155 A 
ATOM     23  N   UNL     1      -3.205   3.692  25.650  0.00  0.00    -0.226 NA
ATOM     24  C   UNL     1      -3.886   4.088  25.895  0.00  0.00    +0.121 A 
ATOM     25  C   UNL     1      -4.420   4.091  25.265  0.00  0.00    +0.121 A 
ATOM     26  N   UNL     1      -4.069   3.697  24.631  0.00  0.00    -0.226 NA
ENDBRANCH  21  22
ENDBRANCH  14  21
ENDBRANCH  13  14
TORSDOF 8
ENDMDL
MODEL 6
REMARK VINA RESULT:      -8.0      1.361      1.564
REMARK  Name = 
REMARK  8 active torsions:
REMARK  status: ('A' for Active; 'I' for Inactive)
REMARK    1  A    between atoms: C_3  and  C_4
REMARK    2  A    between atoms: C_4  and  N_5
REMARK    3  A    between atoms: C_6  and  C_8
REMARK    4  A    between atoms: C_13  and  N_14
REMARK    5  A    between atoms: N_14  and  C_15
REMARK    6  A    between atoms: N_14  and  C_21
REMARK    7  A    between atoms: C_15  and  C_16
REMARK    8  A    between atoms: C_21  and  C_22
REMARK                            x       y       z     vdW  Elec       q    Type
REMARK                         _______ _______ _______ _____ _____    ______ ____
ROOT
ATOM      1  O   UNL     1      -3.457   0.892  25.373  0.00  0.00    -0.219 OA
ATOM      2  C   UNL     1      -3.304   0.976  24.567  0.00  0.00    +0.198 C 
ATOM      3  C   UNL     1      -3.544   0.459  23.972  0.00  0.00    +0.168 C 
ATOM     11  O   UNL     1      -3.273   0.755  23.251  0.00  0.00    -0.350 OA
ATOM     12  C   UNL     1      -2.864   1.456  23.401  0.00  0.00    +0.161 C 
ATOM     13  C   UNL     1      -2.884   1.592  24.215  0.00  0.00    +0.121 C 
ENDROOT
BRANCH   3   4
ATOM      4  C   UNL     1      -3.980  -0.234  24.077  0.00  0.00    +0.147 C 
BRANCH   4   5
ATOM      5  N   UNL     1      -3.594  -0.944  24.241  0.00  0.00    -0.203 NA
ATOM      6  C   UNL     1      -4.005  -1.658  24.191  0.00  0.00    +0.241 C 
ATOM      7  O   UNL     1      -4.801  -1.661  23.978  0.00  0.00    -0.273 OA
BRANCH   6   8
ATOM      8  C   UNL     1      -3.619  -2.368  24.355  0.00  0.00    +0.078 C 
ATOM      9  C   UNL     1      -3.253  -2.875  24.893  0.00  0.00    +0.010 C 
ATOM     10  C   UNL     1      -3.315  -3.092  24.100  0.00  0.00    +0.010 C 
ENDBRANCH   6   8
ENDBRANCH   4   5
ENDBRANCH   3   4
BRANCH  13  14
ATOM     14  N   UNL     1      -2.542   2.233  24.607  0.00  0.00    -0.257 NA
BRANCH  14  15
ATOM     15  C   UNL     1      -2.745   3.004  24.392  0.00  0.00    +0.139 C 
BRANCH  15  16
ATOM     16  C   UNL     1      -3.283   3.430  24.847  0.00  0.00    +0.155 A 
ATOM     17  N   UNL     1      -4.027   3.689  24.602  0.00  0.00    -0.226 NA
ATOM     18  C   UNL     1      -4.377   4.092  25.232  0.00  0.00    +0.121 A 
ATOM     19  C   UNL     1      -3.850   4.082  25.866  0.00  0.00    +0.121 A 
ATOM     20  N   UNL     1      -3.175   3.673  25.628  0.00  0.00    -0.226 NA
ENDBRANCH  15  16
ENDBRANCH  14  15
BRANCH  14  21
ATOM     21  C   UNL     1      -1.998   2.103  25.213  0.00  0.00    +0.139 C 
BRANCH  21  22
ATOM     22  C   UNL     1      -1.189   2.155  25.059  0.00  0.00    +0.155 A 
ATOM     23  N   UNL     1      -0.831   2.649  24.503  0.00  0.00    -0.226 NA
ATOM     24  C   UNL     1      -0.017   2.521  24.535  0.00  0.00    +0.121 A 
ATOM     25  C   UNL     1       0.129   1.948  25.111  0.00  0.00    +0.121 A 
ATOM     26  N   UNL     1      -0.596   1.722  25.435  0.00  0.00    -0.226 NA
ENDBRANCH  21  22
ENDBRANCH  14  21
ENDBRANCH  13  14
TORSDOF 8
ENDMDL
MODEL 7
REMARK VINA RESULT:      -7.7     16.057     18.270
REMARK  Name = 
REMARK  8 active torsions:
REMARK  status: ('A' for Active; 'I' for Inactive)
REMARK    1  A    between atoms: C_3  and  C_4
REMARK    2  A    between atoms: C_4  and  N_5
REMARK    3  A    between atoms: C_6  and  C_8
REMARK    4  A    between atoms: C_13  and  N_14
REMARK    5  A    between atoms: N_14  and  C_15
REMARK    6  A    between atoms: N_14  and  C_21
REMARK    7  A    between atoms: C_15  and  C_16
REMARK    8  A    between atoms: C_21  and  C_22
REMARK                            x       y       z     vdW  Elec       q    Type
REMARK                         _______ _______ _______ _____ _____    ______ ____
ROOT
ATOM      1  O   UNL     1      13.668   8.812  19.792  0.00  0.00    -0.219 OA
ATOM      2  C   UNL     1      13.537   8.011  19.645  0.00  0.00    +0.198 C 
ATOM      3  C   UNL     1      14.111   7.419  19.644  0.00  0.00    +0.168 C 
ATOM     11  O   UNL     1      13.739   6.703  19.472  0.00  0.00    -0.350 OA
ATOM     12  C   UNL     1      12.934   6.853  19.367  0.00  0.00    +0.161 C 
ATOM     13  C   UNL     1      12.810   7.662  19.474  0.00  0.00    +0.121 C 
ENDROOT
BRANCH   3   4
ATOM      4  C   UNL     1      14.917   7.524  19.789  0.00  0.00    +0.147 C 
BRANCH   4   5
ATOM      5  N   UNL     1      15.454   6.934  19.578  0.00  0.00    -0.203 NA
ATOM      6  C   UNL     1      16.259   7.040  19.723  0.00  0.00    +0.241 C 
ATOM      7  O   UNL     1      16.527   7.734  20.077  0.00  0.00    -0.273 OA
BRANCH   6   8
ATOM      8  C   UNL     1      16.797   6.450  19.513  0.00  0.00    +0.078 C 
ATOM      9  C   UNL     1      17.120   5.947  18.944  0.00  0.00    +0.010 C 
ATOM     10  C   UNL     1      17.405   5.931  19.719  0.00  0.00    +0.010 C 
ENDBRANCH   6   8
ENDBRANCH   4   5
ENDBRANCH   3   4
BRANCH  13  14
ATOM     14  N   UNL     1      12.085   8.051  19.420  0.00  0.00    -0.257 NA
BRANCH  14  15
ATOM     15  C   UNL     1      11.425   7.753  19.816  0.00  0.00    +0.139 C 
BRANCH  15  16
ATOM     16  C   UNL     1      11.204   8.069  20.545  0.00  0.00    +0.155 A 
ATOM     17  N   UNL     1      11.100   7.645  21.245  0.00  0.00    -0.226 NA
ATOM     18  C   UNL     1      10.880   8.178  21.835  0.00  0.00    +0.121 A 
ATOM     19  C   UNL     1      10.847   8.931  21.499  0.00  0.00    +0.121 A 
ATOM     20  N   UNL     1      11.047   8.863  20.702  0.00  0.00    -0.226 NA
ENDBRANCH  15  16
ENDBRANCH  14  15
BRANCH  14  21
ATOM     21  C   UNL     1      12.019   8.740  18.970  0.00  0.00    +0.139 C 
BRANCH  21  22
ATOM     22  C   UNL     1      11.706   8.705  18.208  0.00  0.00    +0.155 A 
ATOM     23  N   UNL     1      11.007   8.327  17.987  0.00  0.00    -0.226 NA
ATOM     24  C   UNL     1      10.906   8.431  17.175  0.00  0.00    +0.121 A 
ATOM     25  C   UNL     1      11.543   8.875  16.894  0.00  0.00    +0.121 A 
ATOM     26  N   UNL     1      12.037   9.045  17.532  0.00  0.00    -0.226 NA
ENDBRANCH  21  22
ENDBRANCH  14  21
ENDBRANCH  13  14
TORSDOF 8
ENDMDL
MODEL 8
REMARK VINA RESULT:      -7.3     15.454     17.945
REMARK  Name = 
REMARK  8 active torsions:
REMARK  status: ('A' for Active; 'I' for Inactive)
REMARK    1  A    between atoms: C_3  and  C_4
REMARK    2  A    between atoms: C_4  and  N_5
REMARK    3  A    between atoms: C_6  and  C_8
REMARK    4  A    between atoms: C_13  and  N_14
REMARK    5  A    between atoms: N_14  and  C_15
REMARK    6  A    between atoms: N_14  and  C_21
REMARK    7  A    between atoms: C_15  and  C_16
REMARK    8  A    between atoms: C_21  and  C_22
REMARK                            x       y       z     vdW  Elec       q    Type
REMARK                         _______ _______ _______ _____ _____    ______ ____
ROOT
ATOM      1  O   UNL     1      12.936   6.943  19.014  0.00  0.00    -0.219 OA
ATOM      2  C   UNL     1      12.836   7.731  19.238  0.00  0.00    +0.198 C 
ATOM      3  C   UNL     1      12.705   8.367  18.729  0.00  0.00    +0.168 C 
ATOM     11  O   UNL     1      12.638   9.050  19.187  0.00  0.00    -0.350 OA
ATOM     12  C   UNL     1      12.727   8.837  19.979  0.00  0.00    +0.161 C 
ATOM     13  C   UNL     1      12.850   8.021  20.010  0.00  0.00    +0.121 C 
ENDROOT
BRANCH   3   4
ATOM      4  C   UNL     1      12.651   8.327  17.907  0.00  0.00    +0.147 C 
BRANCH   4   5
ATOM      5  N   UNL     1      11.936   8.494  17.532  0.00  0.00    -0.203 NA
ATOM      6  C   UNL     1      11.917   8.612  16.715  0.00  0.00    +0.241 C 
ATOM      7  O   UNL     1      12.612   8.564  16.275  0.00  0.00    -0.273 OA
BRANCH   6   8
ATOM      8  C   UNL     1      11.202   8.779  16.340  0.00  0.00    +0.078 C 
ATOM      9  C   UNL     1      10.377   8.755  16.329  0.00  0.00    +0.010 C 
ATOM     10  C   UNL     1      10.787   9.093  15.698  0.00  0.00    +0.010 C 
ENDBRANCH   6   8
ENDBRANCH   4   5
ENDBRANCH   3   4
BRANCH  13  14
ATOM     14  N   UNL     1      12.965   7.575  20.694  0.00  0.00    -0.257 NA
BRANCH  14  15
ATOM     15  C   UNL     1      13.567   7.011  20.723  0.00  0.00    +0.139 C 
BRANCH  15  16
ATOM     16  C   UNL     1      14.271   7.180  21.117  0.00  0.00    +0.155 A 
ATOM     17  N   UNL     1      15.023   6.922  20.897  0.00  0.00    -0.226 NA
ATOM     18  C   UNL     1      15.565   7.218  21.444  0.00  0.00    +0.121 A 
ATOM     19  C   UNL     1      15.148   7.660  22.003  0.00  0.00    +0.121 A 
ATOM     20  N   UNL     1      14.349   7.635  21.800  0.00  0.00    -0.226 NA
ENDBRANCH  15  16
ENDBRANCH  14  15
BRANCH  14  21
ATOM     21  C   UNL     1      12.479   7.693  21.351  0.00  0.00    +0.139 C 
BRANCH  21  22
ATOM     22  C   UNL     1      11.842   7.186  21.488  0.00  0.00    +0.155 A 
ATOM     23  N   UNL     1      11.061   7.414  21.624  0.00  0.00    -0.226 NA
ATOM     24  C   UNL     1      10.612   6.731  21.733  0.00  0.00    +0.121 A 
ATOM     25  C   UNL     1      11.116   6.080  21.665  0.00  0.00    +0.121 A 
ATOM     26  N   UNL     1      11.876   6.362  21.514  0.00  0.00    -0.226 NA
ENDBRANCH  21  22
ENDBRANCH  14  21
ENDBRANCH  13  14
TORSDOF 8
ENDMDL
MODEL 9
REMARK VINA RESULT:      -7.3     15.527     17.643
REMARK  Name = 
REMARK  8 active torsions:
REMARK  status: ('A' for Active; 'I' for Inactive)
REMARK    1  A    between atoms: C_3  and  C_4
REMARK    2  A    between atoms: C_4  and  N_5
REMARK    3  A    between atoms: C_6  and  C_8
REMARK    4  A    between atoms: C_13  and  N_14
REMARK    5  A    between atoms: N_14  and  C_15
REMARK    6  A    between atoms: N_14  and  C_21
REMARK    7  A    between atoms: C_15  and  C_16
REMARK    8  A    between atoms: C_21  and  C_22
REMARK                            x       y       z     vdW  Elec       q    Type
REMARK                         _______ _______ _______ _____ _____    ______ ____
ROOT
ATOM      1  O   UNL     1      12.873   8.890  19.574  0.00  0.00    -0.219 OA
ATOM      2  C   UNL     1      12.685   8.110  19.383  0.00  0.00    +0.198 C 
ATOM      3  C   UNL     1      12.539   7.818  18.626  0.00  0.00    +0.168 C 
ATOM     11  O   UNL     1      12.374   7.012  18.691  0.00  0.00    -0.350 OA
ATOM     12  C   UNL     1      12.417   6.806  19.488  0.00  0.00    +0.161 C 
ATOM     13  C   UNL     1      12.609   7.485  19.917  0.00  0.00    +0.121 C 
ENDROOT
BRANCH   3   4
ATOM      4  C   UNL     1      12.556   8.254  17.926  0.00  0.00    +0.147 C 
BRANCH   4   5
ATOM      5  N   UNL     1      11.862   8.375  17.498  0.00  0.00    -0.203 NA
ATOM      6  C   UNL     1      11.898   8.680  16.732  0.00  0.00    +0.241 C 
ATOM      7  O   UNL     1      12.627   8.862  16.394  0.00  0.00    -0.273 OA
BRANCH   6   8
ATOM      8  C   UNL     1      11.203   8.801  16.303  0.00  0.00    +0.078 C 
ATOM      9  C   UNL     1      10.385   8.721  16.231  0.00  0.00    +0.010 C 
ATOM     10  C   UNL     1      10.817   9.091  15.633  0.00  0.00    +0.010 C 
ENDBRANCH   6   8
ENDBRANCH   4   5
ENDBRANCH   3   4
BRANCH  13  14
ATOM     14  N   UNL     1      12.708   7.530  20.734  0.00  0.00    -0.257 NA
BRANCH  14  15
ATOM     15  C   UNL     1      12.327   8.123  21.164  0.00  0.00    +0.139 C 
BRANCH  15  16
ATOM     16  C   UNL     1      11.639   7.951  21.584  0.00  0.00    +0.155 A 
ATOM     17  N   UNL     1      11.174   8.493  21.996  0.00  0.00    -0.226 NA
ATOM     18  C   UNL     1      10.542   8.083  22.333  0.00  0.00    +0.121 A 
ATOM     19  C   UNL     1      10.616   7.288  22.129  0.00  0.00    +0.121 A 
ATOM     20  N   UNL     1      11.294   7.206  21.666  0.00  0.00    -0.226 NA
ENDBRANCH  15  16
ENDBRANCH  14  15
BRANCH  14  21
ATOM     21  C   UNL     1      13.187   6.982  21.122  0.00  0.00    +0.139 C 
BRANCH  21  22
ATOM     22  C   UNL     1      13.947   7.195  21.361  0.00  0.00    +0.155 A 
ATOM     23  N   UNL     1      14.654   6.930  21.027  0.00  0.00    -0.226 NA
ATOM     24  C   UNL     1      15.277   7.283  21.435  0.00  0.00    +0.121 A 
ATOM     25  C   UNL     1      14.957   7.766  22.023  0.00  0.00    +0.121 A 
ATOM     26  N   UNL     1      14.135   7.712  21.977  0.00  0.00    -0.226 NA
ENDBRANCH  21  22
ENDBRANCH  14  21
ENDBRANCH  13  14
TORSDOF 8
ENDMDL
MODEL 10
REMARK VINA RESULT:      -7.2     16.106     18.565
REMARK  Name = 
REMARK  8 active torsions:
REMARK  status: ('A' for Active; 'I' for Inactive)
REMARK    1  A    between atoms: C_3  and  C_4
REMARK    2  A    between atoms: C_4  and  N_5
REMARK    3  A    between atoms: C_6  and  C_8
REMARK    4  A    between atoms: C_13  and  N_14
REMARK    5  A    between atoms: N_14  and  C_15
REMARK    6  A    between atoms: N_14  and  C_21
REMARK    7  A    between atoms: C_15  and  C_16
REMARK    8  A    between atoms: C_21  and  C_22
REMARK                            x       y       z     vdW  Elec       q    Type
REMARK                         _______ _______ _______ _____ _____    ______ ____
ROOT
ATOM      1  O   UNL     1      13.109   8.919  19.281  0.00  0.00    -0.219 OA
ATOM      2  C   UNL     1      12.850   8.145  19.164  0.00  0.00    +0.198 C 
ATOM      3  C   UNL     1      12.149   7.819  19.451  0.00  0.00    +0.168 C 
ATOM     11  O   UNL     1      12.112   7.032  19.204  0.00  0.00    -0.350 OA
ATOM     12  C   UNL     1      12.791   6.872  18.764  0.00  0.00    +0.161 C 
ATOM     13  C   UNL     1      13.248   7.560  18.739  0.00  0.00    +0.121 C 
ENDROOT
BRANCH   3   4
ATOM      4  C   UNL     1      11.583   8.210  19.906  0.00  0.00    +0.147 C 
BRANCH   4   5
ATOM      5  N   UNL     1      11.390   7.929  20.657  0.00  0.00    -0.203 NA
ATOM      6  C   UNL     1      10.795   8.298  21.095  0.00  0.00    +0.241 C 
ATOM      7  O   UNL     1      10.394   8.946  20.782  0.00  0.00    -0.273 OA
BRANCH   6   8
ATOM      8  C   UNL     1      10.602   8.016  21.846  0.00  0.00    +0.078 C 
ATOM      9  C   UNL     1      10.229   7.459  22.327  0.00  0.00    +0.010 C 
ATOM     10  C   UNL     1      10.641   8.087  22.668  0.00  0.00    +0.010 C 
ENDBRANCH   6   8
ENDBRANCH   4   5
ENDBRANCH   3   4
BRANCH  13  14
ATOM     14  N   UNL     1      13.973   7.646  18.357  0.00  0.00    -0.257 NA
BRANCH  14  15
ATOM     15  C   UNL     1      14.619   7.960  18.763  0.00  0.00    +0.139 C 
BRANCH  15  16
ATOM     16  C   UNL     1      15.196   7.459  19.070  0.00  0.00    +0.155 A 
ATOM     17  N   UNL     1      15.500   6.786  18.701  0.00  0.00    -0.226 NA
ATOM     18  C   UNL     1      16.064   6.452  19.204  0.00  0.00    +0.121 A 
ATOM     19  C   UNL     1      16.108   6.918  19.883  0.00  0.00    +0.121 A 
ATOM     20  N   UNL     1      15.572   7.539  19.801  0.00  0.00    -0.226 NA
ENDBRANCH  15  16
ENDBRANCH  14  15
BRANCH  14  21
ATOM     21  C   UNL     1      14.053   7.418  17.568  0.00  0.00    +0.139 C 
BRANCH  21  22
ATOM     22  C   UNL     1      14.020   7.985  16.970  0.00  0.00    +0.155 A 
ATOM     23  N   UNL     1      13.568   7.938  16.281  0.00  0.00    -0.226 NA
ATOM     24  C   UNL     1      13.702   8.623  15.841  0.00  0.00    +0.121 A 
ATOM     25  C   UNL     1      14.237   9.094  16.258  0.00  0.00    +0.121 A 
ATOM     26  N   UNL     1      14.433   8.699  16.956  0.00  0.00    -0.226 NA
ENDBRANCH  21  22
ENDBRANCH  14  21
ENDBRANCH  13  14
TORSDOF 8
ENDMDL
