MODEL 1
REMARK VINA RESULT:      -9.0      0.000      0.000
REMARK  Name = 
REMARK  7 active torsions:
REMARK  status: ('A' for Active; 'I' for Inactive)
REMARK    1  A    between atoms: O_2  and  C_3
REMARK    2  A    between atoms: C_6  and  C_9
REMARK    3  A    between atoms: N_14  and  C_15
REMARK    4  A    between atoms: C_19  and  O_23
REMARK    5  A    between atoms: O_23  and  C_24
REMARK    6  A    between atoms: N_26  and  C_27
REMARK    7  A    between atoms: C_30  and  C_33
REMARK                            x       y       z     vdW  Elec       q    Type
REMARK                         _______ _______ _______ _____ _____    ______ ____
ROOT
ATOM     15  C   UNL     1      -1.168   1.185  23.847  0.00  0.00    +0.155 C 
ATOM     16  C   UNL     1      -0.923   1.728  23.277  0.00  0.00    +0.166 C 
ATOM     17  O   UNL     1      -0.281   1.402  22.875  0.00  0.00    -0.348 OA
ATOM     18  C   UNL     1      -0.129   0.659  23.197  0.00  0.00    +0.186 C 
ATOM     19  C   UNL     1       0.362  -0.003  23.149  0.00  0.00    +0.229 C 
ATOM     20  C   UNL     1       0.117  -0.546  23.719  0.00  0.00    +0.188 C 
ATOM     21  O   UNL     1      -0.526  -0.220  24.121  0.00  0.00    -0.348 OA
ATOM     22  C   UNL     1      -0.677   0.525  23.798  0.00  0.00    +0.168 C 
ENDROOT
BRANCH  15  14
ATOM      9  C   UNL     1      -3.802   2.144  24.408  0.00  0.00    +0.086 A 
ATOM     10  C   UNL     1      -3.866   2.421  23.634  0.00  0.00    +0.040 A 
ATOM     11  C   UNL     1      -3.239   2.321  23.107  0.00  0.00    +0.103 A 
ATOM     12  N   UNL     1      -2.549   1.942  23.353  0.00  0.00    -0.211 NA
ATOM     13  C   UNL     1      -2.485   1.664  24.128  0.00  0.00    +0.237 A 
ATOM     14  N   UNL     1      -1.795   1.286  24.375  0.00  0.00    -0.200 NA
ATOM     36  N   UNL     1      -3.112   1.765  24.655  0.00  0.00    -0.212 NA
BRANCH   9   6
ATOM      3  C   UNL     1      -5.682   2.446  25.990  0.00  0.00    +0.139 A 
ATOM      4  C   UNL     1      -5.128   3.049  25.887  0.00  0.00    +0.037 A 
ATOM      5  C   UNL     1      -4.502   2.948  25.360  0.00  0.00    +0.005 A 
ATOM      6  C   UNL     1      -4.428   2.245  24.935  0.00  0.00    +0.018 A 
ATOM      7  C   UNL     1      -4.982   1.642  25.038  0.00  0.00    +0.005 A 
ATOM      8  C   UNL     1      -5.609   1.742  25.565  0.00  0.00    +0.037 A 
BRANCH   3   2
ATOM      1  C   UNL     1      -6.637   1.893  26.897  0.00  0.00    +0.252 C 
ATOM      2  O   UNL     1      -6.308   2.547  26.517  0.00  0.00    -0.471 OA
ENDBRANCH   3   2
ENDBRANCH   9   6
ENDBRANCH  15  14
BRANCH  19  23
ATOM     23  O   UNL     1       0.989  -0.104  22.621  0.00  0.00    -0.432 OA
BRANCH  23  24
ATOM     24  C   UNL     1       1.765  -0.118  22.900  0.00  0.00    +0.425 C 
ATOM     25  O   UNL     1       1.929  -0.431  23.646  0.00  0.00    -0.224 OA
ATOM     26  N   UNL     1       2.377   0.180  22.434  0.00  0.00    -0.142 NA
BRANCH  26  27
ATOM     27  C   UNL     1       3.153   0.165  22.713  0.00  0.00    +0.077 A 
ATOM     28  C   UNL     1       3.580   0.867  22.783  0.00  0.00    +0.017 A 
ATOM     29  C   UNL     1       4.355   0.853  23.061  0.00  0.00    +0.004 A 
ATOM     30  C   UNL     1       4.706   0.136  23.271  0.00  0.00    +0.035 A 
ATOM     31  C   UNL     1       4.279  -0.567  23.202  0.00  0.00    +0.004 A 
ATOM     32  C   UNL     1       3.502  -0.552  22.923  0.00  0.00    +0.017 A 
BRANCH  30  33
ATOM     33  C   UNL     1       5.481   0.121  23.550  0.00  0.00    +0.173 C 
ATOM     34  C   UNL     1       5.655   0.417  24.301  0.00  0.00    +0.077 C 
ATOM     35  O   UNL     1       6.084  -0.190  23.080  0.00  0.00    -0.291 OA
ENDBRANCH  30  33
ENDBRANCH  26  27
ENDBRANCH  23  24
ENDBRANCH  19  23
TORSDOF 7
ENDMDL
MODEL 2
REMARK VINA RESULT:      -8.6      1.128      7.865
REMARK  Name = 
REMARK  7 active torsions:
REMARK  status: ('A' for Active; 'I' for Inactive)
REMARK    1  A    between atoms: O_2  and  C_3
REMARK    2  A    between atoms: C_6  and  C_9
REMARK    3  A    between atoms: N_14  and  C_15
REMARK    4  A    between atoms: C_19  and  O_23
REMARK    5  A    between atoms: O_23  and  C_24
REMARK    6  A    between atoms: N_26  and  C_27
REMARK    7  A    between atoms: C_30  and  C_33
REMARK                            x       y       z     vdW  Elec       q    Type
REMARK                         _______ _______ _______ _____ _____    ______ ____
ROOT
ATOM     15  C   UNL     1      -0.067   0.626  23.734  0.00  0.00    +0.155 C 
ATOM     16  C   UNL     1      -0.469   0.946  23.088  0.00  0.00    +0.166 C 
ATOM     17  O   UNL     1      -1.273   0.789  23.186  0.00  0.00    -0.348 OA
ATOM     18  C   UNL     1      -1.368   0.374  23.891  0.00  0.00    +0.186 C 
ATOM     19  C   UNL     1      -1.923   0.019  24.389  0.00  0.00    +0.229 C 
ATOM     20  C   UNL     1      -1.522  -0.300  25.034  0.00  0.00    +0.188 C 
ATOM     21  O   UNL     1      -0.718  -0.143  24.937  0.00  0.00    -0.348 OA
ATOM     22  C   UNL     1      -0.623   0.273  24.230  0.00  0.00    +0.168 C 
ENDROOT
BRANCH  15  14
ATOM      9  C   UNL     1       2.599   0.126  22.832  0.00  0.00    +0.086 A 
ATOM     10  C   UNL     1       2.302  -0.183  22.127  0.00  0.00    +0.040 A 
ATOM     11  C   UNL     1       1.487  -0.213  22.000  0.00  0.00    +0.103 A 
ATOM     12  N   UNL     1       0.969   0.067  22.578  0.00  0.00    -0.211 NA
ATOM     13  C   UNL     1       1.266   0.376  23.283  0.00  0.00    +0.237 A 
ATOM     14  N   UNL     1       0.748   0.656  23.861  0.00  0.00    -0.200 NA
ATOM     36  N   UNL     1       2.080   0.405  23.410  0.00  0.00    -0.212 NA
BRANCH   9   6
ATOM      3  C   UNL     1       5.043   0.213  23.213  0.00  0.00    +0.139 A 
ATOM      4  C   UNL     1       4.653   0.860  22.880  0.00  0.00    +0.037 A 
ATOM      5  C   UNL     1       3.839   0.831  22.753  0.00  0.00    +0.005 A 
ATOM      6  C   UNL     1       3.413   0.155  22.959  0.00  0.00    +0.018 A 
ATOM      7  C   UNL     1       3.802  -0.492  23.291  0.00  0.00    +0.005 A 
ATOM      8  C   UNL     1       4.617  -0.463  23.418  0.00  0.00    +0.037 A 
BRANCH   3   2
ATOM      1  C   UNL     1       6.218  -0.313  23.832  0.00  0.00    +0.252 C 
ATOM      2  O   UNL     1       5.857   0.242  23.339  0.00  0.00    -0.471 OA
ENDBRANCH   3   2
ENDBRANCH   9   6
ENDBRANCH  15  14
BRANCH  19  23
ATOM     23  O   UNL     1      -2.738  -0.010  24.261  0.00  0.00    -0.432 OA
BRANCH  23  24
ATOM     24  C   UNL     1      -3.238   0.508  24.664  0.00  0.00    +0.425 C 
ATOM     25  O   UNL     1      -3.188   0.574  25.485  0.00  0.00    -0.224 OA
ATOM     26  N   UNL     1      -3.787   0.960  24.248  0.00  0.00    -0.142 NA
BRANCH  26  27
ATOM     27  C   UNL     1      -4.287   1.479  24.651  0.00  0.00    +0.077 A 
ATOM     28  C   UNL     1      -4.092   2.278  24.710  0.00  0.00    +0.017 A 
ATOM     29  C   UNL     1      -4.591   2.796  25.113  0.00  0.00    +0.004 A 
ATOM     30  C   UNL     1      -5.287   2.515  25.457  0.00  0.00    +0.035 A 
ATOM     31  C   UNL     1      -5.482   1.715  25.397  0.00  0.00    +0.004 A 
ATOM     32  C   UNL     1      -4.982   1.198  24.994  0.00  0.00    +0.017 A 
BRANCH  30  33
ATOM     33  C   UNL     1      -5.786   3.032  25.859  0.00  0.00    +0.173 C 
ATOM     34  C   UNL     1      -5.842   3.820  25.621  0.00  0.00    +0.077 C 
ATOM     35  O   UNL     1      -6.230   2.762  26.501  0.00  0.00    -0.291 OA
ENDBRANCH  30  33
ENDBRANCH  26  27
ENDBRANCH  23  24
ENDBRANCH  19  23
TORSDOF 7
ENDMDL
MODEL 3
REMARK VINA RESULT:      -6.4     15.285     15.972
REMARK  Name = 
REMARK  7 active torsions:
REMARK  status: ('A' for Active; 'I' for Inactive)
REMARK    1  A    between atoms: O_2  and  C_3
REMARK    2  A    between atoms: C_6  and  C_9
REMARK    3  A    between atoms: N_14  and  C_15
REMARK    4  A    between atoms: C_19  and  O_23
REMARK    5  A    between atoms: O_23  and  C_24
REMARK    6  A    between atoms: N_26  and  C_27
REMARK    7  A    between atoms: C_30  and  C_33
REMARK                            x       y       z     vdW  Elec       q    Type
REMARK                         _______ _______ _______ _____ _____    ______ ____
ROOT
ATOM     15  C   UNL     1      -6.730  -9.990  12.892  0.00  0.00    +0.155 C 
ATOM     16  C   UNL     1      -6.418 -10.753  12.882  0.00  0.00    +0.166 C 
ATOM     17  O   UNL     1      -5.833 -10.780  12.301  0.00  0.00    -0.348 OA
ATOM     18  C   UNL     1      -5.783 -10.035  11.953  0.00  0.00    +0.186 C 
ATOM     19  C   UNL     1      -5.392  -9.590  11.379  0.00  0.00    +0.229 C 
ATOM     20  C   UNL     1      -5.704  -8.827  11.389  0.00  0.00    +0.188 C 
ATOM     21  O   UNL     1      -6.289  -8.800  11.969  0.00  0.00    -0.348 OA
ATOM     22  C   UNL     1      -6.338  -9.546  12.318  0.00  0.00    +0.168 C 
ENDROOT
BRANCH  15  14
ATOM      9  C   UNL     1      -7.900  -9.817  15.495  0.00  0.00    +0.086 A 
ATOM     10  C   UNL     1      -7.285 -10.274  15.801  0.00  0.00    +0.040 A 
ATOM     11  C   UNL     1      -6.685 -10.546  15.303  0.00  0.00    +0.103 A 
ATOM     12  N   UNL     1      -6.700 -10.361  14.499  0.00  0.00    -0.211 NA
ATOM     13  C   UNL     1      -7.315  -9.903  14.193  0.00  0.00    +0.237 A 
ATOM     14  N   UNL     1      -7.330  -9.718  13.389  0.00  0.00    -0.200 NA
ATOM     36  N   UNL     1      -7.915  -9.632  14.691  0.00  0.00    -0.212 NA
BRANCH   9   6
ATOM      3  C   UNL     1      -9.699  -9.003  16.987  0.00  0.00    +0.139 A 
ATOM      4  C   UNL     1      -8.940  -8.680  17.040  0.00  0.00    +0.037 A 
ATOM      5  C   UNL     1      -8.341  -8.952  16.542  0.00  0.00    +0.005 A 
ATOM      6  C   UNL     1      -8.499  -9.546  15.992  0.00  0.00    +0.018 A 
ATOM      7  C   UNL     1      -9.256  -9.868  15.939  0.00  0.00    +0.005 A 
ATOM      8  C   UNL     1      -9.856  -9.597  16.436  0.00  0.00    +0.037 A 
BRANCH   3   2
ATOM      1  C   UNL     1     -10.427  -7.921  17.569  0.00  0.00    +0.252 C 
ATOM      2  O   UNL     1     -10.298  -8.732  17.484  0.00  0.00    -0.471 OA
ENDBRANCH   3   2
ENDBRANCH   9   6
ENDBRANCH  15  14
BRANCH  19  23
ATOM     23  O   UNL     1      -4.792  -9.862  10.881  0.00  0.00    -0.432 OA
BRANCH  23  24
ATOM     24  C   UNL     1      -4.029  -9.556  10.949  0.00  0.00    +0.425 C 
ATOM     25  O   UNL     1      -3.910  -8.740  10.946  0.00  0.00    -0.224 OA
ATOM     26  N   UNL     1      -3.384 -10.066  11.021  0.00  0.00    -0.142 NA
BRANCH  26  27
ATOM     27  C   UNL     1      -2.621  -9.760  11.089  0.00  0.00    +0.077 A 
ATOM     28  C   UNL     1      -2.337  -9.230  10.526  0.00  0.00    +0.017 A 
ATOM     29  C   UNL     1      -1.575  -8.924  10.594  0.00  0.00    +0.004 A 
ATOM     30  C   UNL     1      -1.095  -9.149  11.227  0.00  0.00    +0.035 A 
ATOM     31  C   UNL     1      -1.379  -9.680  11.791  0.00  0.00    +0.004 A 
ATOM     32  C   UNL     1      -2.142  -9.985  11.722  0.00  0.00    +0.017 A 
BRANCH  30  33
ATOM     33  C   UNL     1      -0.332  -8.844  11.295  0.00  0.00    +0.173 C 
ATOM     34  C   UNL     1       0.223  -8.984  10.701  0.00  0.00    +0.077 C 
ATOM     35  O   UNL     1      -0.123  -8.399  11.958  0.00  0.00    -0.291 OA
ENDBRANCH  30  33
ENDBRANCH  26  27
ENDBRANCH  23  24
ENDBRANCH  19  23
TORSDOF 7
ENDMDL
MODEL 4
REMARK VINA RESULT:      -6.1      1.950      7.856
REMARK  Name = 
REMARK  7 active torsions:
REMARK  status: ('A' for Active; 'I' for Inactive)
REMARK    1  A    between atoms: O_2  and  C_3
REMARK    2  A    between atoms: C_6  and  C_9
REMARK    3  A    between atoms: N_14  and  C_15
REMARK    4  A    between atoms: C_19  and  O_23
REMARK    5  A    between atoms: O_23  and  C_24
REMARK    6  A    between atoms: N_26  and  C_27
REMARK    7  A    between atoms: C_30  and  C_33
REMARK                            x       y       z     vdW  Elec       q    Type
REMARK                         _______ _______ _______ _____ _____    ______ ____
ROOT
ATOM     15  C   UNL     1      -0.173   2.706  25.257  0.00  0.00    +0.155 C 
ATOM     16  C   UNL     1      -0.503   2.296  25.893  0.00  0.00    +0.166 C 
ATOM     17  O   UNL     1      -1.210   2.669  26.096  0.00  0.00    -0.348 OA
ATOM     18  C   UNL     1      -1.317   3.308  25.587  0.00  0.00    +0.186 C 
ATOM     19  C   UNL     1      -1.820   3.934  25.396  0.00  0.00    +0.229 C 
ATOM     20  C   UNL     1      -1.491   4.343  24.760  0.00  0.00    +0.188 C 
ATOM     21  O   UNL     1      -0.784   3.970  24.557  0.00  0.00    -0.348 OA
ATOM     22  C   UNL     1      -0.676   3.331  25.068  0.00  0.00    +0.168 C 
ENDROOT
BRANCH  15  14
ATOM      9  C   UNL     1       1.360   0.969  23.582  0.00  0.00    +0.086 A 
ATOM     10  C   UNL     1       0.708   0.469  23.504  0.00  0.00    +0.040 A 
ATOM     11  C   UNL     1      -0.001   0.654  23.884  0.00  0.00    +0.103 A 
ATOM     12  N   UNL     1      -0.059   1.338  24.342  0.00  0.00    -0.211 NA
ATOM     13  C   UNL     1       0.594   1.837  24.419  0.00  0.00    +0.237 A 
ATOM     14  N   UNL     1       0.536   2.521  24.877  0.00  0.00    -0.200 NA
ATOM     36  N   UNL     1       1.302   1.653  24.040  0.00  0.00    -0.212 NA
BRANCH   9   6
ATOM      3  C   UNL     1       3.486   0.417  22.442  0.00  0.00    +0.139 A 
ATOM      4  C   UNL     1       2.833  -0.083  22.363  0.00  0.00    +0.037 A 
ATOM      5  C   UNL     1       2.125   0.102  22.743  0.00  0.00    +0.005 A 
ATOM      6  C   UNL     1       2.068   0.785  23.202  0.00  0.00    +0.018 A 
ATOM      7  C   UNL     1       2.720   1.284  23.281  0.00  0.00    +0.005 A 
ATOM      8  C   UNL     1       3.429   1.100  22.901  0.00  0.00    +0.037 A 
BRANCH   3   2
ATOM      1  C   UNL     1       4.889   0.156  22.501  0.00  0.00    +0.252 C 
ATOM      2  O   UNL     1       4.195   0.232  22.063  0.00  0.00    -0.471 OA
ENDBRANCH   3   2
ENDBRANCH   9   6
ENDBRANCH  15  14
BRANCH  19  23
ATOM     23  O   UNL     1      -2.529   4.118  25.776  0.00  0.00    -0.432 OA
BRANCH  23  24
ATOM     24  C   UNL     1      -3.233   3.761  25.533  0.00  0.00    +0.425 C 
ATOM     25  O   UNL     1      -3.478   3.825  24.748  0.00  0.00    -0.224 OA
ATOM     26  N   UNL     1      -3.691   3.341  26.075  0.00  0.00    -0.142 NA
BRANCH  26  27
ATOM     27  C   UNL     1      -4.394   2.984  25.833  0.00  0.00    +0.077 A 
ATOM     28  C   UNL     1      -5.102   3.405  25.863  0.00  0.00    +0.017 A 
ATOM     29  C   UNL     1      -5.805   3.048  25.621  0.00  0.00    +0.004 A 
ATOM     30  C   UNL     1      -5.800   2.269  25.347  0.00  0.00    +0.035 A 
ATOM     31  C   UNL     1      -5.091   1.848  25.316  0.00  0.00    +0.004 A 
ATOM     32  C   UNL     1      -4.388   2.206  25.559  0.00  0.00    +0.017 A 
BRANCH  30  33
ATOM     33  C   UNL     1      -6.501   1.912  25.105  0.00  0.00    +0.173 C 
ATOM     34  C   UNL     1      -6.685   1.866  24.301  0.00  0.00    +0.077 C 
ATOM     35  O   UNL     1      -7.022   1.600  25.665  0.00  0.00    -0.291 OA
ENDBRANCH  30  33
ENDBRANCH  26  27
ENDBRANCH  23  24
ENDBRANCH  19  23
TORSDOF 7
ENDMDL
MODEL 5
REMARK VINA RESULT:      -5.6     16.652     18.972
REMARK  Name = 
REMARK  7 active torsions:
REMARK  status: ('A' for Active; 'I' for Inactive)
REMARK    1  A    between atoms: O_2  and  C_3
REMARK    2  A    between atoms: C_6  and  C_9
REMARK    3  A    between atoms: N_14  and  C_15
REMARK    4  A    between atoms: C_19  and  O_23
REMARK    5  A    between atoms: O_23  and  C_24
REMARK    6  A    between atoms: N_26  and  C_27
REMARK    7  A    between atoms: C_30  and  C_33
REMARK                            x       y       z     vdW  Elec       q    Type
REMARK                         _______ _______ _______ _____ _____    ______ ____
ROOT
ATOM     15  C   UNL     1      -3.594  -9.436   9.983  0.00  0.00    +0.155 C 
ATOM     16  C   UNL     1      -3.722 -10.250   9.976  0.00  0.00    +0.166 C 
ATOM     17  O   UNL     1      -4.533 -10.379   9.904  0.00  0.00    -0.348 OA
ATOM     18  C   UNL     1      -4.907  -9.645   9.867  0.00  0.00    +0.186 C 
ATOM     19  C   UNL     1      -5.638  -9.270   9.799  0.00  0.00    +0.229 C 
ATOM     20  C   UNL     1      -5.510  -8.456   9.806  0.00  0.00    +0.188 C 
ATOM     21  O   UNL     1      -4.699  -8.327   9.878  0.00  0.00    -0.348 OA
ATOM     22  C   UNL     1      -4.326  -9.062   9.916  0.00  0.00    +0.168 C 
ENDROOT
BRANCH  15  14
ATOM      9  C   UNL     1      -1.068  -9.144  11.288  0.00  0.00    +0.086 A 
ATOM     10  C   UNL     1      -1.269  -9.747  11.813  0.00  0.00    +0.040 A 
ATOM     11  C   UNL     1      -2.001 -10.122  11.750  0.00  0.00    +0.103 A 
ATOM     12  N   UNL     1      -2.532  -9.894  11.161  0.00  0.00    -0.211 NA
ATOM     13  C   UNL     1      -2.330  -9.289  10.636  0.00  0.00    +0.237 A 
ATOM     14  N   UNL     1      -2.861  -9.061  10.047  0.00  0.00    -0.200 NA
ATOM     36  N   UNL     1      -1.599  -8.915  10.700  0.00  0.00    -0.212 NA
BRANCH   9   6
ATOM      3  C   UNL     1       1.129  -8.020  11.480  0.00  0.00    +0.139 A 
ATOM      4  C   UNL     1       0.535  -7.862  12.031  0.00  0.00    +0.037 A 
ATOM      5  C   UNL     1      -0.196  -8.237  11.967  0.00  0.00    +0.005 A 
ATOM      6  C   UNL     1      -0.336  -8.769  11.352  0.00  0.00    +0.018 A 
ATOM      7  C   UNL     1       0.257  -8.927  10.801  0.00  0.00    +0.005 A 
ATOM      8  C   UNL     1       0.990  -8.552  10.865  0.00  0.00    +0.037 A 
BRANCH   3   2
ATOM      1  C   UNL     1       1.951  -7.000  12.050  0.00  0.00    +0.252 C 
ATOM      2  O   UNL     1       1.861  -7.645  11.544  0.00  0.00    -0.471 OA
ENDBRANCH   3   2
ENDBRANCH   9   6
ENDBRANCH  15  14
BRANCH  19  23
ATOM     23  O   UNL     1      -6.371  -9.645   9.735  0.00  0.00    -0.432 OA
BRANCH  23  24
ATOM     24  C   UNL     1      -7.062  -9.197   9.693  0.00  0.00    +0.425 C 
ATOM     25  O   UNL     1      -7.281  -8.716  10.327  0.00  0.00    -0.224 OA
ATOM     26  N   UNL     1      -7.535  -9.229   9.018  0.00  0.00    -0.142 NA
BRANCH  26  27
ATOM     27  C   UNL     1      -8.226  -8.780   8.976  0.00  0.00    +0.077 A 
ATOM     28  C   UNL     1      -8.894  -9.011   9.400  0.00  0.00    +0.017 A 
ATOM     29  C   UNL     1      -9.585  -8.563   9.359  0.00  0.00    +0.004 A 
ATOM     30  C   UNL     1      -9.608  -7.883   8.891  0.00  0.00    +0.035 A 
ATOM     31  C   UNL     1      -8.939  -7.652   8.466  0.00  0.00    +0.004 A 
ATOM     32  C   UNL     1      -8.248  -8.101   8.509  0.00  0.00    +0.017 A 
BRANCH  30  33
ATOM     33  C   UNL     1     -10.298  -7.434   8.849  0.00  0.00    +0.173 C 
ATOM     34  C   UNL     1     -10.570  -7.032   9.516  0.00  0.00    +0.077 C 
ATOM     35  O   UNL     1     -10.717  -7.387   8.139  0.00  0.00    -0.291 OA
ENDBRANCH  30  33
ENDBRANCH  26  27
ENDBRANCH  23  24
ENDBRANCH  19  23
TORSDOF 7
ENDMDL
MODEL 6
REMARK VINA RESULT:      -5.4     16.110     18.388
REMARK  Name = 
REMARK  7 active torsions:
REMARK  status: ('A' for Active; 'I' for Inactive)
REMARK    1  A    between atoms: O_2  and  C_3
REMARK    2  A    between atoms: C_6  and  C_9
REMARK    3  A    between atoms: N_14  and  C_15
REMARK    4  A    between atoms: C_19  and  O_23
REMARK    5  A    between atoms: O_23  and  C_24
REMARK    6  A    between atoms: N_26  and  C_27
REMARK    7  A    between atoms: C_30  and  C_33
REMARK                            x       y       z     vdW  Elec       q    Type
REMARK                         _______ _______ _______ _____ _____    ______ ____
ROOT
ATOM     15  C   UNL     1      -3.748  -9.472  10.118  0.00  0.00    +0.155 C 
ATOM     16  C   UNL     1      -3.862 -10.267   9.934  0.00  0.00    +0.166 C 
ATOM     17  O   UNL     1      -4.673 -10.417   9.942  0.00  0.00    -0.348 OA
ATOM     18  C   UNL     1      -5.060  -9.715  10.131  0.00  0.00    +0.186 C 
ATOM     19  C   UNL     1      -5.800  -9.372  10.253  0.00  0.00    +0.229 C 
ATOM     20  C   UNL     1      -5.687  -8.576  10.438  0.00  0.00    +0.188 C 
ATOM     21  O   UNL     1      -4.876  -8.426  10.430  0.00  0.00    -0.348 OA
ATOM     22  C   UNL     1      -4.488  -9.130  10.240  0.00  0.00    +0.168 C 
ENDROOT
BRANCH  15  14
ATOM      9  C   UNL     1      -1.154  -9.229  11.295  0.00  0.00    +0.086 A 
ATOM     10  C   UNL     1      -1.312  -9.880  11.776  0.00  0.00    +0.040 A 
ATOM     11  C   UNL     1      -2.039 -10.266  11.723  0.00  0.00    +0.103 A 
ATOM     12  N   UNL     1      -2.609 -10.002  11.188  0.00  0.00    -0.211 NA
ATOM     13  C   UNL     1      -2.450  -9.350  10.706  0.00  0.00    +0.237 A 
ATOM     14  N   UNL     1      -3.020  -9.085  10.172  0.00  0.00    -0.200 NA
ATOM     36  N   UNL     1      -1.724  -8.964  10.760  0.00  0.00    -0.212 NA
BRANCH   9   6
ATOM      3  C   UNL     1       1.028  -8.071  11.456  0.00  0.00    +0.139 A 
ATOM      4  C   UNL     1       0.896  -8.623  10.856  0.00  0.00    +0.037 A 
ATOM      5  C   UNL     1       0.169  -9.008  10.802  0.00  0.00    +0.005 A 
ATOM      6  C   UNL     1      -0.427  -8.844  11.348  0.00  0.00    +0.018 A 
ATOM      7  C   UNL     1      -0.296  -8.292  11.948  0.00  0.00    +0.005 A 
ATOM      8  C   UNL     1       0.431  -7.906  12.001  0.00  0.00    +0.037 A 
BRANCH   3   2
ATOM      1  C   UNL     1       1.837  -7.027  11.999  0.00  0.00    +0.252 C 
ATOM      2  O   UNL     1       1.754  -7.685  11.509  0.00  0.00    -0.471 OA
ENDBRANCH   3   2
ENDBRANCH   9   6
ENDBRANCH  15  14
BRANCH  19  23
ATOM     23  O   UNL     1      -6.528  -9.758  10.200  0.00  0.00    -0.432 OA
BRANCH  23  24
ATOM     24  C   UNL     1      -7.096  -9.651  10.789  0.00  0.00    +0.425 C 
ATOM     25  O   UNL     1      -7.399  -8.899  10.938  0.00  0.00    -0.224 OA
ATOM     26  N   UNL     1      -7.361 -10.297  11.228  0.00  0.00    -0.142 NA
BRANCH  26  27
ATOM     27  C   UNL     1      -7.929 -10.190  11.817  0.00  0.00    +0.077 A 
ATOM     28  C   UNL     1      -8.726 -10.130  11.615  0.00  0.00    +0.017 A 
ATOM     29  C   UNL     1      -9.294 -10.023  12.203  0.00  0.00    +0.004 A 
ATOM     30  C   UNL     1      -9.065  -9.977  12.995  0.00  0.00    +0.035 A 
ATOM     31  C   UNL     1      -8.267 -10.038  13.197  0.00  0.00    +0.004 A 
ATOM     32  C   UNL     1      -7.699 -10.145  12.608  0.00  0.00    +0.017 A 
BRANCH  30  33
ATOM     33  C   UNL     1      -9.631  -9.871  13.584  0.00  0.00    +0.173 C 
ATOM     34  C   UNL     1      -9.593  -9.212  14.079  0.00  0.00    +0.077 C 
ATOM     35  O   UNL     1     -10.238 -10.423  13.679  0.00  0.00    -0.291 OA
ENDBRANCH  30  33
ENDBRANCH  26  27
ENDBRANCH  23  24
ENDBRANCH  19  23
TORSDOF 7
ENDMDL
MODEL 7
REMARK VINA RESULT:      -5.0     15.353     17.631
REMARK  Name = 
REMARK  7 active torsions:
REMARK  status: ('A' for Active; 'I' for Inactive)
REMARK    1  A    between atoms: O_2  and  C_3
REMARK    2  A    between atoms: C_6  and  C_9
REMARK    3  A    between atoms: N_14  and  C_15
REMARK    4  A    between atoms: C_19  and  O_23
REMARK    5  A    between atoms: O_23  and  C_24
REMARK    6  A    between atoms: N_26  and  C_27
REMARK    7  A    between atoms: C_30  and  C_33
REMARK                            x       y       z     vdW  Elec       q    Type
REMARK                         _______ _______ _______ _____ _____    ______ ____
ROOT
ATOM     15  C   UNL     1      -5.968 -10.358  13.051  0.00  0.00    +0.155 C 
ATOM     16  C   UNL     1      -6.525 -10.368  12.443  0.00  0.00    +0.166 C 
ATOM     17  O   UNL     1      -7.274 -10.404  12.785  0.00  0.00    -0.348 OA
ATOM     18  C   UNL     1      -7.182 -10.418  13.603  0.00  0.00    +0.186 C 
ATOM     19  C   UNL     1      -7.587 -10.449  14.322  0.00  0.00    +0.229 C 
ATOM     20  C   UNL     1      -7.030 -10.440  14.930  0.00  0.00    +0.188 C 
ATOM     21  O   UNL     1      -6.280 -10.403  14.588  0.00  0.00    -0.348 OA
ATOM     22  C   UNL     1      -6.374 -10.390  13.768  0.00  0.00    +0.168 C 
ENDROOT
BRANCH  15  14
ATOM      9  C   UNL     1      -3.681  -9.660  11.485  0.00  0.00    +0.086 A 
ATOM     10  C   UNL     1      -4.176  -9.380  10.888  0.00  0.00    +0.040 A 
ATOM     11  C   UNL     1      -4.995  -9.414  10.980  0.00  0.00    +0.103 A 
ATOM     12  N   UNL     1      -5.320  -9.729  11.671  0.00  0.00    -0.211 NA
ATOM     13  C   UNL     1      -4.824 -10.009  12.268  0.00  0.00    +0.237 A 
ATOM     14  N   UNL     1      -5.149 -10.324  12.959  0.00  0.00    -0.200 NA
ATOM     36  N   UNL     1      -4.006  -9.975  12.175  0.00  0.00    -0.212 NA
BRANCH   9   6
ATOM      3  C   UNL     1      -1.224  -9.557  11.206  0.00  0.00    +0.139 A 
ATOM      4  C   UNL     1      -1.717  -9.171  10.669  0.00  0.00    +0.037 A 
ATOM      5  C   UNL     1      -2.536  -9.205  10.762  0.00  0.00    +0.005 A 
ATOM      6  C   UNL     1      -2.863  -9.626  11.392  0.00  0.00    +0.018 A 
ATOM      7  C   UNL     1      -2.370 -10.012  11.929  0.00  0.00    +0.005 A 
ATOM      8  C   UNL     1      -1.551  -9.978  11.836  0.00  0.00    +0.037 A 
BRANCH   3   2
ATOM      1  C   UNL     1      -0.020  -8.794  11.119  0.00  0.00    +0.252 C 
ATOM      2  O   UNL     1      -0.405  -9.523  11.113  0.00  0.00    -0.471 OA
ENDBRANCH   3   2
ENDBRANCH   9   6
ENDBRANCH  15  14
BRANCH  19  23
ATOM     23  O   UNL     1      -8.406 -10.483  14.414  0.00  0.00    -0.432 OA
BRANCH  23  24
ATOM     24  C   UNL     1      -8.749 -10.280  15.137  0.00  0.00    +0.425 C 
ATOM     25  O   UNL     1      -8.667 -10.781  15.787  0.00  0.00    -0.224 OA
ATOM     26  N   UNL     1      -9.172  -9.576  15.209  0.00  0.00    -0.142 NA
BRANCH  26  27
ATOM     27  C   UNL     1      -9.514  -9.373  15.932  0.00  0.00    +0.077 A 
ATOM     28  C   UNL     1      -9.138  -8.834  16.430  0.00  0.00    +0.017 A 
ATOM     29  C   UNL     1      -9.480  -8.631  17.152  0.00  0.00    +0.004 A 
ATOM     30  C   UNL     1     -10.200  -8.966  17.377  0.00  0.00    +0.035 A 
ATOM     31  C   UNL     1     -10.577  -9.505  16.878  0.00  0.00    +0.004 A 
ATOM     32  C   UNL     1     -10.234  -9.708  16.156  0.00  0.00    +0.017 A 
BRANCH  30  33
ATOM     33  C   UNL     1     -10.543  -8.764  18.098  0.00  0.00    +0.173 C 
ATOM     34  C   UNL     1     -10.710  -9.350  18.654  0.00  0.00    +0.077 C 
ATOM     35  O   UNL     1     -10.719  -7.975  18.265  0.00  0.00    -0.291 OA
ENDBRANCH  30  33
ENDBRANCH  26  27
ENDBRANCH  23  24
ENDBRANCH  19  23
TORSDOF 7
ENDMDL
