MODEL 1
REMARK VINA RESULT:     -10.9      0.000      0.000
REMARK  Name = 
REMARK  11 active torsions:
REMARK  status: ('A' for Active; 'I' for Inactive)
REMARK    1  A    between atoms: O_2  and  C_3
REMARK    2  A    between atoms: C_4  and  O_5
REMARK    3  A    between atoms: C_8  and  C_9
REMARK    4  A    between atoms: C_9  and  N_10
REMARK    5  A    between atoms: C_11  and  C_13
REMARK    6  A    between atoms: C_13  and  C_14
REMARK    7  A    between atoms: C_19  and  C_20
REMARK    8  A    between atoms: C_20  and  C_21
REMARK    9  A    between atoms: C_24  and  C_25
REMARK   10  A    between atoms: C_25  and  S_26
REMARK   11  A    between atoms: S_26  and  C_27
REMARK                            x       y       z     vdW  Elec       q    Type
REMARK                         _______ _______ _______ _____ _____    ______ ____
ROOT
ATOM     14  C   UNL     1      -2.505   3.364  25.152  0.00  0.00    +0.012 C 
ATOM     15  C   UNL     1      -2.258   3.827  25.790  0.00  0.00    +0.019 C 
ATOM     16  C   UNL     1      -2.815   4.154  26.302  0.00  0.00    +0.089 C 
ATOM     17  N   UNL     1      -3.620   4.019  26.178  0.00  0.00    -0.218 NA
ATOM     18  C   UNL     1      -3.867   3.556  25.541  0.00  0.00    +0.089 C 
ATOM     19  C   UNL     1      -3.310   3.229  25.028  0.00  0.00    +0.024 C 
ENDROOT
BRANCH  14  13
ATOM     13  C   UNL     1      -1.948   3.037  24.640  0.00  0.00    +0.087 C 
BRANCH  13  11
ATOM     10  N   UNL     1      -0.552   2.749  24.533  0.00  0.00    -0.201 NA
ATOM     11  C   UNL     1      -1.162   3.287  24.670  0.00  0.00    +0.242 C 
ATOM     12  O   UNL     1      -0.986   4.075  24.837  0.00  0.00    -0.273 OA
BRANCH  10   9
ATOM      9  C   UNL     1      -0.728   1.960  24.366  0.00  0.00    +0.142 C 
BRANCH   9   8
ATOM      3  C   UNL     1       1.024   0.468  23.456  0.00  0.00    +0.172 A 
ATOM      4  C   UNL     1       0.307   0.154  23.710  0.00  0.00    +0.172 A 
ATOM      7  C   UNL     1      -0.278   0.650  24.014  0.00  0.00    +0.037 A 
ATOM      8  C   UNL     1      -0.143   1.463  24.063  0.00  0.00    +0.003 A 
ATOM     34  C   UNL     1       0.574   1.778  23.808  0.00  0.00    +0.001 A 
ATOM     35  C   UNL     1       1.159   1.281  23.504  0.00  0.00    +0.040 A 
BRANCH   3   2
ATOM      1  C   UNL     1       2.267   0.292  22.773  0.00  0.00    +0.253 C 
ATOM      2  O   UNL     1       1.609  -0.029  23.152  0.00  0.00    -0.468 OA
ENDBRANCH   3   2
BRANCH   4   5
ATOM      5  O   UNL     1       0.172  -0.660  23.662  0.00  0.00    -0.468 OA
ATOM      6  C   UNL     1      -0.244  -1.046  24.261  0.00  0.00    +0.253 C 
ENDBRANCH   4   5
ENDBRANCH   9   8
ENDBRANCH  10   9
ENDBRANCH  13  11
ENDBRANCH  14  13
BRANCH  19  20
ATOM     20  C   UNL     1      -3.557   2.766  24.392  0.00  0.00    +0.051 C 
BRANCH  20  21
ATOM     21  C   UNL     1      -4.037   2.108  24.522  0.00  0.00    +0.100 A 
ATOM     22  N   UNL     1      -4.847   2.121  24.673  0.00  0.00    -0.082 NA
ATOM     23  O   UNL     1      -5.101   1.342  24.768  0.00  0.00    -0.357 OA
ATOM     24  C   UNL     1      -4.447   0.848  24.676  0.00  0.00    +0.165 A 
ATOM     33  C   UNL     1      -3.789   1.320  24.524  0.00  0.00    +0.054 A 
BRANCH  24  25
ATOM     25  C   UNL     1      -4.452   0.024  24.727  0.00  0.00    +0.129 C 
BRANCH  25  26
ATOM     26  S   UNL     1      -3.886  -0.418  24.320  0.00  0.00    -0.105 S 
BRANCH  26  27
ATOM     27  C   UNL     1      -3.866  -1.238  24.402  0.00  0.00    +0.026 A 
ATOM     28  C   UNL     1      -4.186  -1.720  23.813  0.00  0.00    +0.006 A 
ATOM     29  C   UNL     1      -4.167  -2.540  23.895  0.00  0.00    +0.001 A 
ATOM     30  C   UNL     1      -3.827  -2.880  24.566  0.00  0.00    +0.000 A 
ATOM     31  C   UNL     1      -3.506  -2.398  25.155  0.00  0.00    +0.001 A 
ATOM     32  C   UNL     1      -3.526  -1.578  25.072  0.00  0.00    +0.006 A 
ENDBRANCH  26  27
ENDBRANCH  25  26
ENDBRANCH  24  25
ENDBRANCH  20  21
ENDBRANCH  19  20
TORSDOF 11
ENDMDL
MODEL 2
REMARK VINA RESULT:     -10.4      1.974      5.807
REMARK  Name = 
REMARK  11 active torsions:
REMARK  status: ('A' for Active; 'I' for Inactive)
REMARK    1  A    between atoms: O_2  and  C_3
REMARK    2  A    between atoms: C_4  and  O_5
REMARK    3  A    between atoms: C_8  and  C_9
REMARK    4  A    between atoms: C_9  and  N_10
REMARK    5  A    between atoms: C_11  and  C_13
REMARK    6  A    between atoms: C_13  and  C_14
REMARK    7  A    between atoms: C_19  and  C_20
REMARK    8  A    between atoms: C_20  and  C_21
REMARK    9  A    between atoms: C_24  and  C_25
REMARK   10  A    between atoms: C_25  and  S_26
REMARK   11  A    between atoms: S_26  and  C_27
REMARK                            x       y       z     vdW  Elec       q    Type
REMARK                         _______ _______ _______ _____ _____    ______ ____
ROOT
ATOM     14  C   UNL     1      -3.158  -1.605  24.758  0.00  0.00    +0.012 C 
ATOM     15  C   UNL     1      -3.438  -2.184  24.240  0.00  0.00    +0.019 C 
ATOM     16  C   UNL     1      -2.942  -2.796  23.998  0.00  0.00    +0.089 C 
ATOM     17  N   UNL     1      -2.164  -2.830  24.273  0.00  0.00    -0.218 NA
ATOM     18  C   UNL     1      -1.884  -2.252  24.790  0.00  0.00    +0.089 C 
ATOM     19  C   UNL     1      -2.380  -1.639  25.033  0.00  0.00    +0.024 C 
ENDROOT
BRANCH  14  13
ATOM     13  C   UNL     1      -3.655  -0.993  25.000  0.00  0.00    +0.087 C 
BRANCH  13  11
ATOM     10  N   UNL     1      -4.699  -0.085  24.642  0.00  0.00    -0.201 NA
ATOM     11  C   UNL     1      -4.341  -0.825  24.574  0.00  0.00    +0.242 C 
ATOM     12  O   UNL     1      -4.669  -1.397  24.078  0.00  0.00    -0.273 OA
BRANCH  10   9
ATOM      9  C   UNL     1      -4.370   0.487  25.138  0.00  0.00    +0.142 C 
BRANCH   9   8
ATOM      3  C   UNL     1      -5.173   2.825  25.027  0.00  0.00    +0.172 A 
ATOM      4  C   UNL     1      -4.557   2.577  24.539  0.00  0.00    +0.172 A 
ATOM      7  C   UNL     1      -4.289   1.798  24.575  0.00  0.00    +0.037 A 
ATOM      8  C   UNL     1      -4.639   1.266  25.102  0.00  0.00    +0.003 A 
ATOM     34  C   UNL     1      -5.254   1.514  25.590  0.00  0.00    +0.001 A 
ATOM     35  C   UNL     1      -5.522   2.294  25.553  0.00  0.00    +0.040 A 
BRANCH   3   2
ATOM      1  C   UNL     1      -5.838   3.936  25.633  0.00  0.00    +0.253 C 
ATOM      2  O   UNL     1      -5.441   3.605  24.990  0.00  0.00    -0.468 OA
ENDBRANCH   3   2
BRANCH   4   5
ATOM      5  O   UNL     1      -4.208   3.109  24.012  0.00  0.00    -0.468 OA
ATOM      6  C   UNL     1      -3.823   2.830  23.339  0.00  0.00    +0.253 C 
ENDBRANCH   4   5
ENDBRANCH   9   8
ENDBRANCH  10   9
ENDBRANCH  13  11
ENDBRANCH  14  13
BRANCH  19  20
ATOM     20  C   UNL     1      -2.100  -1.061  25.550  0.00  0.00    +0.051 C 
BRANCH  20  21
ATOM     21  C   UNL     1      -1.452  -0.597  25.337  0.00  0.00    +0.100 A 
ATOM     22  N   UNL     1      -0.702  -0.875  25.137  0.00  0.00    -0.082 NA
ATOM     23  O   UNL     1      -0.227  -0.223  24.964  0.00  0.00    -0.357 OA
ATOM     24  C   UNL     1      -0.684   0.457  25.057  0.00  0.00    +0.165 A 
ATOM     33  C   UNL     1      -1.441   0.227  25.288  0.00  0.00    +0.054 A 
BRANCH  24  25
ATOM     25  C   UNL     1      -0.428   1.233  24.940  0.00  0.00    +0.129 C 
BRANCH  25  26
ATOM     26  S   UNL     1      -0.546   1.800  25.528  0.00  0.00    -0.105 S 
BRANCH  26  27
ATOM     27  C   UNL     1      -0.629   2.595  25.323  0.00  0.00    +0.026 A 
ATOM     28  C   UNL     1      -1.060   3.103  25.811  0.00  0.00    +0.006 A 
ATOM     29  C   UNL     1      -1.143   3.898  25.606  0.00  0.00    +0.001 A 
ATOM     30  C   UNL     1      -0.797   4.185  24.914  0.00  0.00    +0.000 A 
ATOM     31  C   UNL     1      -0.366   3.676  24.427  0.00  0.00    +0.001 A 
ATOM     32  C   UNL     1      -0.283   2.882  24.632  0.00  0.00    +0.006 A 
ENDBRANCH  26  27
ENDBRANCH  25  26
ENDBRANCH  24  25
ENDBRANCH  20  21
ENDBRANCH  19  20
TORSDOF 11
ENDMDL
MODEL 3
REMARK VINA RESULT:     -10.2      1.310      4.394
REMARK  Name = 
REMARK  11 active torsions:
REMARK  status: ('A' for Active; 'I' for Inactive)
REMARK    1  A    between atoms: O_2  and  C_3
REMARK    2  A    between atoms: C_4  and  O_5
REMARK    3  A    between atoms: C_8  and  C_9
REMARK    4  A    between atoms: C_9  and  N_10
REMARK    5  A    between atoms: C_11  and  C_13
REMARK    6  A    between atoms: C_13  and  C_14
REMARK    7  A    between atoms: C_19  and  C_20
REMARK    8  A    between atoms: C_20  and  C_21
REMARK    9  A    between atoms: C_24  and  C_25
REMARK   10  A    between atoms: C_25  and  S_26
REMARK   11  A    between atoms: S_26  and  C_27
REMARK                            x       y       z     vdW  Elec       q    Type
REMARK                         _______ _______ _______ _____ _____    ______ ____
ROOT
ATOM     14  C   UNL     1      -0.885   2.814  25.203  0.00  0.00    +0.012 C 
ATOM     15  C   UNL     1      -0.663   3.212  25.891  0.00  0.00    +0.019 C 
ATOM     16  C   UNL     1       0.011   2.978  26.305  0.00  0.00    +0.089 C 
ATOM     17  N   UNL     1       0.465   2.346  26.030  0.00  0.00    -0.218 NA
ATOM     18  C   UNL     1       0.244   1.948  25.342  0.00  0.00    +0.089 C 
ATOM     19  C   UNL     1      -0.430   2.181  24.928  0.00  0.00    +0.024 C 
ENDROOT
BRANCH  14  13
ATOM     13  C   UNL     1      -1.559   3.047  24.790  0.00  0.00    +0.087 C 
BRANCH  13  11
ATOM     10  N   UNL     1      -2.835   3.661  24.980  0.00  0.00    -0.201 NA
ATOM     11  C   UNL     1      -2.015   3.676  25.068  0.00  0.00    +0.242 C 
ATOM     12  O   UNL     1      -1.653   4.320  25.433  0.00  0.00    -0.273 OA
BRANCH  10   9
ATOM      9  C   UNL     1      -3.199   3.016  24.614  0.00  0.00    +0.142 C 
BRANCH   9   8
ATOM      3  C   UNL     1      -5.556   2.472  25.134  0.00  0.00    +0.172 A 
ATOM      4  C   UNL     1      -5.242   3.199  25.361  0.00  0.00    +0.172 A 
ATOM      7  C   UNL     1      -4.456   3.381  25.188  0.00  0.00    +0.037 A 
ATOM      8  C   UNL     1      -3.985   2.834  24.787  0.00  0.00    +0.003 A 
ATOM     34  C   UNL     1      -4.300   2.107  24.560  0.00  0.00    +0.001 A 
ATOM     35  C   UNL     1      -5.086   1.925  24.733  0.00  0.00    +0.040 A 
BRANCH   3   2
ATOM      1  C   UNL     1      -6.645   1.545  25.120  0.00  0.00    +0.253 C 
ATOM      2  O   UNL     1      -6.343   2.290  25.307  0.00  0.00    -0.468 OA
ENDBRANCH   3   2
BRANCH   4   5
ATOM      5  O   UNL     1      -5.713   3.745  25.762  0.00  0.00    -0.468 OA
ATOM      6  C   UNL     1      -5.673   4.546  25.567  0.00  0.00    +0.253 C 
ENDBRANCH   4   5
ENDBRANCH   9   8
ENDBRANCH  10   9
ENDBRANCH  13  11
ENDBRANCH  14  13
BRANCH  19  20
ATOM     20  C   UNL     1      -0.651   1.783  24.241  0.00  0.00    +0.051 C 
BRANCH  20  21
ATOM     21  C   UNL     1      -0.640   0.959  24.220  0.00  0.00    +0.100 A 
ATOM     22  N   UNL     1       0.029   0.485  24.124  0.00  0.00    -0.082 NA
ATOM     23  O   UNL     1      -0.213  -0.303  24.136  0.00  0.00    -0.357 OA
ATOM     24  C   UNL     1      -1.031  -0.317  24.240  0.00  0.00    +0.165 A 
ATOM     33  C   UNL     1      -1.295   0.462  24.292  0.00  0.00    +0.054 A 
BRANCH  24  25
ATOM     25  C   UNL     1      -1.503  -0.993  24.284  0.00  0.00    +0.129 C 
BRANCH  25  26
ATOM     26  S   UNL     1      -2.221  -0.970  24.691  0.00  0.00    -0.105 S 
BRANCH  26  27
ATOM     27  C   UNL     1      -2.785  -1.558  24.565  0.00  0.00    +0.026 A 
ATOM     28  C   UNL     1      -3.496  -1.374  24.188  0.00  0.00    +0.006 A 
ATOM     29  C   UNL     1      -4.060  -1.963  24.062  0.00  0.00    +0.001 A 
ATOM     30  C   UNL     1      -3.914  -2.735  24.313  0.00  0.00    +0.000 A 
ATOM     31  C   UNL     1      -3.203  -2.918  24.690  0.00  0.00    +0.001 A 
ATOM     32  C   UNL     1      -2.639  -2.330  24.816  0.00  0.00    +0.006 A 
ENDBRANCH  26  27
ENDBRANCH  25  26
ENDBRANCH  24  25
ENDBRANCH  20  21
ENDBRANCH  19  20
TORSDOF 11
ENDMDL
MODEL 4
REMARK VINA RESULT:     -10.1      1.559      4.179
REMARK  Name = 
REMARK  11 active torsions:
REMARK  status: ('A' for Active; 'I' for Inactive)
REMARK    1  A    between atoms: O_2  and  C_3
REMARK    2  A    between atoms: C_4  and  O_5
REMARK    3  A    between atoms: C_8  and  C_9
REMARK    4  A    between atoms: C_9  and  N_10
REMARK    5  A    between atoms: C_11  and  C_13
REMARK    6  A    between atoms: C_13  and  C_14
REMARK    7  A    between atoms: C_19  and  C_20
REMARK    8  A    between atoms: C_20  and  C_21
REMARK    9  A    between atoms: C_24  and  C_25
REMARK   10  A    between atoms: C_25  and  S_26
REMARK   11  A    between atoms: S_26  and  C_27
REMARK                            x       y       z     vdW  Elec       q    Type
REMARK                         _______ _______ _______ _____ _____    ______ ____
ROOT
ATOM     14  C   UNL     1      -4.633   2.660  24.925  0.00  0.00    +0.012 C 
ATOM     15  C   UNL     1      -5.116   2.795  25.581  0.00  0.00    +0.019 C 
ATOM     16  C   UNL     1      -5.044   3.495  26.010  0.00  0.00    +0.089 C 
ATOM     17  N   UNL     1      -4.488   4.062  25.784  0.00  0.00    -0.218 NA
ATOM     18  C   UNL     1      -4.005   3.928  25.130  0.00  0.00    +0.089 C 
ATOM     19  C   UNL     1      -4.077   3.228  24.699  0.00  0.00    +0.024 C 
ENDROOT
BRANCH  14  13
ATOM     13  C   UNL     1      -4.706   1.960  24.496  0.00  0.00    +0.087 C 
BRANCH  13  11
ATOM     10  N   UNL     1      -5.113   0.607  24.707  0.00  0.00    -0.201 NA
ATOM     11  C   UNL     1      -5.289   1.413  24.695  0.00  0.00    +0.242 C 
ATOM     12  O   UNL     1      -6.050   1.670  24.884  0.00  0.00    -0.273 OA
BRANCH  10   9
ATOM      9  C   UNL     1      -4.352   0.349  24.518  0.00  0.00    +0.142 C 
BRANCH   9   8
ATOM      3  C   UNL     1      -3.804  -2.062  24.622  0.00  0.00    +0.172 A 
ATOM      4  C   UNL     1      -3.642  -1.575  25.266  0.00  0.00    +0.172 A 
ATOM      7  C   UNL     1      -3.824  -0.771  25.232  0.00  0.00    +0.037 A 
ATOM      8  C   UNL     1      -4.170  -0.455  24.552  0.00  0.00    +0.003 A 
ATOM     34  C   UNL     1      -4.332  -0.942  23.908  0.00  0.00    +0.001 A 
ATOM     35  C   UNL     1      -4.149  -1.747  23.942  0.00  0.00    +0.040 A 
BRANCH   3   2
ATOM      1  C   UNL     1      -3.715  -3.340  23.987  0.00  0.00    +0.253 C 
ATOM      2  O   UNL     1      -3.621  -2.867  24.656  0.00  0.00    -0.468 OA
ENDBRANCH   3   2
BRANCH   4   5
ATOM      5  O   UNL     1      -3.296  -1.891  25.946  0.00  0.00    -0.468 OA
ATOM      6  C   UNL     1      -2.970  -1.389  26.514  0.00  0.00    +0.253 C 
ENDBRANCH   4   5
ENDBRANCH   9   8
ENDBRANCH  10   9
ENDBRANCH  13  11
ENDBRANCH  14  13
BRANCH  19  20
ATOM     20  C   UNL     1      -3.595   3.094  24.045  0.00  0.00    +0.051 C 
BRANCH  20  21
ATOM     21  C   UNL     1      -2.777   3.043  24.139  0.00  0.00    +0.100 A 
ATOM     22  N   UNL     1      -2.298   3.594  24.522  0.00  0.00    -0.082 NA
ATOM     23  O   UNL     1      -1.520   3.325  24.486  0.00  0.00    -0.357 OA
ATOM     24  C   UNL     1      -1.517   2.606  24.080  0.00  0.00    +0.165 A 
ATOM     33  C   UNL     1      -2.294   2.432  23.865  0.00  0.00    +0.054 A 
BRANCH  24  25
ATOM     25  C   UNL     1      -0.853   2.143  23.918  0.00  0.00    +0.129 C 
BRANCH  25  26
ATOM     26  S   UNL     1      -0.649   1.523  24.422  0.00  0.00    -0.105 S 
BRANCH  26  27
ATOM     27  C   UNL     1      -0.250   0.865  24.125  0.00  0.00    +0.026 A 
ATOM     28  C   UNL     1       0.414   0.967  23.646  0.00  0.00    +0.006 A 
ATOM     29  C   UNL     1       0.813   0.309  23.349  0.00  0.00    +0.001 A 
ATOM     30  C   UNL     1       0.549  -0.451  23.532  0.00  0.00    +0.000 A 
ATOM     31  C   UNL     1      -0.115  -0.552  24.011  0.00  0.00    +0.001 A 
ATOM     32  C   UNL     1      -0.514   0.106  24.307  0.00  0.00    +0.006 A 
ENDBRANCH  26  27
ENDBRANCH  25  26
ENDBRANCH  24  25
ENDBRANCH  20  21
ENDBRANCH  19  20
TORSDOF 11
ENDMDL
MODEL 5
REMARK VINA RESULT:      -9.9      1.296      1.940
REMARK  Name = 
REMARK  11 active torsions:
REMARK  status: ('A' for Active; 'I' for Inactive)
REMARK    1  A    between atoms: O_2  and  C_3
REMARK    2  A    between atoms: C_4  and  O_5
REMARK    3  A    between atoms: C_8  and  C_9
REMARK    4  A    between atoms: C_9  and  N_10
REMARK    5  A    between atoms: C_11  and  C_13
REMARK    6  A    between atoms: C_13  and  C_14
REMARK    7  A    between atoms: C_19  and  C_20
REMARK    8  A    between atoms: C_20  and  C_21
REMARK    9  A    between atoms: C_24  and  C_25
REMARK   10  A    between atoms: C_25  and  S_26
REMARK   11  A    between atoms: S_26  and  C_27
REMARK                            x       y       z     vdW  Elec       q    Type
REMARK                         _______ _______ _______ _____ _____    ______ ____
ROOT
ATOM     14  C   UNL     1      -4.314   3.198  25.010  0.00  0.00    +0.012 C 
ATOM     15  C   UNL     1      -4.356   3.843  25.523  0.00  0.00    +0.019 C 
ATOM     16  C   UNL     1      -5.028   3.960  25.986  0.00  0.00    +0.089 C 
ATOM     17  N   UNL     1      -5.660   3.430  25.938  0.00  0.00    -0.218 NA
ATOM     18  C   UNL     1      -5.618   2.785  25.426  0.00  0.00    +0.089 C 
ATOM     19  C   UNL     1      -4.946   2.669  24.961  0.00  0.00    +0.024 C 
ENDROOT
BRANCH  14  13
ATOM     13  C   UNL     1      -3.643   3.082  24.546  0.00  0.00    +0.087 C 
BRANCH  13  11
ATOM     10  N   UNL     1      -2.254   3.416  24.577  0.00  0.00    -0.201 NA
ATOM     11  C   UNL     1      -3.044   3.649  24.538  0.00  0.00    +0.242 C 
ATOM     12  O   UNL     1      -3.234   4.450  24.492  0.00  0.00    -0.273 OA
BRANCH  10   9
ATOM      9  C   UNL     1      -2.063   2.614  24.623  0.00  0.00    +0.142 C 
BRANCH   9   8
ATOM      3  C   UNL     1       0.299   1.896  24.455  0.00  0.00    +0.172 A 
ATOM      4  C   UNL     1       0.024   2.247  25.147  0.00  0.00    +0.172 A 
ATOM      7  C   UNL     1      -0.763   2.487  25.204  0.00  0.00    +0.037 A 
ATOM      8  C   UNL     1      -1.275   2.374  24.566  0.00  0.00    +0.003 A 
ATOM     34  C   UNL     1      -1.000   2.023  23.874  0.00  0.00    +0.001 A 
ATOM     35  C   UNL     1      -0.212   1.783  23.817  0.00  0.00    +0.040 A 
BRANCH   3   2
ATOM      1  C   UNL     1       1.342   1.223  23.744  0.00  0.00    +0.253 C 
ATOM      2  O   UNL     1       1.088   1.656  24.398  0.00  0.00    -0.468 OA
ENDBRANCH   3   2
BRANCH   4   5
ATOM      5  O   UNL     1       0.536   2.360  25.785  0.00  0.00    -0.468 OA
ATOM      6  C   UNL     1       0.232   2.515  26.536  0.00  0.00    +0.253 C 
ENDBRANCH   4   5
ENDBRANCH   9   8
ENDBRANCH  10   9
ENDBRANCH  13  11
ENDBRANCH  14  13
BRANCH  19  20
ATOM     20  C   UNL     1      -4.905   2.024  24.449  0.00  0.00    +0.051 C 
BRANCH  20  21
ATOM     21  C   UNL     1      -4.841   1.259  24.753  0.00  0.00    +0.100 A 
ATOM     22  N   UNL     1      -5.249   0.961  25.405  0.00  0.00    -0.082 NA
ATOM     23  O   UNL     1      -5.018   0.177  25.513  0.00  0.00    -0.357 OA
ATOM     24  C   UNL     1      -4.467  -0.010  24.928  0.00  0.00    +0.165 A 
ATOM     33  C   UNL     1      -4.357   0.659  24.458  0.00  0.00    +0.054 A 
BRANCH  24  25
ATOM     25  C   UNL     1      -4.091  -0.738  24.830  0.00  0.00    +0.129 C 
BRANCH  25  26
ATOM     26  S   UNL     1      -3.435  -0.929  25.293  0.00  0.00    -0.105 S 
BRANCH  26  27
ATOM     27  C   UNL     1      -2.898  -1.497  25.031  0.00  0.00    +0.026 A 
ATOM     28  C   UNL     1      -3.159  -2.258  24.846  0.00  0.00    +0.006 A 
ATOM     29  C   UNL     1      -2.622  -2.826  24.583  0.00  0.00    +0.001 A 
ATOM     30  C   UNL     1      -1.823  -2.634  24.506  0.00  0.00    +0.000 A 
ATOM     31  C   UNL     1      -1.562  -1.874  24.691  0.00  0.00    +0.001 A 
ATOM     32  C   UNL     1      -2.099  -1.306  24.953  0.00  0.00    +0.006 A 
ENDBRANCH  26  27
ENDBRANCH  25  26
ENDBRANCH  24  25
ENDBRANCH  20  21
ENDBRANCH  19  20
TORSDOF 11
ENDMDL
MODEL 6
REMARK VINA RESULT:      -9.8      1.864      5.895
REMARK  Name = 
REMARK  11 active torsions:
REMARK  status: ('A' for Active; 'I' for Inactive)
REMARK    1  A    between atoms: O_2  and  C_3
REMARK    2  A    between atoms: C_4  and  O_5
REMARK    3  A    between atoms: C_8  and  C_9
REMARK    4  A    between atoms: C_9  and  N_10
REMARK    5  A    between atoms: C_11  and  C_13
REMARK    6  A    between atoms: C_13  and  C_14
REMARK    7  A    between atoms: C_19  and  C_20
REMARK    8  A    between atoms: C_20  and  C_21
REMARK    9  A    between atoms: C_24  and  C_25
REMARK   10  A    between atoms: C_25  and  S_26
REMARK   11  A    between atoms: S_26  and  C_27
REMARK                            x       y       z     vdW  Elec       q    Type
REMARK                         _______ _______ _______ _____ _____    ______ ____
ROOT
ATOM     14  C   UNL     1      -3.440  -1.354  24.724  0.00  0.00    +0.012 C 
ATOM     15  C   UNL     1      -3.968  -1.949  24.504  0.00  0.00    +0.019 C 
ATOM     16  C   UNL     1      -3.700  -2.723  24.404  0.00  0.00    +0.089 C 
ATOM     17  N   UNL     1      -2.902  -2.902  24.524  0.00  0.00    -0.218 NA
ATOM     18  C   UNL     1      -2.375  -2.308  24.743  0.00  0.00    +0.089 C 
ATOM     19  C   UNL     1      -2.643  -1.534  24.844  0.00  0.00    +0.024 C 
ENDROOT
BRANCH  14  13
ATOM     13  C   UNL     1      -3.708  -0.581  24.824  0.00  0.00    +0.087 C 
BRANCH  13  11
ATOM     10  N   UNL     1      -4.685   0.430  24.571  0.00  0.00    -0.201 NA
ATOM     11  C   UNL     1      -4.387  -0.326  24.431  0.00  0.00    +0.242 C 
ATOM     12  O   UNL     1      -4.769  -0.827  23.899  0.00  0.00    -0.273 OA
BRANCH  10   9
ATOM      9  C   UNL     1      -4.303   0.932  25.104  0.00  0.00    +0.142 C 
BRANCH   9   8
ATOM      3  C   UNL     1      -5.010   3.295  25.300  0.00  0.00    +0.172 A 
ATOM      4  C   UNL     1      -4.243   3.113  25.062  0.00  0.00    +0.172 A 
ATOM      7  C   UNL     1      -4.007   2.326  24.996  0.00  0.00    +0.037 A 
ATOM      8  C   UNL     1      -4.540   1.720  25.169  0.00  0.00    +0.003 A 
ATOM     34  C   UNL     1      -5.307   1.902  25.408  0.00  0.00    +0.001 A 
ATOM     35  C   UNL     1      -5.543   2.690  25.473  0.00  0.00    +0.040 A 
BRANCH   3   2
ATOM      1  C   UNL     1      -6.007   4.266  25.628  0.00  0.00    +0.253 C 
ATOM      2  O   UNL     1      -5.247   4.084  25.366  0.00  0.00    -0.468 OA
ENDBRANCH   3   2
BRANCH   4   5
ATOM      5  O   UNL     1      -3.710   3.719  24.889  0.00  0.00    -0.468 OA
ATOM      6  C   UNL     1      -2.899   3.566  24.879  0.00  0.00    +0.253 C 
ENDBRANCH   4   5
ENDBRANCH   9   8
ENDBRANCH  10   9
ENDBRANCH  13  11
ENDBRANCH  14  13
BRANCH  19  20
ATOM     20  C   UNL     1      -2.115  -0.939  25.064  0.00  0.00    +0.051 C 
BRANCH  20  21
ATOM     21  C   UNL     1      -1.314  -1.011  24.881  0.00  0.00    +0.100 A 
ATOM     22  N   UNL     1      -0.736  -1.349  25.363  0.00  0.00    -0.082 NA
ATOM     23  O   UNL     1      -0.015  -1.304  24.965  0.00  0.00    -0.357 OA
ATOM     24  C   UNL     1      -0.148  -0.939  24.237  0.00  0.00    +0.165 A 
ATOM     33  C   UNL     1      -0.950  -0.758  24.185  0.00  0.00    +0.054 A 
BRANCH  24  25
ATOM     25  C   UNL     1       0.423  -0.783  23.662  0.00  0.00    +0.129 C 
BRANCH  25  26
ATOM     26  S   UNL     1       0.652  -0.005  23.508  0.00  0.00    -0.105 S 
BRANCH  26  27
ATOM     27  C   UNL     1       1.364   0.146  23.121  0.00  0.00    +0.026 A 
ATOM     28  C   UNL     1       1.534  -0.232  22.407  0.00  0.00    +0.006 A 
ATOM     29  C   UNL     1       2.247  -0.081  22.020  0.00  0.00    +0.001 A 
ATOM     30  C   UNL     1       2.790   0.448  22.347  0.00  0.00    +0.000 A 
ATOM     31  C   UNL     1       2.620   0.825  23.060  0.00  0.00    +0.001 A 
ATOM     32  C   UNL     1       1.907   0.674  23.447  0.00  0.00    +0.006 A 
ENDBRANCH  26  27
ENDBRANCH  25  26
ENDBRANCH  24  25
ENDBRANCH  20  21
ENDBRANCH  19  20
TORSDOF 11
ENDMDL
MODEL 7
REMARK VINA RESULT:      -9.8      1.941      4.348
REMARK  Name = 
REMARK  11 active torsions:
REMARK  status: ('A' for Active; 'I' for Inactive)
REMARK    1  A    between atoms: O_2  and  C_3
REMARK    2  A    between atoms: C_4  and  O_5
REMARK    3  A    between atoms: C_8  and  C_9
REMARK    4  A    between atoms: C_9  and  N_10
REMARK    5  A    between atoms: C_11  and  C_13
REMARK    6  A    between atoms: C_13  and  C_14
REMARK    7  A    between atoms: C_19  and  C_20
REMARK    8  A    between atoms: C_20  and  C_21
REMARK    9  A    between atoms: C_24  and  C_25
REMARK   10  A    between atoms: C_25  and  S_26
REMARK   11  A    between atoms: S_26  and  C_27
REMARK                            x       y       z     vdW  Elec       q    Type
REMARK                         _______ _______ _______ _____ _____    ______ ____
ROOT
ATOM     14  C   UNL     1      -2.095  -1.752  24.994  0.00  0.00    +0.012 C 
ATOM     15  C   UNL     1      -1.662  -2.264  24.513  0.00  0.00    +0.019 C 
ATOM     16  C   UNL     1      -2.042  -2.876  24.112  0.00  0.00    +0.089 C 
ATOM     17  N   UNL     1      -2.858  -2.977  24.191  0.00  0.00    -0.218 NA
ATOM     18  C   UNL     1      -3.292  -2.465  24.672  0.00  0.00    +0.089 C 
ATOM     19  C   UNL     1      -2.911  -1.853  25.073  0.00  0.00    +0.024 C 
ENDROOT
BRANCH  14  13
ATOM     13  C   UNL     1      -1.715  -1.141  25.395  0.00  0.00    +0.087 C 
BRANCH  13  11
ATOM     10  N   UNL     1      -0.609  -0.249  25.237  0.00  0.00    -0.201 NA
ATOM     11  C   UNL     1      -0.906  -1.017  25.286  0.00  0.00    +0.242 C 
ATOM     12  O   UNL     1      -0.394  -1.661  25.227  0.00  0.00    -0.273 OA
BRANCH  10   9
ATOM      9  C   UNL     1      -1.121   0.396  25.296  0.00  0.00    +0.142 C 
BRANCH   9   8
ATOM      3  C   UNL     1      -0.292   2.679  24.825  0.00  0.00    +0.172 A 
ATOM      4  C   UNL     1      -0.202   2.355  25.577  0.00  0.00    +0.172 A 
ATOM      7  C   UNL     1      -0.478   1.594  25.735  0.00  0.00    +0.037 A 
ATOM      8  C   UNL     1      -0.845   1.157  25.138  0.00  0.00    +0.003 A 
ATOM     34  C   UNL     1      -0.936   1.481  24.386  0.00  0.00    +0.001 A 
ATOM     35  C   UNL     1      -0.659   2.243  24.229  0.00  0.00    +0.040 A 
BRANCH   3   2
ATOM      1  C   UNL     1      -0.379   3.900  24.086  0.00  0.00    +0.253 C 
ATOM      2  O   UNL     1      -0.016   3.441  24.668  0.00  0.00    -0.468 OA
ENDBRANCH   3   2
BRANCH   4   5
ATOM      5  O   UNL     1       0.165   2.792  26.174  0.00  0.00    -0.468 OA
ATOM      6  C   UNL     1       0.251   2.469  26.928  0.00  0.00    +0.253 C 
ENDBRANCH   4   5
ENDBRANCH   9   8
ENDBRANCH  10   9
ENDBRANCH  13  11
ENDBRANCH  14  13
BRANCH  19  20
ATOM     20  C   UNL     1      -3.345  -1.342  25.553  0.00  0.00    +0.051 C 
BRANCH  20  21
ATOM     21  C   UNL     1      -3.897  -0.830  25.217  0.00  0.00    +0.100 A 
ATOM     22  N   UNL     1      -4.353  -0.981  24.547  0.00  0.00    -0.082 NA
ATOM     23  O   UNL     1      -4.829  -0.322  24.408  0.00  0.00    -0.357 OA
ATOM     24  C   UNL     1      -4.667   0.237  24.993  0.00  0.00    +0.165 A 
ATOM     33  C   UNL     1      -4.092  -0.077  25.493  0.00  0.00    +0.054 A 
BRANCH  24  25
ATOM     25  C   UNL     1      -5.019   0.980  25.065  0.00  0.00    +0.129 C 
BRANCH  25  26
ATOM     26  S   UNL     1      -4.735   1.616  24.623  0.00  0.00    -0.105 S 
BRANCH  26  27
ATOM     27  C   UNL     1      -4.825   2.386  24.904  0.00  0.00    +0.026 A 
ATOM     28  C   UNL     1      -5.522   2.607  25.287  0.00  0.00    +0.006 A 
ATOM     29  C   UNL     1      -5.611   3.377  25.568  0.00  0.00    +0.001 A 
ATOM     30  C   UNL     1      -5.004   3.927  25.467  0.00  0.00    +0.000 A 
ATOM     31  C   UNL     1      -4.308   3.705  25.085  0.00  0.00    +0.001 A 
ATOM     32  C   UNL     1      -4.218   2.935  24.803  0.00  0.00    +0.006 A 
ENDBRANCH  26  27
ENDBRANCH  25  26
ENDBRANCH  24  25
ENDBRANCH  20  21
ENDBRANCH  19  20
TORSDOF 11
ENDMDL
MODEL 8
REMARK VINA RESULT:      -9.8      1.388      2.328
REMARK  Name = 
REMARK  11 active torsions:
REMARK  status: ('A' for Active; 'I' for Inactive)
REMARK    1  A    between atoms: O_2  and  C_3
REMARK    2  A    between atoms: C_4  and  O_5
REMARK    3  A    between atoms: C_8  and  C_9
REMARK    4  A    between atoms: C_9  and  N_10
REMARK    5  A    between atoms: C_11  and  C_13
REMARK    6  A    between atoms: C_13  and  C_14
REMARK    7  A    between atoms: C_19  and  C_20
REMARK    8  A    between atoms: C_20  and  C_21
REMARK    9  A    between atoms: C_24  and  C_25
REMARK   10  A    between atoms: C_25  and  S_26
REMARK   11  A    between atoms: S_26  and  C_27
REMARK                            x       y       z     vdW  Elec       q    Type
REMARK                         _______ _______ _______ _____ _____    ______ ____
ROOT
ATOM     14  C   UNL     1      -1.087   3.763  25.514  0.00  0.00    +0.012 C 
ATOM     15  C   UNL     1      -0.482   4.079  25.050  0.00  0.00    +0.019 C 
ATOM     16  C   UNL     1      -0.573   4.821  24.703  0.00  0.00    +0.089 C 
ATOM     17  N   UNL     1      -1.269   5.249  24.819  0.00  0.00    -0.218 NA
ATOM     18  C   UNL     1      -1.874   4.934  25.282  0.00  0.00    +0.089 C 
ATOM     19  C   UNL     1      -1.784   4.191  25.630  0.00  0.00    +0.024 C 
ENDROOT
BRANCH  14  13
ATOM     13  C   UNL     1      -0.996   3.021  25.862  0.00  0.00    +0.087 C 
BRANCH  13  11
ATOM     10  N   UNL     1      -0.167   1.870  25.696  0.00  0.00    -0.201 NA
ATOM     11  C   UNL     1      -0.252   2.667  25.889  0.00  0.00    +0.242 C 
ATOM     12  O   UNL     1       0.408   3.109  26.111  0.00  0.00    -0.273 OA
BRANCH  10   9
ATOM      9  C   UNL     1      -0.827   1.426  25.474  0.00  0.00    +0.142 C 
BRANCH   9   8
ATOM      3  C   UNL     1      -0.579  -0.979  24.948  0.00  0.00    +0.172 A 
ATOM      4  C   UNL     1      -0.308  -0.411  24.416  0.00  0.00    +0.172 A 
ATOM      7  C   UNL     1      -0.391   0.391  24.591  0.00  0.00    +0.037 A 
ATOM      8  C   UNL     1      -0.745   0.624  25.300  0.00  0.00    +0.003 A 
ATOM     34  C   UNL     1      -1.016   0.056  25.831  0.00  0.00    +0.001 A 
ATOM     35  C   UNL     1      -0.933  -0.746  25.656  0.00  0.00    +0.040 A 
BRANCH   3   2
ATOM      1  C   UNL     1      -1.044  -2.326  25.064  0.00  0.00    +0.253 C 
ATOM      2  O   UNL     1      -0.497  -1.781  24.773  0.00  0.00    -0.468 OA
ENDBRANCH   3   2
BRANCH   4   5
ATOM      5  O   UNL     1       0.046  -0.644  23.708  0.00  0.00    -0.468 OA
ATOM      6  C   UNL     1       0.450  -0.092  23.247  0.00  0.00    +0.253 C 
ENDBRANCH   4   5
ENDBRANCH   9   8
ENDBRANCH  10   9
ENDBRANCH  13  11
ENDBRANCH  14  13
BRANCH  19  20
ATOM     20  C   UNL     1      -2.389   3.876  26.093  0.00  0.00    +0.051 C 
BRANCH  20  21
ATOM     21  C   UNL     1      -3.098   3.642  25.743  0.00  0.00    +0.100 A 
ATOM     22  N   UNL     1      -3.680   4.144  25.445  0.00  0.00    -0.082 NA
ATOM     23  O   UNL     1      -4.291   3.678  25.146  0.00  0.00    -0.357 OA
ATOM     24  C   UNL     1      -4.086   2.886  25.260  0.00  0.00    +0.165 A 
ATOM     33  C   UNL     1      -3.349   2.864  25.628  0.00  0.00    +0.054 A 
BRANCH  24  25
ATOM     25  C   UNL     1      -4.539   2.232  25.042  0.00  0.00    +0.129 C 
BRANCH  25  26
ATOM     26  S   UNL     1      -4.359   1.815  24.353  0.00  0.00    -0.105 S 
BRANCH  26  27
ATOM     27  C   UNL     1      -4.354   0.990  24.360  0.00  0.00    +0.026 A 
ATOM     28  C   UNL     1      -3.999   0.575  23.742  0.00  0.00    +0.006 A 
ATOM     29  C   UNL     1      -3.995  -0.250  23.749  0.00  0.00    +0.001 A 
ATOM     30  C   UNL     1      -4.346  -0.660  24.374  0.00  0.00    +0.000 A 
ATOM     31  C   UNL     1      -4.701  -0.244  24.991  0.00  0.00    +0.001 A 
ATOM     32  C   UNL     1      -4.705   0.581  24.984  0.00  0.00    +0.006 A 
ENDBRANCH  26  27
ENDBRANCH  25  26
ENDBRANCH  24  25
ENDBRANCH  20  21
ENDBRANCH  19  20
TORSDOF 11
ENDMDL
MODEL 9
REMARK VINA RESULT:      -9.6      1.524      4.289
REMARK  Name = 
REMARK  11 active torsions:
REMARK  status: ('A' for Active; 'I' for Inactive)
REMARK    1  A    between atoms: O_2  and  C_3
REMARK    2  A    between atoms: C_4  and  O_5
REMARK    3  A    between atoms: C_8  and  C_9
REMARK    4  A    between atoms: C_9  and  N_10
REMARK    5  A    between atoms: C_11  and  C_13
REMARK    6  A    between atoms: C_13  and  C_14
REMARK    7  A    between atoms: C_19  and  C_20
REMARK    8  A    between atoms: C_20  and  C_21
REMARK    9  A    between atoms: C_24  and  C_25
REMARK   10  A    between atoms: C_25  and  S_26
REMARK   11  A    between atoms: S_26  and  C_27
REMARK                            x       y       z     vdW  Elec       q    Type
REMARK                         _______ _______ _______ _____ _____    ______ ____
ROOT
ATOM     14  C   UNL     1      -3.238  -1.539  24.582  0.00  0.00    +0.012 C 
ATOM     15  C   UNL     1      -3.347  -2.149  24.038  0.00  0.00    +0.019 C 
ATOM     16  C   UNL     1      -4.087  -2.270  23.695  0.00  0.00    +0.089 C 
ATOM     17  N   UNL     1      -4.720  -1.779  23.896  0.00  0.00    -0.218 NA
ATOM     18  C   UNL     1      -4.612  -1.169  24.440  0.00  0.00    +0.089 C 
ATOM     19  C   UNL     1      -3.871  -1.048  24.784  0.00  0.00    +0.024 C 
ENDROOT
BRANCH  14  13
ATOM     13  C   UNL     1      -2.498  -1.418  24.925  0.00  0.00    +0.087 C 
BRANCH  13  11
ATOM     10  N   UNL     1      -1.126  -1.584  24.561  0.00  0.00    -0.201 NA
ATOM     11  C   UNL     1      -1.866  -1.910  24.726  0.00  0.00    +0.242 C 
ATOM     12  O   UNL     1      -1.973  -2.727  24.690  0.00  0.00    -0.273 OA
BRANCH  10   9
ATOM      9  C   UNL     1      -1.018  -0.766  24.597  0.00  0.00    +0.142 C 
BRANCH   9   8
ATOM      3  C   UNL     1       0.902   0.279  23.438  0.00  0.00    +0.172 A 
ATOM      4  C   UNL     1       0.400   0.740  23.903  0.00  0.00    +0.172 A 
ATOM      7  C   UNL     1      -0.240   0.392  24.289  0.00  0.00    +0.037 A 
ATOM      8  C   UNL     1      -0.378  -0.419  24.210  0.00  0.00    +0.003 A 
ATOM     34  C   UNL     1       0.123  -0.879  23.746  0.00  0.00    +0.001 A 
ATOM     35  C   UNL     1       0.764  -0.530  23.359  0.00  0.00    +0.040 A 
BRANCH   3   2
ATOM      1  C   UNL     1       2.071   0.160  22.624  0.00  0.00    +0.253 C 
ATOM      2  O   UNL     1       1.543   0.628  23.052  0.00  0.00    -0.468 OA
ENDBRANCH   3   2
BRANCH   4   5
ATOM      5  O   UNL     1       0.539   1.550  23.982  0.00  0.00    -0.468 OA
ATOM      6  C   UNL     1       0.127   1.986  24.548  0.00  0.00    +0.253 C 
ENDBRANCH   4   5
ENDBRANCH   9   8
ENDBRANCH  10   9
ENDBRANCH  13  11
ENDBRANCH  14  13
BRANCH  19  20
ATOM     20  C   UNL     1      -3.763  -0.438  25.327  0.00  0.00    +0.051 C 
BRANCH  20  21
ATOM     21  C   UNL     1      -4.053   0.317  25.164  0.00  0.00    +0.100 A 
ATOM     22  N   UNL     1      -4.848   0.537  25.145  0.00  0.00    -0.082 NA
ATOM     23  O   UNL     1      -4.885   1.340  24.960  0.00  0.00    -0.357 OA
ATOM     24  C   UNL     1      -4.114   1.616  24.864  0.00  0.00    +0.165 A 
ATOM     33  C   UNL     1      -3.599   0.984  24.989  0.00  0.00    +0.054 A 
BRANCH  24  25
ATOM     25  C   UNL     1      -3.895   2.389  24.674  0.00  0.00    +0.129 C 
BRANCH  25  26
ATOM     26  S   UNL     1      -3.923   2.979  25.251  0.00  0.00    -0.105 S 
BRANCH  26  27
ATOM     27  C   UNL     1      -3.352   3.574  25.260  0.00  0.00    +0.026 A 
ATOM     28  C   UNL     1      -3.010   3.806  25.974  0.00  0.00    +0.006 A 
ATOM     29  C   UNL     1      -2.439   4.401  25.983  0.00  0.00    +0.001 A 
ATOM     30  C   UNL     1      -2.210   4.765  25.278  0.00  0.00    +0.000 A 
ATOM     31  C   UNL     1      -2.554   4.532  24.565  0.00  0.00    +0.001 A 
ATOM     32  C   UNL     1      -3.124   3.937  24.556  0.00  0.00    +0.006 A 
ENDBRANCH  26  27
ENDBRANCH  25  26
ENDBRANCH  24  25
ENDBRANCH  20  21
ENDBRANCH  19  20
TORSDOF 11
ENDMDL
MODEL 10
REMARK VINA RESULT:      -9.6      2.023      3.553
REMARK  Name = 
REMARK  11 active torsions:
REMARK  status: ('A' for Active; 'I' for Inactive)
REMARK    1  A    between atoms: O_2  and  C_3
REMARK    2  A    between atoms: C_4  and  O_5
REMARK    3  A    between atoms: C_8  and  C_9
REMARK    4  A    between atoms: C_9  and  N_10
REMARK    5  A    between atoms: C_11  and  C_13
REMARK    6  A    between atoms: C_13  and  C_14
REMARK    7  A    between atoms: C_19  and  C_20
REMARK    8  A    between atoms: C_20  and  C_21
REMARK    9  A    between atoms: C_24  and  C_25
REMARK   10  A    between atoms: C_25  and  S_26
REMARK   11  A    between atoms: S_26  and  C_27
REMARK                            x       y       z     vdW  Elec       q    Type
REMARK                         _______ _______ _______ _____ _____    ______ ____
ROOT
ATOM     14  C   UNL     1      -0.550   3.060  24.927  0.00  0.00    +0.012 C 
ATOM     15  C   UNL     1      -0.107   3.183  24.242  0.00  0.00    +0.019 C 
ATOM     16  C   UNL     1      -0.070   3.934  23.904  0.00  0.00    +0.089 C 
ATOM     17  N   UNL     1      -0.476   4.564  24.252  0.00  0.00    -0.218 NA
ATOM     18  C   UNL     1      -0.918   4.441  24.936  0.00  0.00    +0.089 C 
ATOM     19  C   UNL     1      -0.956   3.690  25.275  0.00  0.00    +0.024 C 
ENDROOT
BRANCH  14  13
ATOM     13  C   UNL     1      -0.588   2.309  25.265  0.00  0.00    +0.087 C 
BRANCH  13  11
ATOM     10  N   UNL     1      -0.265   0.939  25.013  0.00  0.00    -0.201 NA
ATOM     11  C   UNL     1      -0.039   1.732  25.050  0.00  0.00    +0.242 C 
ATOM     12  O   UNL     1       0.737   1.946  24.871  0.00  0.00    -0.273 OA
BRANCH  10   9
ATOM      9  C   UNL     1      -1.042   0.724  25.192  0.00  0.00    +0.142 C 
BRANCH   9   8
ATOM      3  C   UNL     1      -1.794  -1.606  24.834  0.00  0.00    +0.172 A 
ATOM      4  C   UNL     1      -2.284  -1.070  25.223  0.00  0.00    +0.172 A 
ATOM      7  C   UNL     1      -2.034  -0.294  25.343  0.00  0.00    +0.037 A 
ATOM      8  C   UNL     1      -1.292  -0.053  25.072  0.00  0.00    +0.003 A 
ATOM     34  C   UNL     1      -0.802  -0.588  24.682  0.00  0.00    +0.001 A 
ATOM     35  C   UNL     1      -1.053  -1.366  24.562  0.00  0.00    +0.040 A 
BRANCH   3   2
ATOM      1  C   UNL     1      -1.606  -2.889  24.231  0.00  0.00    +0.253 C 
ATOM      2  O   UNL     1      -2.044  -2.384  24.714  0.00  0.00    -0.468 OA
ENDBRANCH   3   2
BRANCH   4   5
ATOM      5  O   UNL     1      -3.025  -1.311  25.495  0.00  0.00    -0.468 OA
ATOM      6  C   UNL     1      -3.539  -0.762  25.834  0.00  0.00    +0.253 C 
ENDBRANCH   4   5
ENDBRANCH   9   8
ENDBRANCH  10   9
ENDBRANCH  13  11
ENDBRANCH  14  13
BRANCH  19  20
ATOM     20  C   UNL     1      -1.398   3.567  25.960  0.00  0.00    +0.051 C 
BRANCH  20  21
ATOM     21  C   UNL     1      -2.187   3.808  25.990  0.00  0.00    +0.100 A 
ATOM     22  N   UNL     1      -2.455   4.586  26.042  0.00  0.00    -0.082 NA
ATOM     23  O   UNL     1      -3.279   4.571  26.058  0.00  0.00    -0.357 OA
ATOM     24  C   UNL     1      -3.521   3.783  26.015  0.00  0.00    +0.165 A 
ATOM     33  C   UNL     1      -2.846   3.311  25.973  0.00  0.00    +0.054 A 
BRANCH  24  25
ATOM     25  C   UNL     1      -4.301   3.515  26.014  0.00  0.00    +0.129 C 
BRANCH  25  26
ATOM     26  S   UNL     1      -4.671   3.323  25.301  0.00  0.00    -0.105 S 
BRANCH  26  27
ATOM     27  C   UNL     1      -5.255   2.741  25.284  0.00  0.00    +0.026 A 
ATOM     28  C   UNL     1      -5.794   2.679  25.906  0.00  0.00    +0.006 A 
ATOM     29  C   UNL     1      -6.378   2.097  25.888  0.00  0.00    +0.001 A 
ATOM     30  C   UNL     1      -6.423   1.576  25.249  0.00  0.00    +0.000 A 
ATOM     31  C   UNL     1      -5.884   1.639  24.628  0.00  0.00    +0.001 A 
ATOM     32  C   UNL     1      -5.300   2.221  24.645  0.00  0.00    +0.006 A 
ENDBRANCH  26  27
ENDBRANCH  25  26
ENDBRANCH  24  25
ENDBRANCH  20  21
ENDBRANCH  19  20
TORSDOF 11
ENDMDL
