MODEL 1
REMARK VINA RESULT:      -8.8      0.000      0.000
REMARK  Name = 
REMARK  6 active torsions:
REMARK  status: ('A' for Active; 'I' for Inactive)
REMARK    1  A    between atoms: C_3  and  C_4
REMARK    2  A    between atoms: C_4  and  N_5
REMARK    3  A    between atoms: C_6  and  C_8
REMARK    4  A    between atoms: C_13  and  N_14
REMARK    5  A    between atoms: N_14  and  C_15
REMARK    6  A    between atoms: C_15  and  C_16
REMARK                            x       y       z     vdW  Elec       q    Type
REMARK                         _______ _______ _______ _____ _____    ______ ____
ROOT
ATOM      1  O   UNL     1      -1.236   0.641  24.153  0.00  0.00    -0.219 OA
ATOM      2  C   UNL     1      -1.930   0.973  24.451  0.00  0.00    +0.199 C 
ATOM      3  C   UNL     1      -2.038   1.765  24.659  0.00  0.00    +0.169 C 
ATOM     11  O   UNL     1      -2.812   1.853  24.930  0.00  0.00    -0.350 OA
ATOM     12  C   UNL     1      -3.182   1.117  24.889  0.00  0.00    +0.162 C 
ATOM     13  C   UNL     1      -2.637   0.574  24.593  0.00  0.00    +0.135 C 
ENDROOT
BRANCH   3   4
ATOM      4  C   UNL     1      -1.471   2.362  24.606  0.00  0.00    +0.147 C 
BRANCH   4   5
ATOM      5  N   UNL     1      -1.668   3.137  24.810  0.00  0.00    -0.203 NA
ATOM      6  C   UNL     1      -1.095   3.729  24.785  0.00  0.00    +0.241 C 
ATOM      7  O   UNL     1      -0.323   3.546  24.554  0.00  0.00    -0.273 OA
BRANCH   6   8
ATOM      8  C   UNL     1      -1.292   4.503  24.990  0.00  0.00    +0.078 C 
ATOM      9  C   UNL     1      -1.804   5.037  25.354  0.00  0.00    +0.010 C 
ATOM     10  C   UNL     1      -1.121   5.310  24.980  0.00  0.00    +0.010 C 
ENDBRANCH   6   8
ENDBRANCH   4   5
ENDBRANCH   3   4
BRANCH  13  14
ATOM     14  N   UNL     1      -2.774  -0.229  24.462  0.00  0.00    -0.209 NA
BRANCH  14  15
ATOM     15  C   UNL     1      -3.500  -0.563  24.671  0.00  0.00    +0.115 C 
BRANCH  15  16
ATOM     16  C   UNL     1      -3.639  -1.364  24.535  0.00  0.00    -0.002 A 
ATOM     17  C   UNL     1      -3.304  -1.931  25.033  0.00  0.00    +0.018 A 
ATOM     18  C   UNL     1      -3.444  -2.733  24.896  0.00  0.00    +0.099 A 
ATOM     19  N   UNL     1      -3.917  -2.968  24.263  0.00  0.00    -0.242 NA
ATOM     20  C   UNL     1      -4.251  -2.401  23.766  0.00  0.00    +0.099 A 
ATOM     21  C   UNL     1      -4.113  -1.599  23.902  0.00  0.00    +0.018 A 
ENDBRANCH  15  16
ENDBRANCH  14  15
ENDBRANCH  13  14
TORSDOF 6
ENDMDL
MODEL 2
REMARK VINA RESULT:      -8.6      1.157      5.585
REMARK  Name = 
REMARK  6 active torsions:
REMARK  status: ('A' for Active; 'I' for Inactive)
REMARK    1  A    between atoms: C_3  and  C_4
REMARK    2  A    between atoms: C_4  and  N_5
REMARK    3  A    between atoms: C_6  and  C_8
REMARK    4  A    between atoms: C_13  and  N_14
REMARK    5  A    between atoms: N_14  and  C_15
REMARK    6  A    between atoms: C_15  and  C_16
REMARK                            x       y       z     vdW  Elec       q    Type
REMARK                         _______ _______ _______ _____ _____    ______ ____
ROOT
ATOM      1  O   UNL     1      -3.727   1.764  24.070  0.00  0.00    -0.219 OA
ATOM      2  C   UNL     1      -3.079   1.416  24.443  0.00  0.00    +0.199 C 
ATOM      3  C   UNL     1      -2.971   0.608  24.575  0.00  0.00    +0.169 C 
ATOM     11  O   UNL     1      -2.251   0.507  24.963  0.00  0.00    -0.350 OA
ATOM     12  C   UNL     1      -1.914   1.252  25.073  0.00  0.00    +0.162 C 
ATOM     13  C   UNL     1      -2.425   1.813  24.752  0.00  0.00    +0.135 C 
ENDROOT
BRANCH   3   4
ATOM      4  C   UNL     1      -3.492   0.007  24.355  0.00  0.00    +0.147 C 
BRANCH   4   5
ATOM      5  N   UNL     1      -3.307  -0.780  24.520  0.00  0.00    -0.203 NA
ATOM      6  C   UNL     1      -3.844  -1.378  24.333  0.00  0.00    +0.241 C 
ATOM      7  O   UNL     1      -4.566  -1.188  23.981  0.00  0.00    -0.273 OA
BRANCH   6   8
ATOM      8  C   UNL     1      -3.659  -2.165  24.499  0.00  0.00    +0.078 C 
ATOM      9  C   UNL     1      -3.526  -2.936  24.240  0.00  0.00    +0.010 C 
ATOM     10  C   UNL     1      -3.473  -2.755  25.043  0.00  0.00    +0.010 C 
ENDBRANCH   6   8
ENDBRANCH   4   5
ENDBRANCH   3   4
BRANCH  13  14
ATOM     14  N   UNL     1      -2.305   2.629  24.740  0.00  0.00    -0.209 NA
BRANCH  14  15
ATOM     15  C   UNL     1      -1.761   2.973  25.257  0.00  0.00    +0.115 C 
BRANCH  15  16
ATOM     16  C   UNL     1      -1.587   3.777  25.196  0.00  0.00    -0.002 A 
ATOM     17  C   UNL     1      -2.134   4.338  25.457  0.00  0.00    +0.018 A 
ATOM     18  C   UNL     1      -1.960   5.142  25.397  0.00  0.00    +0.099 A 
ATOM     19  N   UNL     1      -1.241   5.386  25.076  0.00  0.00    -0.242 NA
ATOM     20  C   UNL     1      -0.694   4.826  24.815  0.00  0.00    +0.099 A 
ATOM     21  C   UNL     1      -0.867   4.021  24.875  0.00  0.00    +0.018 A 
ENDBRANCH  15  16
ENDBRANCH  14  15
ENDBRANCH  13  14
TORSDOF 6
ENDMDL
MODEL 3
REMARK VINA RESULT:      -7.3      2.652      4.129
REMARK  Name = 
REMARK  6 active torsions:
REMARK  status: ('A' for Active; 'I' for Inactive)
REMARK    1  A    between atoms: C_3  and  C_4
REMARK    2  A    between atoms: C_4  and  N_5
REMARK    3  A    between atoms: C_6  and  C_8
REMARK    4  A    between atoms: C_13  and  N_14
REMARK    5  A    between atoms: N_14  and  C_15
REMARK    6  A    between atoms: C_15  and  C_16
REMARK                            x       y       z     vdW  Elec       q    Type
REMARK                         _______ _______ _______ _____ _____    ______ ____
ROOT
ATOM      1  O   UNL     1      -2.182   0.292  25.224  0.00  0.00    -0.219 OA
ATOM      2  C   UNL     1      -2.058   0.822  24.604  0.00  0.00    +0.199 C 
ATOM      3  C   UNL     1      -1.419   0.817  24.081  0.00  0.00    +0.169 C 
ATOM     11  O   UNL     1      -1.518   1.442  23.552  0.00  0.00    -0.350 OA
ATOM     12  C   UNL     1      -2.218   1.833  23.747  0.00  0.00    +0.162 C 
ATOM     13  C   UNL     1      -2.551   1.450  24.397  0.00  0.00    +0.135 C 
ENDROOT
BRANCH   3   4
ATOM      4  C   UNL     1      -0.792   0.281  24.088  0.00  0.00    +0.147 C 
BRANCH   4   5
ATOM      5  N   UNL     1      -0.155   0.386  23.574  0.00  0.00    -0.203 NA
ATOM      6  C   UNL     1       0.422  -0.200  23.506  0.00  0.00    +0.241 C 
ATOM      7  O   UNL     1       0.361  -0.891  23.953  0.00  0.00    -0.273 OA
BRANCH   6   8
ATOM      8  C   UNL     1       1.058  -0.096  22.992  0.00  0.00    +0.078 C 
ATOM      9  C   UNL     1       1.398  -0.195  22.247  0.00  0.00    +0.010 C 
ATOM     10  C   UNL     1       1.820   0.184  22.846  0.00  0.00    +0.010 C 
ENDBRANCH   6   8
ENDBRANCH   4   5
ENDBRANCH   3   4
BRANCH  13  14
ATOM     14  N   UNL     1      -3.255   1.657  24.774  0.00  0.00    -0.209 NA
BRANCH  14  15
ATOM     15  C   UNL     1      -3.768   2.199  24.420  0.00  0.00    +0.115 C 
BRANCH  15  16
ATOM     16  C   UNL     1      -4.463   2.420  24.806  0.00  0.00    -0.002 A 
ATOM     17  C   UNL     1      -4.494   3.130  25.225  0.00  0.00    +0.018 A 
ATOM     18  C   UNL     1      -5.190   3.351  25.610  0.00  0.00    +0.099 A 
ATOM     19  N   UNL     1      -5.853   2.862  25.576  0.00  0.00    -0.242 NA
ATOM     20  C   UNL     1      -5.822   2.152  25.158  0.00  0.00    +0.099 A 
ATOM     21  C   UNL     1      -5.127   1.931  24.772  0.00  0.00    +0.018 A 
ENDBRANCH  15  16
ENDBRANCH  14  15
ENDBRANCH  13  14
TORSDOF 6
ENDMDL
MODEL 4
REMARK VINA RESULT:      -6.5     17.401     19.079
REMARK  Name = 
REMARK  6 active torsions:
REMARK  status: ('A' for Active; 'I' for Inactive)
REMARK    1  A    between atoms: C_3  and  C_4
REMARK    2  A    between atoms: C_4  and  N_5
REMARK    3  A    between atoms: C_6  and  C_8
REMARK    4  A    between atoms: C_13  and  N_14
REMARK    5  A    between atoms: N_14  and  C_15
REMARK    6  A    between atoms: C_15  and  C_16
REMARK                            x       y       z     vdW  Elec       q    Type
REMARK                         _______ _______ _______ _____ _____    ______ ____
ROOT
ATOM      1  O   UNL     1      13.105   6.750  19.409  0.00  0.00    -0.219 OA
ATOM      2  C   UNL     1      13.496   7.282  18.916  0.00  0.00    +0.199 C 
ATOM      3  C   UNL     1      13.142   7.779  18.359  0.00  0.00    +0.169 C 
ATOM     11  O   UNL     1      13.737   8.215  17.992  0.00  0.00    -0.350 OA
ATOM     12  C   UNL     1      14.459   7.990  18.321  0.00  0.00    +0.162 C 
ATOM     13  C   UNL     1      14.310   7.414  18.892  0.00  0.00    +0.135 C 
ENDROOT
BRANCH   3   4
ATOM      4  C   UNL     1      12.334   7.828  18.199  0.00  0.00    +0.147 C 
BRANCH   4   5
ATOM      5  N   UNL     1      12.075   8.116  17.470  0.00  0.00    -0.203 NA
ATOM      6  C   UNL     1      11.288   8.343  17.372  0.00  0.00    +0.241 C 
ATOM      7  O   UNL     1      10.760   8.282  18.004  0.00  0.00    -0.273 OA
BRANCH   6   8
ATOM      8  C   UNL     1      11.029   8.631  16.644  0.00  0.00    +0.078 C 
ATOM      9  C   UNL     1      10.454   8.667  16.054  0.00  0.00    +0.010 C 
ATOM     10  C   UNL     1      11.156   9.093  15.973  0.00  0.00    +0.010 C 
ENDBRANCH   6   8
ENDBRANCH   4   5
ENDBRANCH   3   4
BRANCH  13  14
ATOM     14  N   UNL     1      14.876   7.034  19.357  0.00  0.00    -0.209 NA
BRANCH  14  15
ATOM     15  C   UNL     1      15.671   7.248  19.296  0.00  0.00    +0.115 C 
BRANCH  15  16
ATOM     16  C   UNL     1      16.230   6.901  19.793  0.00  0.00    -0.002 A 
ATOM     17  C   UNL     1      16.846   6.455  19.472  0.00  0.00    +0.018 A 
ATOM     18  C   UNL     1      17.405   6.107  19.970  0.00  0.00    +0.099 A 
ATOM     19  N   UNL     1      17.349   6.205  20.786  0.00  0.00    -0.242 NA
ATOM     20  C   UNL     1      16.733   6.651  21.107  0.00  0.00    +0.099 A 
ATOM     21  C   UNL     1      16.173   6.999  20.610  0.00  0.00    +0.018 A 
ENDBRANCH  15  16
ENDBRANCH  14  15
ENDBRANCH  13  14
TORSDOF 6
ENDMDL
MODEL 5
REMARK VINA RESULT:      -6.5      2.414      4.479
REMARK  Name = 
REMARK  6 active torsions:
REMARK  status: ('A' for Active; 'I' for Inactive)
REMARK    1  A    between atoms: C_3  and  C_4
REMARK    2  A    between atoms: C_4  and  N_5
REMARK    3  A    between atoms: C_6  and  C_8
REMARK    4  A    between atoms: C_13  and  N_14
REMARK    5  A    between atoms: N_14  and  C_15
REMARK    6  A    between atoms: C_15  and  C_16
REMARK                            x       y       z     vdW  Elec       q    Type
REMARK                         _______ _______ _______ _____ _____    ______ ____
ROOT
ATOM      1  O   UNL     1      -1.934   1.787  25.310  0.00  0.00    -0.219 OA
ATOM      2  C   UNL     1      -2.228   1.603  24.561  0.00  0.00    +0.199 C 
ATOM      3  C   UNL     1      -1.894   1.071  24.026  0.00  0.00    +0.169 C 
ATOM     11  O   UNL     1      -2.367   1.057  23.351  0.00  0.00    -0.350 OA
ATOM     12  C   UNL     1      -2.994   1.580  23.469  0.00  0.00    +0.162 C 
ATOM     13  C   UNL     1      -2.908   1.917  24.216  0.00  0.00    +0.135 C 
ENDROOT
BRANCH   3   4
ATOM      4  C   UNL     1      -1.207   0.630  24.146  0.00  0.00    +0.147 C 
BRANCH   4   5
ATOM      5  N   UNL     1      -1.254  -0.130  24.462  0.00  0.00    -0.203 NA
ATOM      6  C   UNL     1      -0.602  -0.634  24.427  0.00  0.00    +0.241 C 
ATOM      7  O   UNL     1       0.099  -0.377  24.074  0.00  0.00    -0.273 OA
BRANCH   6   8
ATOM      8  C   UNL     1      -0.650  -1.395  24.743  0.00  0.00    +0.078 C 
ATOM      9  C   UNL     1      -1.000  -2.141  24.757  0.00  0.00    +0.010 C 
ATOM     10  C   UNL     1      -0.384  -1.964  25.275  0.00  0.00    +0.010 C 
ENDBRANCH   6   8
ENDBRANCH   4   5
ENDBRANCH   3   4
BRANCH  13  14
ATOM     14  N   UNL     1      -3.414   2.472  24.560  0.00  0.00    -0.209 NA
BRANCH  14  15
ATOM     15  C   UNL     1      -4.213   2.483  24.355  0.00  0.00    +0.115 C 
BRANCH  15  16
ATOM     16  C   UNL     1      -4.764   2.828  24.864  0.00  0.00    -0.002 A 
ATOM     17  C   UNL     1      -4.712   3.632  25.042  0.00  0.00    +0.018 A 
ATOM     18  C   UNL     1      -5.263   3.977  25.551  0.00  0.00    +0.099 A 
ATOM     19  N   UNL     1      -5.864   3.519  25.881  0.00  0.00    -0.242 NA
ATOM     20  C   UNL     1      -5.915   2.715  25.702  0.00  0.00    +0.099 A 
ATOM     21  C   UNL     1      -5.364   2.369  25.193  0.00  0.00    +0.018 A 
ENDBRANCH  15  16
ENDBRANCH  14  15
ENDBRANCH  13  14
TORSDOF 6
ENDMDL
MODEL 6
REMARK VINA RESULT:      -6.4      2.873      4.127
REMARK  Name = 
REMARK  6 active torsions:
REMARK  status: ('A' for Active; 'I' for Inactive)
REMARK    1  A    between atoms: C_3  and  C_4
REMARK    2  A    between atoms: C_4  and  N_5
REMARK    3  A    between atoms: C_6  and  C_8
REMARK    4  A    between atoms: C_13  and  N_14
REMARK    5  A    between atoms: N_14  and  C_15
REMARK    6  A    between atoms: C_15  and  C_16
REMARK                            x       y       z     vdW  Elec       q    Type
REMARK                         _______ _______ _______ _____ _____    ______ ____
ROOT
ATOM      1  O   UNL     1      -2.139   2.146  23.013  0.00  0.00    -0.219 OA
ATOM      2  C   UNL     1      -2.094   1.799  23.760  0.00  0.00    +0.199 C 
ATOM      3  C   UNL     1      -2.654   1.868  24.362  0.00  0.00    +0.169 C 
ATOM     11  O   UNL     1      -2.387   1.433  25.009  0.00  0.00    -0.350 OA
ATOM     12  C   UNL     1      -1.662   1.095  24.809  0.00  0.00    +0.162 C 
ATOM     13  C   UNL     1      -1.481   1.321  24.037  0.00  0.00    +0.135 C 
ENDROOT
BRANCH   3   4
ATOM      4  C   UNL     1      -3.358   2.297  24.321  0.00  0.00    +0.147 C 
BRANCH   4   5
ATOM      5  N   UNL     1      -4.037   2.011  24.693  0.00  0.00    -0.203 NA
ATOM      6  C   UNL     1      -4.711   2.483  24.743  0.00  0.00    +0.241 C 
ATOM      7  O   UNL     1      -4.706   3.244  24.421  0.00  0.00    -0.273 OA
BRANCH   6   8
ATOM      8  C   UNL     1      -5.389   2.197  25.115  0.00  0.00    +0.078 C 
ATOM      9  C   UNL     1      -6.097   1.774  25.082  0.00  0.00    +0.010 C 
ATOM     10  C   UNL     1      -5.857   2.125  25.789  0.00  0.00    +0.010 C 
ENDBRANCH   6   8
ENDBRANCH   4   5
ENDBRANCH   3   4
BRANCH  13  14
ATOM     14  N   UNL     1      -0.805   1.107  23.615  0.00  0.00    -0.209 NA
BRANCH  14  15
ATOM     15  C   UNL     1      -0.214   0.663  23.981  0.00  0.00    +0.115 C 
BRANCH  15  16
ATOM     16  C   UNL     1       0.478   0.480  23.570  0.00  0.00    -0.002 A 
ATOM     17  C   UNL     1       1.141   0.967  23.641  0.00  0.00    +0.018 A 
ATOM     18  C   UNL     1       1.832   0.784  23.230  0.00  0.00    +0.099 A 
ATOM     19  N   UNL     1       1.861   0.114  22.749  0.00  0.00    -0.242 NA
ATOM     20  C   UNL     1       1.200  -0.372  22.678  0.00  0.00    +0.099 A 
ATOM     21  C   UNL     1       0.507  -0.189  23.089  0.00  0.00    +0.018 A 
ENDBRANCH  15  16
ENDBRANCH  14  15
ENDBRANCH  13  14
TORSDOF 6
ENDMDL
MODEL 7
REMARK VINA RESULT:      -6.3      1.791      2.227
REMARK  Name = 
REMARK  6 active torsions:
REMARK  status: ('A' for Active; 'I' for Inactive)
REMARK    1  A    between atoms: C_3  and  C_4
REMARK    2  A    between atoms: C_4  and  N_5
REMARK    3  A    between atoms: C_6  and  C_8
REMARK    4  A    between atoms: C_13  and  N_14
REMARK    5  A    between atoms: N_14  and  C_15
REMARK    6  A    between atoms: C_15  and  C_16
REMARK                            x       y       z     vdW  Elec       q    Type
REMARK                         _______ _______ _______ _____ _____    ______ ____
ROOT
ATOM      1  O   UNL     1      -3.520   0.888  23.631  0.00  0.00    -0.219 OA
ATOM      2  C   UNL     1      -2.991   1.023  24.249  0.00  0.00    +0.199 C 
ATOM      3  C   UNL     1      -2.857   1.747  24.624  0.00  0.00    +0.169 C 
ATOM     11  O   UNL     1      -2.286   1.630  25.206  0.00  0.00    -0.350 OA
ATOM     12  C   UNL     1      -2.066   0.835  25.193  0.00  0.00    +0.162 C 
ATOM     13  C   UNL     1      -2.501   0.460  24.601  0.00  0.00    +0.135 C 
ENDROOT
BRANCH   3   4
ATOM      4  C   UNL     1      -3.230   2.461  24.445  0.00  0.00    +0.147 C 
BRANCH   4   5
ATOM      5  N   UNL     1      -3.895   2.696  24.872  0.00  0.00    -0.203 NA
ATOM      6  C   UNL     1      -4.197   3.458  24.781  0.00  0.00    +0.241 C 
ATOM      7  O   UNL     1      -3.832   3.986  24.261  0.00  0.00    -0.273 OA
BRANCH   6   8
ATOM      8  C   UNL     1      -4.863   3.693  25.208  0.00  0.00    +0.078 C 
ATOM      9  C   UNL     1      -5.378   4.287  25.457  0.00  0.00    +0.010 C 
ATOM     10  C   UNL     1      -5.499   3.507  25.698  0.00  0.00    +0.010 C 
ENDBRANCH   6   8
ENDBRANCH   4   5
ENDBRANCH   3   4
BRANCH  13  14
ATOM     14  N   UNL     1      -2.456  -0.338  24.397  0.00  0.00    -0.209 NA
BRANCH  14  15
ATOM     15  C   UNL     1      -2.389  -0.911  24.987  0.00  0.00    +0.115 C 
BRANCH  15  16
ATOM     16  C   UNL     1      -2.546  -1.702  24.813  0.00  0.00    -0.002 A 
ATOM     17  C   UNL     1      -3.286  -2.023  24.987  0.00  0.00    +0.018 A 
ATOM     18  C   UNL     1      -3.443  -2.814  24.813  0.00  0.00    +0.099 A 
ATOM     19  N   UNL     1      -2.860  -3.283  24.464  0.00  0.00    -0.242 NA
ATOM     20  C   UNL     1      -2.121  -2.962  24.290  0.00  0.00    +0.099 A 
ATOM     21  C   UNL     1      -1.964  -2.171  24.464  0.00  0.00    +0.018 A 
ENDBRANCH  15  16
ENDBRANCH  14  15
ENDBRANCH  13  14
TORSDOF 6
ENDMDL
MODEL 8
REMARK VINA RESULT:      -6.2     17.424     18.988
REMARK  Name = 
REMARK  6 active torsions:
REMARK  status: ('A' for Active; 'I' for Inactive)
REMARK    1  A    between atoms: C_3  and  C_4
REMARK    2  A    between atoms: C_4  and  N_5
REMARK    3  A    between atoms: C_6  and  C_8
REMARK    4  A    between atoms: C_13  and  N_14
REMARK    5  A    between atoms: N_14  and  C_15
REMARK    6  A    between atoms: C_15  and  C_16
REMARK                            x       y       z     vdW  Elec       q    Type
REMARK                         _______ _______ _______ _____ _____    ______ ____
ROOT
ATOM      1  O   UNL     1      12.943   6.741  19.011  0.00  0.00    -0.219 OA
ATOM      2  C   UNL     1      13.500   7.274  18.716  0.00  0.00    +0.199 C 
ATOM      3  C   UNL     1      14.276   7.363  18.983  0.00  0.00    +0.169 C 
ATOM     11  O   UNL     1      14.634   7.954  18.534  0.00  0.00    -0.350 OA
ATOM     12  C   UNL     1      14.080   8.231  17.989  0.00  0.00    +0.162 C 
ATOM     13  C   UNL     1      13.379   7.811  18.101  0.00  0.00    +0.135 C 
ENDROOT
BRANCH   3   4
ATOM      4  C   UNL     1      14.630   6.934  19.592  0.00  0.00    +0.147 C 
BRANCH   4   5
ATOM      5  N   UNL     1      15.445   6.987  19.713  0.00  0.00    -0.203 NA
ATOM      6  C   UNL     1      15.798   6.572  20.332  0.00  0.00    +0.241 C 
ATOM      7  O   UNL     1      15.336   6.103  20.831  0.00  0.00    -0.273 OA
BRANCH   6   8
ATOM      8  C   UNL     1      16.612   6.625  20.454  0.00  0.00    +0.078 C 
ATOM      9  C   UNL     1      17.254   6.945  20.861  0.00  0.00    +0.010 C 
ATOM     10  C   UNL     1      17.380   6.397  20.257  0.00  0.00    +0.010 C 
ENDBRANCH   6   8
ENDBRANCH   4   5
ENDBRANCH   3   4
BRANCH  13  14
ATOM     14  N   UNL     1      12.680   7.910  17.675  0.00  0.00    -0.209 NA
BRANCH  14  15
ATOM     15  C   UNL     1      12.456   8.662  17.419  0.00  0.00    +0.115 C 
BRANCH  15  16
ATOM     16  C   UNL     1      11.848   8.745  16.868  0.00  0.00    -0.002 A 
ATOM     17  C   UNL     1      11.071   8.563  17.080  0.00  0.00    +0.018 A 
ATOM     18  C   UNL     1      10.463   8.646  16.528  0.00  0.00    +0.099 A 
ATOM     19  N   UNL     1      10.632   8.911  15.766  0.00  0.00    -0.242 NA
ATOM     20  C   UNL     1      11.408   9.094  15.554  0.00  0.00    +0.099 A 
ATOM     21  C   UNL     1      12.016   9.011  16.105  0.00  0.00    +0.018 A 
ENDBRANCH  15  16
ENDBRANCH  14  15
ENDBRANCH  13  14
TORSDOF 6
ENDMDL
MODEL 9
REMARK VINA RESULT:      -5.8     15.495     18.013
REMARK  Name = 
REMARK  6 active torsions:
REMARK  status: ('A' for Active; 'I' for Inactive)
REMARK    1  A    between atoms: C_3  and  C_4
REMARK    2  A    between atoms: C_4  and  N_5
REMARK    3  A    between atoms: C_6  and  C_8
REMARK    4  A    between atoms: C_13  and  N_14
REMARK    5  A    between atoms: N_14  and  C_15
REMARK    6  A    between atoms: C_15  and  C_16
REMARK                            x       y       z     vdW  Elec       q    Type
REMARK                         _______ _______ _______ _____ _____    ______ ____
ROOT
ATOM      1  O   UNL     1      12.069   6.704  18.686  0.00  0.00    -0.219 OA
ATOM      2  C   UNL     1      12.634   7.163  19.074  0.00  0.00    +0.199 C 
ATOM      3  C   UNL     1      12.726   7.232  19.891  0.00  0.00    +0.169 C 
ATOM     11  O   UNL     1      13.354   7.745  20.034  0.00  0.00    -0.350 OA
ATOM     12  C   UNL     1      13.651   7.994  19.306  0.00  0.00    +0.162 C 
ATOM     13  C   UNL     1      13.206   7.635  18.713  0.00  0.00    +0.135 C 
ENDROOT
BRANCH   3   4
ATOM      4  C   UNL     1      12.268   6.853  20.464  0.00  0.00    +0.147 C 
BRANCH   4   5
ATOM      5  N   UNL     1      11.780   7.295  20.960  0.00  0.00    -0.203 NA
ATOM      6  C   UNL     1      11.295   6.915  21.509  0.00  0.00    +0.241 C 
ATOM      7  O   UNL     1      11.300   6.091  21.561  0.00  0.00    -0.273 OA
BRANCH   6   8
ATOM      8  C   UNL     1      10.807   7.357  22.005  0.00  0.00    +0.078 C 
ATOM      9  C   UNL     1      10.629   8.069  22.382  0.00  0.00    +0.010 C 
ATOM     10  C   UNL     1      10.141   7.412  22.488  0.00  0.00    +0.010 C 
ENDBRANCH   6   8
ENDBRANCH   4   5
ENDBRANCH   3   4
BRANCH  13  14
ATOM     14  N   UNL     1      13.314   7.729  17.900  0.00  0.00    -0.209 NA
BRANCH  14  15
ATOM     15  C   UNL     1      13.690   8.404  17.610  0.00  0.00    +0.115 C 
BRANCH  15  16
ATOM     16  C   UNL     1      13.685   8.563  16.801  0.00  0.00    -0.002 A 
ATOM     17  C   UNL     1      13.031   8.934  16.459  0.00  0.00    +0.018 A 
ATOM     18  C   UNL     1      13.025   9.093  15.649  0.00  0.00    +0.099 A 
ATOM     19  N   UNL     1      13.672   8.882  15.182  0.00  0.00    -0.242 NA
ATOM     20  C   UNL     1      14.324   8.512  15.524  0.00  0.00    +0.099 A 
ATOM     21  C   UNL     1      14.331   8.352  16.334  0.00  0.00    +0.018 A 
ENDBRANCH  15  16
ENDBRANCH  14  15
ENDBRANCH  13  14
TORSDOF 6
ENDMDL
MODEL 10
REMARK VINA RESULT:      -5.6     15.283     17.741
REMARK  Name = 
REMARK  6 active torsions:
REMARK  status: ('A' for Active; 'I' for Inactive)
REMARK    1  A    between atoms: C_3  and  C_4
REMARK    2  A    between atoms: C_4  and  N_5
REMARK    3  A    between atoms: C_6  and  C_8
REMARK    4  A    between atoms: C_13  and  N_14
REMARK    5  A    between atoms: N_14  and  C_15
REMARK    6  A    between atoms: C_15  and  C_16
REMARK                            x       y       z     vdW  Elec       q    Type
REMARK                         _______ _______ _______ _____ _____    ______ ____
ROOT
ATOM      1  O   UNL     1      10.933   8.336  18.037  0.00  0.00    -0.219 OA
ATOM      2  C   UNL     1      11.659   8.551  18.363  0.00  0.00    +0.199 C 
ATOM      3  C   UNL     1      12.332   8.779  17.942  0.00  0.00    +0.169 C 
ATOM     11  O   UNL     1      12.929   8.944  18.485  0.00  0.00    -0.350 OA
ATOM     12  C   UNL     1      12.627   8.819  19.242  0.00  0.00    +0.162 C 
ATOM     13  C   UNL     1      11.842   8.576  19.167  0.00  0.00    +0.135 C 
ENDROOT
BRANCH   3   4
ATOM      4  C   UNL     1      12.394   8.831  17.120  0.00  0.00    +0.147 C 
BRANCH   4   5
ATOM      5  N   UNL     1      13.137   8.895  16.767  0.00  0.00    -0.203 NA
ATOM      6  C   UNL     1      13.200   8.955  15.947  0.00  0.00    +0.241 C 
ATOM      7  O   UNL     1      12.520   8.950  15.479  0.00  0.00    -0.273 OA
BRANCH   6   8
ATOM      8  C   UNL     1      13.943   9.019  15.593  0.00  0.00    +0.078 C 
ATOM      9  C   UNL     1      14.407   9.089  14.915  0.00  0.00    +0.010 C 
ATOM     10  C   UNL     1      14.764   9.061  15.659  0.00  0.00    +0.010 C 
ENDBRANCH   6   8
ENDBRANCH   4   5
ENDBRANCH   3   4
BRANCH  13  14
ATOM     14  N   UNL     1      11.330   8.391  19.786  0.00  0.00    -0.209 NA
BRANCH  14  15
ATOM     15  C   UNL     1      11.579   8.479  20.568  0.00  0.00    +0.115 C 
BRANCH  15  16
ATOM     16  C   UNL     1      11.116   8.184  21.184  0.00  0.00    -0.002 A 
ATOM     17  C   UNL     1      10.743   8.704  21.704  0.00  0.00    +0.018 A 
ATOM     18  C   UNL     1      10.280   8.409  22.320  0.00  0.00    +0.099 A 
ATOM     19  N   UNL     1      10.190   7.594  22.415  0.00  0.00    -0.242 NA
ATOM     20  C   UNL     1      10.563   7.075  21.895  0.00  0.00    +0.099 A 
ATOM     21  C   UNL     1      11.026   7.369  21.278  0.00  0.00    +0.018 A 
ENDBRANCH  15  16
ENDBRANCH  14  15
ENDBRANCH  13  14
TORSDOF 6
ENDMDL
