MODEL 1
REMARK VINA RESULT:      -8.6      0.000      0.000
REMARK  Name = 
REMARK  6 active torsions:
REMARK  status: ('A' for Active; 'I' for Inactive)
REMARK    1  A    between atoms: N_4  and  C_5
REMARK    2  A    between atoms: C_5  and  C_6
REMARK    3  A    between atoms: C_9  and  N_10
REMARK    4  A    between atoms: N_10  and  C_11
REMARK    5  A    between atoms: C_11  and  C_12
REMARK    6  A    between atoms: C_15  and  S_18
REMARK                            x       y       z     vdW  Elec       q    Type
REMARK                         _______ _______ _______ _____ _____    ______ ____
ROOT
ATOM     10  N   UNL     1      -2.787   1.009  24.951  0.00  0.00    -0.209 NA
ENDROOT
BRANCH  10   9
ATOM      6  C   UNL     1      -2.194   3.058  25.034  0.00  0.00    +0.169 C 
ATOM      7  O   UNL     1      -3.016   3.129  25.052  0.00  0.00    -0.350 OA
ATOM      8  C   UNL     1      -3.338   2.370  25.023  0.00  0.00    +0.162 C 
ATOM      9  C   UNL     1      -2.715   1.830  24.987  0.00  0.00    +0.135 C 
ATOM     22  C   UNL     1      -2.008   2.255  24.994  0.00  0.00    +0.199 C 
ATOM     23  O   UNL     1      -1.249   1.934  24.965  0.00  0.00    -0.219 OA
BRANCH   6   5
ATOM      5  C   UNL     1      -1.653   3.680  25.053  0.00  0.00    +0.147 C 
BRANCH   5   4
ATOM      1  C   UNL     1      -1.654   5.863  25.088  0.00  0.00    +0.096 C 
ATOM      2  C   UNL     1      -1.384   5.084  25.045  0.00  0.00    +0.242 C 
ATOM      3  O   UNL     1      -0.580   4.930  24.951  0.00  0.00    -0.273 OA
ATOM      4  N   UNL     1      -1.921   4.459  25.096  0.00  0.00    -0.203 NA
ENDBRANCH   5   4
ENDBRANCH   6   5
ENDBRANCH  10   9
BRANCH  10  11
ATOM     11  C   UNL     1      -3.534   0.662  24.891  0.00  0.00    +0.115 C 
BRANCH  11  12
ATOM     12  C   UNL     1      -3.603  -0.150  24.767  0.00  0.00    -0.005 A 
ATOM     13  C   UNL     1      -3.828  -0.437  24.027  0.00  0.00    -0.002 A 
ATOM     14  C   UNL     1      -3.897  -1.250  23.904  0.00  0.00    +0.018 A 
ATOM     15  C   UNL     1      -3.740  -1.776  24.520  0.00  0.00    +0.106 A 
ATOM     16  C   UNL     1      -3.514  -1.489  25.260  0.00  0.00    +0.018 A 
ATOM     17  C   UNL     1      -3.446  -0.676  25.383  0.00  0.00    -0.002 A 
BRANCH  15  18
ATOM     18  S   UNL     1      -3.808  -2.589  24.396  0.00  0.00    +0.010 S 
ATOM     19  C   UNL     1      -3.876  -3.402  24.273  0.00  0.00    +0.182 C 
ATOM     20  O   UNL     1      -4.278  -2.449  23.734  0.00  0.00    -0.169 OA
ATOM     21  O   UNL     1      -3.337  -2.728  25.060  0.00  0.00    -0.169 OA
ENDBRANCH  15  18
ENDBRANCH  11  12
ENDBRANCH  10  11
TORSDOF 6
ENDMDL
MODEL 2
REMARK VINA RESULT:      -7.9      2.067      5.751
REMARK  Name = 
REMARK  6 active torsions:
REMARK  status: ('A' for Active; 'I' for Inactive)
REMARK    1  A    between atoms: N_4  and  C_5
REMARK    2  A    between atoms: C_5  and  C_6
REMARK    3  A    between atoms: C_9  and  N_10
REMARK    4  A    between atoms: N_10  and  C_11
REMARK    5  A    between atoms: C_11  and  C_12
REMARK    6  A    between atoms: C_15  and  S_18
REMARK                            x       y       z     vdW  Elec       q    Type
REMARK                         _______ _______ _______ _____ _____    ______ ____
ROOT
ATOM     10  N   UNL     1      -3.512   1.793  24.539  0.00  0.00    -0.209 NA
ENDROOT
BRANCH  10   9
ATOM      6  C   UNL     1      -4.124  -0.250  24.438  0.00  0.00    +0.169 C 
ATOM      7  O   UNL     1      -4.476  -0.013  25.146  0.00  0.00    -0.350 OA
ATOM      8  C   UNL     1      -4.289   0.780  25.269  0.00  0.00    +0.162 C 
ATOM      9  C   UNL     1      -3.822   1.034  24.638  0.00  0.00    +0.135 C 
ATOM     22  C   UNL     1      -3.720   0.398  24.125  0.00  0.00    +0.199 C 
ATOM     23  O   UNL     1      -3.290   0.406  23.421  0.00  0.00    -0.219 OA
BRANCH   6   5
ATOM      5  C   UNL     1      -4.168  -1.003  24.103  0.00  0.00    +0.147 C 
BRANCH   5   4
ATOM      1  C   UNL     1      -3.573  -3.050  24.571  0.00  0.00    +0.096 C 
ATOM      2  C   UNL     1      -3.929  -2.409  24.192  0.00  0.00    +0.242 C 
ATOM      3  O   UNL     1      -4.400  -2.531  23.527  0.00  0.00    -0.273 OA
ATOM      4  N   UNL     1      -3.813  -1.644  24.481  0.00  0.00    -0.203 NA
ENDBRANCH   5   4
ENDBRANCH   6   5
ENDBRANCH  10   9
BRANCH  10  11
ATOM     11  C   UNL     1      -3.401   2.282  25.194  0.00  0.00    +0.115 C 
BRANCH  11  12
ATOM     12  C   UNL     1      -2.877   2.918  25.149  0.00  0.00    -0.005 A 
ATOM     13  C   UNL     1      -3.095   3.603  24.745  0.00  0.00    -0.002 A 
ATOM     14  C   UNL     1      -2.571   4.239  24.700  0.00  0.00    +0.018 A 
ATOM     15  C   UNL     1      -1.830   4.190  25.059  0.00  0.00    +0.106 A 
ATOM     16  C   UNL     1      -1.613   3.504  25.464  0.00  0.00    +0.018 A 
ATOM     17  C   UNL     1      -2.137   2.868  25.509  0.00  0.00    -0.002 A 
BRANCH  15  18
ATOM     18  S   UNL     1      -1.306   4.825  25.015  0.00  0.00    +0.010 S 
ATOM     19  C   UNL     1      -0.782   5.462  24.970  0.00  0.00    +0.182 C 
ATOM     20  O   UNL     1      -0.772   4.357  24.597  0.00  0.00    -0.169 OA
ATOM     21  O   UNL     1      -1.841   5.295  25.433  0.00  0.00    -0.169 OA
ENDBRANCH  15  18
ENDBRANCH  11  12
ENDBRANCH  10  11
TORSDOF 6
ENDMDL
MODEL 3
REMARK VINA RESULT:      -7.7      2.112      5.910
REMARK  Name = 
REMARK  6 active torsions:
REMARK  status: ('A' for Active; 'I' for Inactive)
REMARK    1  A    between atoms: N_4  and  C_5
REMARK    2  A    between atoms: C_5  and  C_6
REMARK    3  A    between atoms: C_9  and  N_10
REMARK    4  A    between atoms: N_10  and  C_11
REMARK    5  A    between atoms: C_11  and  C_12
REMARK    6  A    between atoms: C_15  and  S_18
REMARK                            x       y       z     vdW  Elec       q    Type
REMARK                         _______ _______ _______ _____ _____    ______ ____
ROOT
ATOM     10  N   UNL     1      -2.249   1.439  24.731  0.00  0.00    -0.209 NA
ENDROOT
BRANCH  10   9
ATOM      6  C   UNL     1      -2.930  -0.583  24.634  0.00  0.00    +0.169 C 
ATOM      7  O   UNL     1      -2.300  -0.652  25.162  0.00  0.00    -0.350 OA
ATOM      8  C   UNL     1      -1.969   0.097  25.262  0.00  0.00    +0.162 C 
ATOM      9  C   UNL     1      -2.394   0.628  24.796  0.00  0.00    +0.135 C 
ATOM     22  C   UNL     1      -2.988   0.209  24.408  0.00  0.00    +0.199 C 
ATOM     23  O   UNL     1      -3.542   0.525  23.885  0.00  0.00    -0.219 OA
BRANCH   6   5
ATOM      5  C   UNL     1      -3.417  -1.197  24.377  0.00  0.00    +0.147 C 
BRANCH   5   4
ATOM      1  C   UNL     1      -3.545  -3.371  24.522  0.00  0.00    +0.096 C 
ATOM      2  C   UNL     1      -3.714  -2.593  24.305  0.00  0.00    +0.242 C 
ATOM      3  O   UNL     1      -4.348  -2.433  23.803  0.00  0.00    -0.273 OA
ATOM      4  N   UNL     1      -3.248  -1.974  24.593  0.00  0.00    -0.203 NA
ENDBRANCH   5   4
ENDBRANCH   6   5
ENDBRANCH  10   9
BRANCH  10  11
ATOM     11  C   UNL     1      -1.718   1.806  25.245  0.00  0.00    +0.115 C 
BRANCH  11  12
ATOM     12  C   UNL     1      -1.582   2.617  25.186  0.00  0.00    -0.005 A 
ATOM     13  C   UNL     1      -0.948   2.897  24.737  0.00  0.00    -0.002 A 
ATOM     14  C   UNL     1      -0.812   3.708  24.678  0.00  0.00    +0.018 A 
ATOM     15  C   UNL     1      -1.309   4.240  25.066  0.00  0.00    +0.106 A 
ATOM     16  C   UNL     1      -1.942   3.960  25.514  0.00  0.00    +0.018 A 
ATOM     17  C   UNL     1      -2.079   3.149  25.574  0.00  0.00    -0.002 A 
BRANCH  15  18
ATOM     18  S   UNL     1      -1.173   5.052  25.007  0.00  0.00    +0.010 S 
ATOM     19  C   UNL     1      -1.037   5.864  24.948  0.00  0.00    +0.182 C 
ATOM     20  O   UNL     1      -0.457   4.904  24.626  0.00  0.00    -0.169 OA
ATOM     21  O   UNL     1      -1.890   5.199  25.389  0.00  0.00    -0.169 OA
ENDBRANCH  15  18
ENDBRANCH  11  12
ENDBRANCH  10  11
TORSDOF 6
ENDMDL
MODEL 4
REMARK VINA RESULT:      -7.4      2.919      4.165
REMARK  Name = 
REMARK  6 active torsions:
REMARK  status: ('A' for Active; 'I' for Inactive)
REMARK    1  A    between atoms: N_4  and  C_5
REMARK    2  A    between atoms: C_5  and  C_6
REMARK    3  A    between atoms: C_9  and  N_10
REMARK    4  A    between atoms: N_10  and  C_11
REMARK    5  A    between atoms: C_11  and  C_12
REMARK    6  A    between atoms: C_15  and  S_18
REMARK                            x       y       z     vdW  Elec       q    Type
REMARK                         _______ _______ _______ _____ _____    ______ ____
ROOT
ATOM     10  N   UNL     1      -2.079   0.883  24.485  0.00  0.00    -0.209 NA
ENDROOT
BRANCH  10   9
ATOM      6  C   UNL     1      -0.127   0.322  23.827  0.00  0.00    +0.169 C 
ATOM      7  O   UNL     1      -0.483  -0.416  23.915  0.00  0.00    -0.350 OA
ATOM      8  C   UNL     1      -1.257  -0.296  24.172  0.00  0.00    +0.162 C 
ATOM      9  C   UNL     1      -1.380   0.517  24.243  0.00  0.00    +0.135 C 
ATOM     22  C   UNL     1      -0.681   0.899  24.030  0.00  0.00    +0.199 C 
ATOM     23  O   UNL     1      -0.558   1.715  24.021  0.00  0.00    -0.219 OA
BRANCH   6   5
ATOM      5  C   UNL     1       0.648   0.461  23.580  0.00  0.00    +0.147 C 
BRANCH   5   4
ATOM      1  C   UNL     1       2.077  -0.310  22.121  0.00  0.00    +0.096 C 
ATOM      2  C   UNL     1       1.753   0.140  22.731  0.00  0.00    +0.242 C 
ATOM      3  O   UNL     1       2.207   0.719  23.103  0.00  0.00    -0.273 OA
ATOM      4  N   UNL     1       0.972   0.011  22.970  0.00  0.00    -0.203 NA
ENDBRANCH   5   4
ENDBRANCH   6   5
ENDBRANCH  10   9
BRANCH  10  11
ATOM     11  C   UNL     1      -2.807   0.600  24.219  0.00  0.00    +0.115 C 
BRANCH  11  12
ATOM     12  C   UNL     1      -3.506   0.954  24.476  0.00  0.00    -0.005 A 
ATOM     13  C   UNL     1      -4.004   0.552  24.997  0.00  0.00    -0.002 A 
ATOM     14  C   UNL     1      -4.703   0.906  25.254  0.00  0.00    +0.018 A 
ATOM     15  C   UNL     1      -4.905   1.661  24.991  0.00  0.00    +0.106 A 
ATOM     16  C   UNL     1      -4.406   2.062  24.469  0.00  0.00    +0.018 A 
ATOM     17  C   UNL     1      -3.707   1.708  24.212  0.00  0.00    -0.002 A 
BRANCH  15  18
ATOM     18  S   UNL     1      -5.604   2.015  25.248  0.00  0.00    +0.010 S 
ATOM     19  C   UNL     1      -6.303   2.370  25.505  0.00  0.00    +0.182 C 
ATOM     20  O   UNL     1      -6.028   1.586  24.687  0.00  0.00    -0.169 OA
ATOM     21  O   UNL     1      -5.179   2.446  25.810  0.00  0.00    -0.169 OA
ENDBRANCH  15  18
ENDBRANCH  11  12
ENDBRANCH  10  11
TORSDOF 6
ENDMDL
MODEL 5
REMARK VINA RESULT:      -6.2      3.129      4.472
REMARK  Name = 
REMARK  6 active torsions:
REMARK  status: ('A' for Active; 'I' for Inactive)
REMARK    1  A    between atoms: N_4  and  C_5
REMARK    2  A    between atoms: C_5  and  C_6
REMARK    3  A    between atoms: C_9  and  N_10
REMARK    4  A    between atoms: N_10  and  C_11
REMARK    5  A    between atoms: C_11  and  C_12
REMARK    6  A    between atoms: C_15  and  S_18
REMARK                            x       y       z     vdW  Elec       q    Type
REMARK                         _______ _______ _______ _____ _____    ______ ____
ROOT
ATOM     10  N   UNL     1      -1.554   1.169  24.100  0.00  0.00    -0.209 NA
ENDROOT
BRANCH  10   9
ATOM      6  C   UNL     1      -3.538   1.607  24.755  0.00  0.00    +0.169 C 
ATOM      7  O   UNL     1      -3.444   0.837  25.036  0.00  0.00    -0.350 OA
ATOM      8  C   UNL     1      -2.690   0.580  24.825  0.00  0.00    +0.162 C 
ATOM      9  C   UNL     1      -2.317   1.190  24.413  0.00  0.00    +0.135 C 
ATOM     22  C   UNL     1      -2.842   1.825  24.370  0.00  0.00    +0.199 C 
ATOM     23  O   UNL     1      -2.696   2.551  24.006  0.00  0.00    -0.219 OA
BRANCH   6   5
ATOM      5  C   UNL     1      -4.211   2.076  24.844  0.00  0.00    +0.147 C 
BRANCH   5   4
ATOM      1  C   UNL     1      -6.213   1.937  25.703  0.00  0.00    +0.096 C 
ATOM      2  C   UNL     1      -5.531   2.253  25.362  0.00  0.00    +0.242 C 
ATOM      3  O   UNL     1      -5.488   3.060  25.197  0.00  0.00    -0.273 OA
ATOM      4  N   UNL     1      -4.892   1.761  25.185  0.00  0.00    -0.203 NA
ENDBRANCH   5   4
ENDBRANCH   6   5
ENDBRANCH  10   9
BRANCH  10  11
ATOM     11  C   UNL     1      -1.024   0.584  24.343  0.00  0.00    +0.115 C 
BRANCH  11  12
ATOM     12  C   UNL     1      -0.301   0.497  23.955  0.00  0.00    -0.005 A 
ATOM     13  C   UNL     1       0.224   1.132  23.916  0.00  0.00    -0.002 A 
ATOM     14  C   UNL     1       0.947   1.045  23.529  0.00  0.00    +0.018 A 
ATOM     15  C   UNL     1       1.145   0.323  23.181  0.00  0.00    +0.106 A 
ATOM     16  C   UNL     1       0.619  -0.311  23.221  0.00  0.00    +0.018 A 
ATOM     17  C   UNL     1      -0.104  -0.224  23.608  0.00  0.00    -0.002 A 
BRANCH  15  18
ATOM     18  S   UNL     1       1.868   0.236  22.794  0.00  0.00    +0.010 S 
ATOM     19  C   UNL     1       2.592   0.148  22.406  0.00  0.00    +0.182 C 
ATOM     20  O   UNL     1       2.220   0.750  23.334  0.00  0.00    -0.169 OA
ATOM     21  O   UNL     1       1.516  -0.279  22.253  0.00  0.00    -0.169 OA
ENDBRANCH  15  18
ENDBRANCH  11  12
ENDBRANCH  10  11
TORSDOF 6
ENDMDL
MODEL 6
REMARK VINA RESULT:      -6.0     18.282     19.828
REMARK  Name = 
REMARK  6 active torsions:
REMARK  status: ('A' for Active; 'I' for Inactive)
REMARK    1  A    between atoms: N_4  and  C_5
REMARK    2  A    between atoms: C_5  and  C_6
REMARK    3  A    between atoms: C_9  and  N_10
REMARK    4  A    between atoms: N_10  and  C_11
REMARK    5  A    between atoms: C_11  and  C_12
REMARK    6  A    between atoms: C_15  and  S_18
REMARK                            x       y       z     vdW  Elec       q    Type
REMARK                         _______ _______ _______ _____ _____    ______ ____
ROOT
ATOM     10  N   UNL     1      14.158   7.871  18.620  0.00  0.00    -0.209 NA
ENDROOT
BRANCH  10   9
ATOM      6  C   UNL     1      12.580   8.316  17.252  0.00  0.00    +0.169 C 
ATOM      7  O   UNL     1      13.242   8.513  16.801  0.00  0.00    -0.350 OA
ATOM      8  C   UNL     1      13.913   8.370  17.258  0.00  0.00    +0.162 C 
ATOM      9  C   UNL     1      13.666   8.085  17.992  0.00  0.00    +0.135 C 
ATOM     22  C   UNL     1      12.843   8.051  17.988  0.00  0.00    +0.199 C 
ATOM     23  O   UNL     1      12.365   7.798  18.611  0.00  0.00    -0.219 OA
BRANCH   6   5
ATOM      5  C   UNL     1      11.794   8.373  17.009  0.00  0.00    +0.147 C 
BRANCH   5   4
ATOM      1  C   UNL     1      10.660   9.094  15.288  0.00  0.00    +0.096 C 
ATOM      2  C   UNL     1      10.839   8.833  16.051  0.00  0.00    +0.242 C 
ATOM      3  O   UNL     1      10.242   8.772  16.617  0.00  0.00    -0.273 OA
ATOM      4  N   UNL     1      11.615   8.633  16.248  0.00  0.00    -0.203 NA
ENDBRANCH   5   4
ENDBRANCH   6   5
ENDBRANCH  10   9
BRANCH  10  11
ATOM     11  C   UNL     1      14.925   7.604  18.471  0.00  0.00    +0.115 C 
BRANCH  11  12
ATOM     12  C   UNL     1      15.421   7.405  19.099  0.00  0.00    -0.005 A 
ATOM     13  C   UNL     1      15.544   7.942  19.713  0.00  0.00    -0.002 A 
ATOM     14  C   UNL     1      16.040   7.743  20.342  0.00  0.00    +0.018 A 
ATOM     15  C   UNL     1      16.413   7.007  20.356  0.00  0.00    +0.106 A 
ATOM     16  C   UNL     1      16.289   6.470  19.742  0.00  0.00    +0.018 A 
ATOM     17  C   UNL     1      15.793   6.670  19.113  0.00  0.00    -0.002 A 
BRANCH  15  18
ATOM     18  S   UNL     1      16.909   6.807  20.984  0.00  0.00    +0.010 S 
ATOM     19  C   UNL     1      17.405   6.608  21.613  0.00  0.00    +0.182 C 
ATOM     20  O   UNL     1      16.478   6.116  21.106  0.00  0.00    -0.169 OA
ATOM     21  O   UNL     1      17.341   7.500  20.862  0.00  0.00    -0.169 OA
ENDBRANCH  15  18
ENDBRANCH  11  12
ENDBRANCH  10  11
TORSDOF 6
ENDMDL
MODEL 7
REMARK VINA RESULT:      -5.8     14.119     14.757
REMARK  Name = 
REMARK  6 active torsions:
REMARK  status: ('A' for Active; 'I' for Inactive)
REMARK    1  A    between atoms: N_4  and  C_5
REMARK    2  A    between atoms: C_5  and  C_6
REMARK    3  A    between atoms: C_9  and  N_10
REMARK    4  A    between atoms: N_10  and  C_11
REMARK    5  A    between atoms: C_11  and  C_12
REMARK    6  A    between atoms: C_15  and  S_18
REMARK                            x       y       z     vdW  Elec       q    Type
REMARK                         _______ _______ _______ _____ _____    ______ ____
ROOT
ATOM     10  N   UNL     1      -5.844 -10.345  16.503  0.00  0.00    -0.209 NA
ENDROOT
BRANCH  10   9
ATOM      6  C   UNL     1      -3.760 -10.599  16.111  0.00  0.00    +0.169 C 
ATOM      7  O   UNL     1      -3.774 -10.642  16.935  0.00  0.00    -0.350 OA
ATOM      8  C   UNL     1      -4.556 -10.552  17.181  0.00  0.00    +0.162 C 
ATOM      9  C   UNL     1      -5.025 -10.453  16.510  0.00  0.00    +0.135 C 
ATOM     22  C   UNL     1      -4.534 -10.482  15.849  0.00  0.00    +0.199 C 
ATOM     23  O   UNL     1      -4.773 -10.408  15.063  0.00  0.00    -0.219 OA
BRANCH   6   5
ATOM      5  C   UNL     1      -3.091 -10.661  15.634  0.00  0.00    +0.147 C 
BRANCH   5   4
ATOM      1  C   UNL     1      -0.936 -10.333  15.761  0.00  0.00    +0.096 C 
ATOM      2  C   UNL     1      -1.679 -10.527  15.457  0.00  0.00    +0.242 C 
ATOM      3  O   UNL     1      -1.752 -10.781  14.676  0.00  0.00    -0.273 OA
ATOM      4  N   UNL     1      -2.349 -10.468  15.937  0.00  0.00    -0.203 NA
ENDBRANCH   5   4
ENDBRANCH   6   5
ENDBRANCH  10   9
BRANCH  10  11
ATOM     11  C   UNL     1      -6.242 -10.158  17.201  0.00  0.00    +0.115 C 
BRANCH  11  12
ATOM     12  C   UNL     1      -7.059 -10.049  17.193  0.00  0.00    -0.005 A 
ATOM     13  C   UNL     1      -7.563 -10.702  17.223  0.00  0.00    -0.002 A 
ATOM     14  C   UNL     1      -8.380 -10.592  17.215  0.00  0.00    +0.018 A 
ATOM     15  C   UNL     1      -8.695  -9.830  17.176  0.00  0.00    +0.106 A 
ATOM     16  C   UNL     1      -8.190  -9.178  17.146  0.00  0.00    +0.018 A 
ATOM     17  C   UNL     1      -7.373  -9.287  17.154  0.00  0.00    -0.002 A 
BRANCH  15  18
ATOM     18  S   UNL     1      -9.512  -9.720  17.167  0.00  0.00    +0.010 S 
ATOM     19  C   UNL     1     -10.330  -9.610  17.158  0.00  0.00    +0.182 C 
ATOM     20  O   UNL     1      -9.528  -9.768  17.990  0.00  0.00    -0.169 OA
ATOM     21  O   UNL     1      -9.496  -9.672  16.343  0.00  0.00    -0.169 OA
ENDBRANCH  15  18
ENDBRANCH  11  12
ENDBRANCH  10  11
TORSDOF 6
ENDMDL
MODEL 8
REMARK VINA RESULT:      -5.6     13.862     15.570
REMARK  Name = 
REMARK  6 active torsions:
REMARK  status: ('A' for Active; 'I' for Inactive)
REMARK    1  A    between atoms: N_4  and  C_5
REMARK    2  A    between atoms: C_5  and  C_6
REMARK    3  A    between atoms: C_9  and  N_10
REMARK    4  A    between atoms: N_10  and  C_11
REMARK    5  A    between atoms: C_11  and  C_12
REMARK    6  A    between atoms: C_15  and  S_18
REMARK                            x       y       z     vdW  Elec       q    Type
REMARK                         _______ _______ _______ _____ _____    ______ ____
ROOT
ATOM     10  N   UNL     1      -4.570 -10.684  15.263  0.00  0.00    -0.209 NA
ENDROOT
BRANCH  10   9
ATOM      6  C   UNL     1      -3.594 -10.646  13.365  0.00  0.00    +0.169 C 
ATOM      7  O   UNL     1      -2.949 -10.592  13.877  0.00  0.00    -0.350 OA
ATOM      8  C   UNL     1      -3.236 -10.600  14.650  0.00  0.00    +0.162 C 
ATOM      9  C   UNL     1      -4.059 -10.658  14.616  0.00  0.00    +0.135 C 
ATOM     22  C   UNL     1      -4.280 -10.686  13.822  0.00  0.00    +0.199 C 
ATOM     23  O   UNL     1      -5.050 -10.745  13.535  0.00  0.00    -0.219 OA
BRANCH   6   5
ATOM      5  C   UNL     1      -3.559 -10.656  12.541  0.00  0.00    +0.147 C 
BRANCH   5   4
ATOM      1  C   UNL     1      -2.368  -9.792  10.929  0.00  0.00    +0.096 C 
ATOM      2  C   UNL     1      -2.935 -10.243  11.323  0.00  0.00    +0.242 C 
ATOM      3  O   UNL     1      -3.446 -10.729  10.896  0.00  0.00    -0.273 OA
ATOM      4  N   UNL     1      -2.992 -10.206  12.146  0.00  0.00    -0.203 NA
ENDBRANCH   5   4
ENDBRANCH   6   5
ENDBRANCH  10   9
BRANCH  10  11
ATOM     11  C   UNL     1      -4.374 -10.287  15.960  0.00  0.00    +0.115 C 
BRANCH  11  12
ATOM     12  C   UNL     1      -4.858 -10.357  16.624  0.00  0.00    -0.005 A 
ATOM     13  C   UNL     1      -4.567 -10.710  17.311  0.00  0.00    -0.002 A 
ATOM     14  C   UNL     1      -5.051 -10.780  17.975  0.00  0.00    +0.018 A 
ATOM     15  C   UNL     1      -5.826 -10.498  17.953  0.00  0.00    +0.106 A 
ATOM     16  C   UNL     1      -6.116 -10.145  17.266  0.00  0.00    +0.018 A 
ATOM     17  C   UNL     1      -5.632 -10.075  16.602  0.00  0.00    -0.002 A 
BRANCH  15  18
ATOM     18  S   UNL     1      -6.310 -10.568  18.617  0.00  0.00    +0.010 S 
ATOM     19  C   UNL     1      -6.794 -10.638  19.282  0.00  0.00    +0.182 C 
ATOM     20  O   UNL     1      -6.943 -10.780  18.134  0.00  0.00    -0.169 OA
ATOM     21  O   UNL     1      -5.676 -10.356  19.101  0.00  0.00    -0.169 OA
ENDBRANCH  15  18
ENDBRANCH  11  12
ENDBRANCH  10  11
TORSDOF 6
ENDMDL
MODEL 9
REMARK VINA RESULT:      -5.4     14.122     16.139
REMARK  Name = 
REMARK  6 active torsions:
REMARK  status: ('A' for Active; 'I' for Inactive)
REMARK    1  A    between atoms: N_4  and  C_5
REMARK    2  A    between atoms: C_5  and  C_6
REMARK    3  A    between atoms: C_9  and  N_10
REMARK    4  A    between atoms: N_10  and  C_11
REMARK    5  A    between atoms: C_11  and  C_12
REMARK    6  A    between atoms: C_15  and  S_18
REMARK                            x       y       z     vdW  Elec       q    Type
REMARK                         _______ _______ _______ _____ _____    ______ ____
ROOT
ATOM     10  N   UNL     1      -6.085  -9.774  13.663  0.00  0.00    -0.209 NA
ENDROOT
BRANCH  10   9
ATOM      6  C   UNL     1      -5.323  -9.456  11.694  0.00  0.00    +0.169 C 
ATOM      7  O   UNL     1      -4.837 -10.069  11.957  0.00  0.00    -0.350 OA
ATOM      8  C   UNL     1      -5.063 -10.262  12.725  0.00  0.00    +0.162 C 
ATOM      9  C   UNL     1      -5.689  -9.769  12.939  0.00  0.00    +0.135 C 
ATOM     22  C   UNL     1      -5.850  -9.271  12.302  0.00  0.00    +0.199 C 
ATOM     23  O   UNL     1      -6.434  -8.690  12.276  0.00  0.00    -0.219 OA
BRANCH   6   5
ATOM      5  C   UNL     1      -5.288  -9.093  10.955  0.00  0.00    +0.147 C 
BRANCH   5   4
ATOM      1  C   UNL     1      -3.951  -8.980   9.233  0.00  0.00    +0.096 C 
ATOM      2  C   UNL     1      -4.600  -8.849   9.726  0.00  0.00    +0.242 C 
ATOM      3  O   UNL     1      -5.207  -8.345   9.486  0.00  0.00    -0.273 OA
ATOM      4  N   UNL     1      -4.640  -9.223  10.461  0.00  0.00    -0.203 NA
ENDBRANCH   5   4
ENDBRANCH   6   5
ENDBRANCH  10   9
BRANCH  10  11
ATOM     11  C   UNL     1      -5.777 -10.199  14.300  0.00  0.00    +0.115 C 
BRANCH  11  12
ATOM     12  C   UNL     1      -6.113 -10.121  15.048  0.00  0.00    -0.005 A 
ATOM     13  C   UNL     1      -6.856 -10.446  15.202  0.00  0.00    -0.002 A 
ATOM     14  C   UNL     1      -7.192 -10.369  15.951  0.00  0.00    +0.018 A 
ATOM     15  C   UNL     1      -6.786  -9.966  16.547  0.00  0.00    +0.106 A 
ATOM     16  C   UNL     1      -6.044  -9.642  16.392  0.00  0.00    +0.018 A 
ATOM     17  C   UNL     1      -5.707  -9.720  15.643  0.00  0.00    -0.002 A 
BRANCH  15  18
ATOM     18  S   UNL     1      -7.123  -9.889  17.296  0.00  0.00    +0.010 S 
ATOM     19  C   UNL     1      -7.460  -9.811  18.045  0.00  0.00    +0.182 C 
ATOM     20  O   UNL     1      -6.754 -10.586  17.535  0.00  0.00    -0.169 OA
ATOM     21  O   UNL     1      -7.492  -9.191  17.057  0.00  0.00    -0.169 OA
ENDBRANCH  15  18
ENDBRANCH  11  12
ENDBRANCH  10  11
TORSDOF 6
ENDMDL
MODEL 10
REMARK VINA RESULT:      -5.2     14.480     17.104
REMARK  Name = 
REMARK  6 active torsions:
REMARK  status: ('A' for Active; 'I' for Inactive)
REMARK    1  A    between atoms: N_4  and  C_5
REMARK    2  A    between atoms: C_5  and  C_6
REMARK    3  A    between atoms: C_9  and  N_10
REMARK    4  A    between atoms: N_10  and  C_11
REMARK    5  A    between atoms: C_11  and  C_12
REMARK    6  A    between atoms: C_15  and  S_18
REMARK                            x       y       z     vdW  Elec       q    Type
REMARK                         _______ _______ _______ _____ _____    ______ ____
ROOT
ATOM     10  N   UNL     1      -4.773 -10.253  12.762  0.00  0.00    -0.209 NA
ENDROOT
BRANCH  10   9
ATOM      6  C   UNL     1      -4.715 -10.455  14.887  0.00  0.00    +0.169 C 
ATOM      7  O   UNL     1      -3.970 -10.742  14.679  0.00  0.00    -0.350 OA
ATOM      8  C   UNL     1      -3.901 -10.701  13.859  0.00  0.00    +0.162 C 
ATOM      9  C   UNL     1      -4.604 -10.389  13.559  0.00  0.00    +0.135 C 
ATOM     22  C   UNL     1      -5.107 -10.237  14.194  0.00  0.00    +0.199 C 
ATOM     23  O   UNL     1      -5.867  -9.922  14.146  0.00  0.00    -0.219 OA
BRANCH   6   5
ATOM      5  C   UNL     1      -5.016 -10.397  15.653  0.00  0.00    +0.147 C 
BRANCH   5   4
ATOM      1  C   UNL     1      -4.381 -10.777  17.706  0.00  0.00    +0.096 C 
ATOM      2  C   UNL     1      -4.836 -10.528  17.065  0.00  0.00    +0.242 C 
ATOM      3  O   UNL     1      -5.565 -10.164  17.192  0.00  0.00    -0.273 OA
ATOM      4  N   UNL     1      -4.561 -10.645  16.294  0.00  0.00    -0.203 NA
ENDBRANCH   5   4
ENDBRANCH   6   5
ENDBRANCH  10   9
BRANCH  10  11
ATOM     11  C   UNL     1      -4.197 -10.394  12.188  0.00  0.00    +0.115 C 
BRANCH  11  12
ATOM     12  C   UNL     1      -4.352 -10.218  11.398  0.00  0.00    -0.005 A 
ATOM     13  C   UNL     1      -4.110  -9.495  11.081  0.00  0.00    -0.002 A 
ATOM     14  C   UNL     1      -4.265  -9.319  10.291  0.00  0.00    +0.018 A 
ATOM     15  C   UNL     1      -4.661  -9.865   9.816  0.00  0.00    +0.106 A 
ATOM     16  C   UNL     1      -4.903 -10.588  10.132  0.00  0.00    +0.018 A 
ATOM     17  C   UNL     1      -4.748 -10.764  10.923  0.00  0.00    -0.002 A 
BRANCH  15  18
ATOM     18  S   UNL     1      -4.816  -9.689   9.025  0.00  0.00    +0.010 S 
ATOM     19  C   UNL     1      -4.971  -9.513   8.233  0.00  0.00    +0.182 C 
ATOM     20  O   UNL     1      -5.500  -9.287   9.248  0.00  0.00    -0.169 OA
ATOM     21  O   UNL     1      -4.131 -10.091   8.802  0.00  0.00    -0.169 OA
ENDBRANCH  15  18
ENDBRANCH  11  12
ENDBRANCH  10  11
TORSDOF 6
ENDMDL
