MODEL 1
REMARK VINA RESULT:      -9.4      0.000      0.000
REMARK  Name = 
REMARK  6 active torsions:
REMARK  status: ('A' for Active; 'I' for Inactive)
REMARK    1  A    between atoms: C_5  and  N_8
REMARK    2  A    between atoms: N_8  and  C_9
REMARK    3  A    between atoms: C_12  and  C_13
REMARK    4  A    between atoms: C_13  and  N_14
REMARK    5  A    between atoms: N_14  and  S_15
REMARK    6  A    between atoms: S_15  and  C_18
REMARK                            x       y       z     vdW  Elec       q    Type
REMARK                         _______ _______ _______ _____ _____    ______ ____
ROOT
ATOM      9  C   UNL     1      -3.427   0.106  25.042  0.00  0.00    +0.135 C 
ATOM     10  C   UNL     1      -2.622  -0.073  25.031  0.00  0.00    +0.162 C 
ATOM     11  O   UNL     1      -2.204   0.636  24.978  0.00  0.00    -0.350 OA
ATOM     12  C   UNL     1      -2.750   1.253  24.956  0.00  0.00    +0.166 C 
ATOM     24  C   UNL     1      -3.506   0.926  24.995  0.00  0.00    +0.199 C 
ATOM     25  O   UNL     1      -4.217   1.345  24.989  0.00  0.00    -0.219 OA
ENDROOT
BRANCH   9   8
ATOM      8  N   UNL     1      -4.044  -0.439  25.091  0.00  0.00    -0.216 NA
BRANCH   8   5
ATOM      1  C   UNL     1      -3.588  -3.548  24.081  0.00  0.00    +0.090 C 
ATOM      2  N   UNL     1      -3.702  -2.770  24.333  0.00  0.00    -0.271 NA
ATOM      3  C   UNL     1      -4.045  -2.218  23.826  0.00  0.00    +0.074 C 
ATOM      4  C   UNL     1      -4.159  -1.441  24.078  0.00  0.00    +0.035 C 
ATOM      5  C   UNL     1      -3.930  -1.216  24.839  0.00  0.00    +0.076 C 
ATOM      6  C   UNL     1      -3.587  -1.768  25.346  0.00  0.00    +0.035 C 
ATOM      7  C   UNL     1      -3.473  -2.546  25.093  0.00  0.00    +0.074 C 
ENDBRANCH   8   5
ENDBRANCH   9   8
BRANCH  12  13
ATOM     13  C   UNL     1      -2.572   2.058  24.903  0.00  0.00    +0.148 C 
BRANCH  13  14
ATOM     14  N   UNL     1      -1.810   2.323  25.076  0.00  0.00    -0.075 NA
BRANCH  14  15
ATOM     15  S   UNL     1      -1.639   3.130  25.049  0.00  0.00    +0.077 S 
ATOM     16  O   UNL     1      -1.604   3.150  25.873  0.00  0.00    -0.152 OA
ATOM     17  O   UNL     1      -1.673   3.109  24.224  0.00  0.00    -0.152 OA
BRANCH  15  18
ATOM     18  C   UNL     1      -1.468   3.936  25.022  0.00  0.00    +0.124 A 
ATOM     19  C   UNL     1      -0.732   4.192  24.750  0.00  0.00    +0.020 A 
ATOM     20  C   UNL     1      -0.560   4.999  24.723  0.00  0.00    +0.001 A 
ATOM     21  C   UNL     1      -1.125   5.549  24.969  0.00  0.00    +0.000 A 
ATOM     22  C   UNL     1      -1.859   5.293  25.240  0.00  0.00    +0.001 A 
ATOM     23  C   UNL     1      -2.031   4.486  25.267  0.00  0.00    +0.020 A 
ENDBRANCH  15  18
ENDBRANCH  14  15
ENDBRANCH  13  14
ENDBRANCH  12  13
TORSDOF 6
ENDMDL
MODEL 2
REMARK VINA RESULT:      -9.1      1.361      5.861
REMARK  Name = 
REMARK  6 active torsions:
REMARK  status: ('A' for Active; 'I' for Inactive)
REMARK    1  A    between atoms: C_5  and  N_8
REMARK    2  A    between atoms: N_8  and  C_9
REMARK    3  A    between atoms: C_12  and  C_13
REMARK    4  A    between atoms: C_13  and  N_14
REMARK    5  A    between atoms: N_14  and  S_15
REMARK    6  A    between atoms: S_15  and  C_18
REMARK                            x       y       z     vdW  Elec       q    Type
REMARK                         _______ _______ _______ _____ _____    ______ ____
ROOT
ATOM      9  C   UNL     1      -1.852   2.278  25.379  0.00  0.00    +0.135 C 
ATOM     10  C   UNL     1      -2.565   2.482  25.017  0.00  0.00    +0.162 C 
ATOM     11  O   UNL     1      -2.923   1.788  24.752  0.00  0.00    -0.350 OA
ATOM     12  C   UNL     1      -2.432   1.156  24.950  0.00  0.00    +0.166 C 
ATOM     24  C   UNL     1      -1.770   1.458  25.338  0.00  0.00    +0.199 C 
ATOM     25  O   UNL     1      -1.138   1.019  25.632  0.00  0.00    -0.219 OA
ENDROOT
BRANCH   9   8
ATOM      8  N   UNL     1      -1.316   2.802  25.723  0.00  0.00    -0.216 NA
BRANCH   8   5
ATOM      1  C   UNL     1      -1.219   5.951  24.740  0.00  0.00    +0.090 C 
ATOM      2  N   UNL     1      -1.243   5.163  24.986  0.00  0.00    -0.271 NA
ATOM      3  C   UNL     1      -0.679   4.629  24.712  0.00  0.00    +0.074 C 
ATOM      4  C   UNL     1      -0.703   3.842  24.958  0.00  0.00    +0.035 C 
ATOM      5  C   UNL     1      -1.292   3.589  25.478  0.00  0.00    +0.076 C 
ATOM      6  C   UNL     1      -1.856   4.124  25.752  0.00  0.00    +0.035 C 
ATOM      7  C   UNL     1      -1.832   4.912  25.506  0.00  0.00    +0.074 C 
ENDBRANCH   8   5
ENDBRANCH   9   8
BRANCH  12  13
ATOM     13  C   UNL     1      -2.578   0.359  24.788  0.00  0.00    +0.148 C 
BRANCH  13  14
ATOM     14  N   UNL     1      -3.354   0.081  24.751  0.00  0.00    -0.075 NA
BRANCH  14  15
ATOM     15  S   UNL     1      -3.498  -0.719  24.613  0.00  0.00    +0.077 S 
ATOM     16  O   UNL     1      -3.804  -0.795  25.375  0.00  0.00    -0.152 OA
ATOM     17  O   UNL     1      -3.192  -0.643  23.851  0.00  0.00    -0.152 OA
BRANCH  15  18
ATOM     18  C   UNL     1      -3.643  -1.519  24.476  0.00  0.00    +0.124 A 
ATOM     19  C   UNL     1      -4.192  -1.747  23.903  0.00  0.00    +0.020 A 
ATOM     20  C   UNL     1      -4.337  -2.547  23.765  0.00  0.00    +0.001 A 
ATOM     21  C   UNL     1      -3.933  -3.120  24.201  0.00  0.00    +0.000 A 
ATOM     22  C   UNL     1      -3.385  -2.893  24.773  0.00  0.00    +0.001 A 
ATOM     23  C   UNL     1      -3.240  -2.092  24.911  0.00  0.00    +0.020 A 
ENDBRANCH  15  18
ENDBRANCH  14  15
ENDBRANCH  13  14
ENDBRANCH  12  13
TORSDOF 6
ENDMDL
