MODEL 1
REMARK VINA RESULT:     -10.6      0.000      0.000
REMARK  Name = 
REMARK  7 active torsions:
REMARK  status: ('A' for Active; 'I' for Inactive)
REMARK    1  A    between atoms: N_2  and  C_3
REMARK    2  A    between atoms: C_3  and  C_4
REMARK    3  A    between atoms: C_3  and  C_8
REMARK    4  A    between atoms: C_4  and  C_5
REMARK    5  A    between atoms: N_10  and  C_11
REMARK    6  A    between atoms: C_13  and  C_20
REMARK    7  A    between atoms: N_22  and  C_23
REMARK                            x       y       z     vdW  Elec       q    Type
REMARK                         _______ _______ _______ _____ _____    ______ ____
ROOT
ATOM     11  C   UNL     1      -3.755   2.286  24.722  0.00  0.00    +0.131 C 
ATOM     12  C   UNL     1      -3.300   1.624  24.534  0.00  0.00    +0.064 C 
ATOM     13  C   UNL     1      -3.659   0.887  24.441  0.00  0.00    +0.200 C 
ATOM     14  O   UNL     1      -2.874   0.682  24.296  0.00  0.00    -0.216 OA
ATOM     15  C   UNL     1      -4.475   0.812  24.535  0.00  0.00    +0.075 C 
ATOM     16  C   UNL     1      -4.932   1.474  24.723  0.00  0.00    +0.187 C 
ATOM     17  O   UNL     1      -5.748   1.399  24.818  0.00  0.00    -0.220 OA
ATOM     18  C   UNL     1      -4.571   2.211  24.816  0.00  0.00    +0.202 C 
ATOM     19  O   UNL     1      -5.028   2.871  25.004  0.00  0.00    -0.219 OA
ENDROOT
BRANCH  11  10
ATOM      8  C   UNL     1      -2.828   3.132  25.403  0.00  0.00    +0.257 C 
ATOM      9  O   UNL     1      -2.620   2.505  25.897  0.00  0.00    -0.272 OA
ATOM     10  N   UNL     1      -3.396   3.022  24.815  0.00  0.00    -0.203 NA
BRANCH   8   3
ATOM      3  C   UNL     1      -2.468   3.868  25.496  0.00  0.00    +0.150 C 
BRANCH   3   2
ATOM      1  C   UNL     1      -3.160   4.584  26.522  0.00  0.00    +0.108 C 
ATOM      2  N   UNL     1      -2.469   4.236  26.235  0.00  0.00    -0.209 NA
ENDBRANCH   3   2
BRANCH   3   4
ATOM      4  C   UNL     1      -2.107   4.236  24.853  0.00  0.00    +0.027 C 
BRANCH   4   5
ATOM      5  C   UNL     1      -1.366   4.589  24.940  0.00  0.00    +0.002 C 
ATOM      6  C   UNL     1      -1.303   5.408  25.008  0.00  0.00    +0.000 C 
ATOM      7  C   UNL     1      -0.687   4.120  24.960  0.00  0.00    +0.000 C 
ENDBRANCH   4   5
ENDBRANCH   3   4
ENDBRANCH   8   3
ENDBRANCH  11  10
BRANCH  13  20
ATOM     20  C   UNL     1      -3.747   0.080  24.297  0.00  0.00    +0.269 C 
ATOM     21  O   UNL     1      -4.040  -0.182  23.572  0.00  0.00    -0.271 OA
ATOM     22  N   UNL     1      -3.542  -0.467  24.880  0.00  0.00    -0.196 NA
BRANCH  22  23
ATOM     23  C   UNL     1      -3.630  -1.275  24.738  0.00  0.00    +0.173 C 
ATOM     24  C   UNL     1      -3.914  -1.537  24.010  0.00  0.00    +0.033 C 
ATOM     25  C   UNL     1      -4.002  -2.345  23.868  0.00  0.00    +0.026 C 
ATOM     26  C   UNL     1      -3.805  -2.891  24.454  0.00  0.00    +0.115 C 
ATOM     27  N   UNL     1      -3.520  -2.628  25.183  0.00  0.00    -0.204 NA
ATOM     28  C   UNL     1      -3.432  -1.820  25.325  0.00  0.00    +0.261 C 
ATOM     29  O   UNL     1      -3.148  -1.558  26.053  0.00  0.00    -0.271 OA
ENDBRANCH  22  23
ENDBRANCH  13  20
TORSDOF 7
ENDMDL
MODEL 2
REMARK VINA RESULT:     -10.1      1.025      5.179
REMARK  Name = 
REMARK  7 active torsions:
REMARK  status: ('A' for Active; 'I' for Inactive)
REMARK    1  A    between atoms: N_2  and  C_3
REMARK    2  A    between atoms: C_3  and  C_4
REMARK    3  A    between atoms: C_3  and  C_8
REMARK    4  A    between atoms: C_4  and  C_5
REMARK    5  A    between atoms: N_10  and  C_11
REMARK    6  A    between atoms: C_13  and  C_20
REMARK    7  A    between atoms: N_22  and  C_23
REMARK                            x       y       z     vdW  Elec       q    Type
REMARK                         _______ _______ _______ _____ _____    ______ ____
ROOT
ATOM     11  C   UNL     1      -3.510   0.854  24.844  0.00  0.00    +0.131 C 
ATOM     12  C   UNL     1      -2.769   1.200  24.958  0.00  0.00    +0.064 C 
ATOM     13  C   UNL     1      -2.641   1.985  24.741  0.00  0.00    +0.200 C 
ATOM     14  O   UNL     1      -1.894   1.794  25.032  0.00  0.00    -0.216 OA
ATOM     15  C   UNL     1      -3.255   2.426  24.410  0.00  0.00    +0.075 C 
ATOM     16  C   UNL     1      -3.996   2.082  24.295  0.00  0.00    +0.187 C 
ATOM     17  O   UNL     1      -4.610   2.523  23.964  0.00  0.00    -0.220 OA
ATOM     18  C   UNL     1      -4.124   1.295  24.513  0.00  0.00    +0.202 C 
ATOM     19  O   UNL     1      -4.864   0.951  24.398  0.00  0.00    -0.219 OA
ENDROOT
BRANCH  11  10
ATOM      8  C   UNL     1      -3.153  -0.526  24.759  0.00  0.00    +0.257 C 
ATOM      9  O   UNL     1      -2.541  -0.336  24.240  0.00  0.00    -0.272 OA
ATOM     10  N   UNL     1      -3.638   0.069  25.061  0.00  0.00    -0.203 NA
BRANCH   8   3
ATOM      3  C   UNL     1      -3.281  -1.312  24.976  0.00  0.00    +0.150 C 
BRANCH   3   2
ATOM      1  C   UNL     1      -3.068  -1.605  26.359  0.00  0.00    +0.108 C 
ATOM      2  N   UNL     1      -3.582  -1.489  25.723  0.00  0.00    -0.209 NA
ENDBRANCH   3   2
BRANCH   3   4
ATOM      4  C   UNL     1      -3.107  -1.920  24.447  0.00  0.00    +0.027 C 
BRANCH   4   5
ATOM      5  C   UNL     1      -3.662  -2.512  24.301  0.00  0.00    +0.002 C 
ATOM      6  C   UNL     1      -4.304  -2.364  23.805  0.00  0.00    +0.000 C 
ATOM      7  C   UNL     1      -3.575  -3.254  24.652  0.00  0.00    +0.000 C 
ENDBRANCH   4   5
ENDBRANCH   3   4
ENDBRANCH   8   3
ENDBRANCH  11  10
BRANCH  13  20
ATOM     20  C   UNL     1      -2.255   2.705  24.625  0.00  0.00    +0.269 C 
ATOM     21  O   UNL     1      -2.050   2.945  23.863  0.00  0.00    -0.271 OA
ATOM     22  N   UNL     1      -2.074   3.184  25.271  0.00  0.00    -0.196 NA
BRANCH  22  23
ATOM     23  C   UNL     1      -1.687   3.904  25.156  0.00  0.00    +0.173 C 
ATOM     24  C   UNL     1      -1.014   3.939  24.681  0.00  0.00    +0.033 C 
ATOM     25  C   UNL     1      -0.628   4.659  24.566  0.00  0.00    +0.026 C 
ATOM     26  C   UNL     1      -0.914   5.343  24.925  0.00  0.00    +0.115 C 
ATOM     27  N   UNL     1      -1.588   5.307  25.401  0.00  0.00    -0.204 NA
ATOM     28  C   UNL     1      -1.975   4.588  25.516  0.00  0.00    +0.261 C 
ATOM     29  O   UNL     1      -2.648   4.553  25.990  0.00  0.00    -0.271 OA
ENDBRANCH  22  23
ENDBRANCH  13  20
TORSDOF 7
ENDMDL
MODEL 3
REMARK VINA RESULT:     -10.0      1.544      2.303
REMARK  Name = 
REMARK  7 active torsions:
REMARK  status: ('A' for Active; 'I' for Inactive)
REMARK    1  A    between atoms: N_2  and  C_3
REMARK    2  A    between atoms: C_3  and  C_4
REMARK    3  A    between atoms: C_3  and  C_8
REMARK    4  A    between atoms: C_4  and  C_5
REMARK    5  A    between atoms: N_10  and  C_11
REMARK    6  A    between atoms: C_13  and  C_20
REMARK    7  A    between atoms: N_22  and  C_23
REMARK                            x       y       z     vdW  Elec       q    Type
REMARK                         _______ _______ _______ _____ _____    ______ ____
ROOT
ATOM     11  C   UNL     1      -1.423   1.500  25.083  0.00  0.00    +0.131 C 
ATOM     12  C   UNL     1      -2.061   1.022  25.296  0.00  0.00    +0.064 C 
ATOM     13  C   UNL     1      -2.081   0.231  25.062  0.00  0.00    +0.200 C 
ATOM     14  O   UNL     1      -2.792   0.275  25.477  0.00  0.00    -0.216 OA
ATOM     15  C   UNL     1      -1.462  -0.082  24.615  0.00  0.00    +0.075 C 
ATOM     16  C   UNL     1      -0.823   0.396  24.402  0.00  0.00    +0.187 C 
ATOM     17  O   UNL     1      -0.205   0.082  23.955  0.00  0.00    -0.220 OA
ATOM     18  C   UNL     1      -0.804   1.187  24.636  0.00  0.00    +0.202 C 
ATOM     19  O   UNL     1      -0.166   1.664  24.423  0.00  0.00    -0.219 OA
ENDROOT
BRANCH  11  10
ATOM      8  C   UNL     1      -1.951   2.825  25.010  0.00  0.00    +0.257 C 
ATOM      9  O   UNL     1      -2.519   2.569  24.469  0.00  0.00    -0.272 OA
ATOM     10  N   UNL     1      -1.403   2.291  25.317  0.00  0.00    -0.203 NA
BRANCH   8   3
ATOM      3  C   UNL     1      -1.932   3.616  25.244  0.00  0.00    +0.150 C 
BRANCH   3   2
ATOM      1  C   UNL     1      -2.871   3.908  26.282  0.00  0.00    +0.108 C 
ATOM      2  N   UNL     1      -2.090   3.818  26.028  0.00  0.00    -0.209 NA
ENDBRANCH   3   2
BRANCH   3   4
ATOM      4  C   UNL     1      -1.754   4.205  24.695  0.00  0.00    +0.027 C 
BRANCH   4   5
ATOM      5  C   UNL     1      -1.318   4.867  24.925  0.00  0.00    +0.002 C 
ATOM      6  C   UNL     1      -1.706   5.555  25.162  0.00  0.00    +0.000 C 
ATOM      7  C   UNL     1      -0.494   4.840  24.917  0.00  0.00    +0.000 C 
ENDBRANCH   4   5
ENDBRANCH   3   4
ENDBRANCH   8   3
ENDBRANCH  11  10
BRANCH  13  20
ATOM     20  C   UNL     1      -2.346  -0.545  24.972  0.00  0.00    +0.269 C 
ATOM     21  O   UNL     1      -1.881  -1.174  25.233  0.00  0.00    -0.271 OA
ATOM     22  N   UNL     1      -3.078  -0.691  24.621  0.00  0.00    -0.196 NA
BRANCH  22  23
ATOM     23  C   UNL     1      -3.345  -1.467  24.530  0.00  0.00    +0.173 C 
ATOM     24  C   UNL     1      -3.068  -2.059  25.032  0.00  0.00    +0.033 C 
ATOM     25  C   UNL     1      -3.335  -2.834  24.941  0.00  0.00    +0.026 C 
ATOM     26  C   UNL     1      -3.879  -3.017  24.348  0.00  0.00    +0.115 C 
ATOM     27  N   UNL     1      -4.155  -2.424  23.846  0.00  0.00    -0.204 NA
ATOM     28  C   UNL     1      -3.888  -1.649  23.937  0.00  0.00    +0.261 C 
ATOM     29  O   UNL     1      -4.165  -1.056  23.434  0.00  0.00    -0.271 OA
ENDBRANCH  22  23
ENDBRANCH  13  20
TORSDOF 7
ENDMDL
MODEL 4
REMARK VINA RESULT:      -9.4      1.814      5.598
REMARK  Name = 
REMARK  7 active torsions:
REMARK  status: ('A' for Active; 'I' for Inactive)
REMARK    1  A    between atoms: N_2  and  C_3
REMARK    2  A    between atoms: C_3  and  C_4
REMARK    3  A    between atoms: C_3  and  C_8
REMARK    4  A    between atoms: C_4  and  C_5
REMARK    5  A    between atoms: N_10  and  C_11
REMARK    6  A    between atoms: C_13  and  C_20
REMARK    7  A    between atoms: N_22  and  C_23
REMARK                            x       y       z     vdW  Elec       q    Type
REMARK                         _______ _______ _______ _____ _____    ______ ____
ROOT
ATOM     11  C   UNL     1      -1.366   0.279  24.203  0.00  0.00    +0.131 C 
ATOM     12  C   UNL     1      -1.851   0.945  24.251  0.00  0.00    +0.064 C 
ATOM     13  C   UNL     1      -1.517   1.698  24.304  0.00  0.00    +0.200 C 
ATOM     14  O   UNL     1      -2.317   1.896  24.320  0.00  0.00    -0.216 OA
ATOM     15  C   UNL     1      -0.696   1.785  24.307  0.00  0.00    +0.075 C 
ATOM     16  C   UNL     1      -0.210   1.119  24.259  0.00  0.00    +0.187 C 
ATOM     17  O   UNL     1       0.610   1.205  24.263  0.00  0.00    -0.220 OA
ATOM     18  C   UNL     1      -0.546   0.366  24.207  0.00  0.00    +0.202 C 
ATOM     19  O   UNL     1      -0.060  -0.299  24.159  0.00  0.00    -0.219 OA
ENDROOT
BRANCH  11  10
ATOM      8  C   UNL     1      -2.096  -0.794  24.800  0.00  0.00    +0.257 C 
ATOM      9  O   UNL     1      -2.155  -0.364  25.501  0.00  0.00    -0.272 OA
ATOM     10  N   UNL     1      -1.701  -0.472  24.151  0.00  0.00    -0.203 NA
BRANCH   8   3
ATOM      3  C   UNL     1      -2.431  -1.546  24.748  0.00  0.00    +0.150 C 
BRANCH   3   2
ATOM      1  C   UNL     1      -1.590  -2.664  25.042  0.00  0.00    +0.108 C 
ATOM      2  N   UNL     1      -1.974  -2.184  24.492  0.00  0.00    -0.209 NA
ENDBRANCH   3   2
BRANCH   3   4
ATOM      4  C   UNL     1      -3.221  -1.661  24.952  0.00  0.00    +0.027 C 
BRANCH   4   5
ATOM      5  C   UNL     1      -3.736  -2.030  24.423  0.00  0.00    +0.002 C 
ATOM      6  C   UNL     1      -3.744  -2.851  24.359  0.00  0.00    +0.000 C 
ATOM      7  C   UNL     1      -4.242  -1.575  23.956  0.00  0.00    +0.000 C 
ENDBRANCH   4   5
ENDBRANCH   3   4
ENDBRANCH   8   3
ENDBRANCH  11  10
BRANCH  13  20
ATOM     20  C   UNL     1      -1.459   2.518  24.361  0.00  0.00    +0.269 C 
ATOM     21  O   UNL     1      -1.192   2.960  23.718  0.00  0.00    -0.271 OA
ATOM     22  N   UNL     1      -1.669   2.897  25.063  0.00  0.00    -0.196 NA
BRANCH  22  23
ATOM     23  C   UNL     1      -1.611   3.719  25.122  0.00  0.00    +0.173 C 
ATOM     24  C   UNL     1      -0.994   4.117  24.747  0.00  0.00    +0.033 C 
ATOM     25  C   UNL     1      -0.937   4.937  24.806  0.00  0.00    +0.026 C 
ATOM     26  C   UNL     1      -1.497   5.361  25.240  0.00  0.00    +0.115 C 
ATOM     27  N   UNL     1      -2.114   4.961  25.614  0.00  0.00    -0.204 NA
ATOM     28  C   UNL     1      -2.172   4.141  25.556  0.00  0.00    +0.261 C 
ATOM     29  O   UNL     1      -2.789   3.743  25.930  0.00  0.00    -0.271 OA
ENDBRANCH  22  23
ENDBRANCH  13  20
TORSDOF 7
ENDMDL
