MODEL 1
REMARK VINA RESULT:     -12.3      0.000      0.000
REMARK  Name = 
REMARK  7 active torsions:
REMARK  status: ('A' for Active; 'I' for Inactive)
REMARK    1  A    between atoms: C_2  and  C_4
REMARK    2  A    between atoms: N_7  and  C_10
REMARK    3  A    between atoms: C_12  and  C_16
REMARK    4  A    between atoms: C_19  and  C_21
REMARK    5  A    between atoms: N_25  and  C_26
REMARK    6  A    between atoms: C_26  and  C_27
REMARK    7  A    between atoms: C_30  and  C_33
REMARK                            x       y       z     vdW  Elec       q    Type
REMARK                         _______ _______ _______ _____ _____    ______ ____
ROOT
ATOM     16  C   UNL     1      -0.438   2.666  24.927  0.00  0.00    +0.203 A 
ATOM     17  N   UNL     1       0.236   2.501  25.374  0.00  0.00    -0.056 NA
ATOM     18  O   UNL     1       0.544   1.780  25.114  0.00  0.00    -0.336 OA
ATOM     19  C   UNL     1       0.059   1.500  24.507  0.00  0.00    +0.251 A 
ATOM     20  N   UNL     1      -0.547   2.048  24.392  0.00  0.00    -0.190 NA
ENDROOT
BRANCH  16  12
ATOM     10  C   UNL     1      -2.213   3.912  25.175  0.00  0.00    +0.132 A 
ATOM     11  C   UNL     1      -1.732   3.245  25.099  0.00  0.00    +0.037 A 
ATOM     12  C   UNL     1      -0.918   3.333  25.003  0.00  0.00    +0.043 A 
ATOM     13  C   UNL     1      -0.583   4.086  24.984  0.00  0.00    +0.024 A 
ATOM     14  C   UNL     1      -1.063   4.753  25.060  0.00  0.00    +0.100 A 
ATOM     15  N   UNL     1      -1.879   4.666  25.155  0.00  0.00    -0.229 NA
BRANCH  10   7
ATOM      4  C   UNL     1      -4.657   3.650  25.461  0.00  0.00    +0.083 C 
ATOM      5  C   UNL     1      -4.178   3.796  26.116  0.00  0.00    +0.031 C 
ATOM      6  C   UNL     1      -3.363   3.884  26.022  0.00  0.00    +0.093 C 
ATOM      7  N   UNL     1      -3.028   3.824  25.270  0.00  0.00    -0.293 N 
ATOM      8  C   UNL     1      -3.507   3.678  24.615  0.00  0.00    +0.093 C 
ATOM      9  C   UNL     1      -4.321   3.591  24.710  0.00  0.00    +0.031 C 
BRANCH   4   2
ATOM      1  N   UNL     1      -5.816   2.816  25.498  0.00  0.00    -0.088 NA
ATOM      2  C   UNL     1      -5.472   3.563  25.557  0.00  0.00    +0.260 C 
ATOM      3  O   UNL     1      -5.942   4.222  25.712  0.00  0.00    -0.272 OA
ENDBRANCH   4   2
ENDBRANCH  10   7
ENDBRANCH  16  12
BRANCH  19  21
ATOM     21  C   UNL     1       0.163   0.797  24.089  0.00  0.00    +0.138 C 
ATOM     22  C   UNL     1       0.632   0.697  23.418  0.00  0.00    +0.027 C 
ATOM     23  C   UNL     1       0.575  -0.092  23.182  0.00  0.00    +0.019 C 
ATOM     24  C   UNL     1       0.071  -0.479  23.708  0.00  0.00    +0.073 C 
ATOM     25  N   UNL     1      -0.184   0.070  24.269  0.00  0.00    -0.263 NA
BRANCH  25  26
ATOM     26  C   UNL     1      -0.695  -0.081  24.898  0.00  0.00    +0.099 C 
BRANCH  26  27
ATOM     27  C   UNL     1      -1.265  -0.673  24.833  0.00  0.00    -0.006 A 
ATOM     28  C   UNL     1      -1.062  -1.459  24.977  0.00  0.00    -0.002 A 
ATOM     29  C   UNL     1      -1.632  -2.052  24.912  0.00  0.00    +0.010 A 
ATOM     30  C   UNL     1      -2.407  -1.858  24.704  0.00  0.00    +0.068 A 
ATOM     31  C   UNL     1      -2.610  -1.071  24.561  0.00  0.00    +0.010 A 
ATOM     32  C   UNL     1      -2.040  -0.479  24.625  0.00  0.00    -0.002 A 
BRANCH  30  33
ATOM     33  C   UNL     1      -2.977  -2.451  24.639  0.00  0.00    +0.100 C 
ATOM     34  N   UNL     1      -3.547  -3.043  24.575  0.00  0.00    -0.191 NA
ENDBRANCH  30  33
ENDBRANCH  26  27
ENDBRANCH  25  26
ENDBRANCH  19  21
TORSDOF 7
ENDMDL
MODEL 2
REMARK VINA RESULT:     -11.8      1.239      4.955
REMARK  Name = 
REMARK  7 active torsions:
REMARK  status: ('A' for Active; 'I' for Inactive)
REMARK    1  A    between atoms: C_2  and  C_4
REMARK    2  A    between atoms: N_7  and  C_10
REMARK    3  A    between atoms: C_12  and  C_16
REMARK    4  A    between atoms: C_19  and  C_21
REMARK    5  A    between atoms: N_25  and  C_26
REMARK    6  A    between atoms: C_26  and  C_27
REMARK    7  A    between atoms: C_30  and  C_33
REMARK                            x       y       z     vdW  Elec       q    Type
REMARK                         _______ _______ _______ _____ _____    ______ ____
ROOT
ATOM     16  C   UNL     1      -0.145   1.728  24.774  0.00  0.00    +0.203 A 
ATOM     17  N   UNL     1       0.361   1.978  25.376  0.00  0.00    -0.056 NA
ATOM     18  O   UNL     1       0.175   2.762  25.556  0.00  0.00    -0.336 OA
ATOM     19  C   UNL     1      -0.446   2.996  25.065  0.00  0.00    +0.251 A 
ATOM     20  N   UNL     1      -0.643   2.356  24.582  0.00  0.00    -0.190 NA
ENDROOT
BRANCH  16  12
ATOM     10  C   UNL     1      -0.767  -0.295  24.244  0.00  0.00    +0.132 A 
ATOM     11  C   UNL     1      -0.761   0.452  24.592  0.00  0.00    +0.037 A 
ATOM     12  C   UNL     1      -0.150   0.980  24.425  0.00  0.00    +0.043 A 
ATOM     13  C   UNL     1       0.456   0.761  23.910  0.00  0.00    +0.024 A 
ATOM     14  C   UNL     1       0.450   0.013  23.561  0.00  0.00    +0.100 A 
ATOM     15  N   UNL     1      -0.161  -0.515  23.728  0.00  0.00    -0.229 NA
BRANCH  10   7
ATOM      4  C   UNL     1      -2.600  -1.881  24.744  0.00  0.00    +0.083 C 
ATOM      5  C   UNL     1      -2.774  -1.106  24.521  0.00  0.00    +0.031 C 
ATOM      6  C   UNL     1      -2.163  -0.577  24.354  0.00  0.00    +0.093 C 
ATOM      7  N   UNL     1      -1.378  -0.824  24.411  0.00  0.00    -0.293 N 
ATOM      8  C   UNL     1      -1.205  -1.599  24.634  0.00  0.00    +0.093 C 
ATOM      9  C   UNL     1      -1.816  -2.127  24.801  0.00  0.00    +0.031 C 
BRANCH   4   2
ATOM      1  N   UNL     1      -3.543  -2.860  24.305  0.00  0.00    -0.088 NA
ATOM      2  C   UNL     1      -3.212  -2.409  24.911  0.00  0.00    +0.260 C 
ATOM      3  O   UNL     1      -3.493  -2.485  25.682  0.00  0.00    -0.272 OA
ENDBRANCH   4   2
ENDBRANCH  10   7
ENDBRANCH  16  12
BRANCH  19  21
ATOM     21  C   UNL     1      -0.806   3.737  25.058  0.00  0.00    +0.138 C 
ATOM     22  C   UNL     1      -0.485   4.430  24.744  0.00  0.00    +0.027 C 
ATOM     23  C   UNL     1      -1.030   5.038  24.856  0.00  0.00    +0.019 C 
ATOM     24  C   UNL     1      -1.689   4.722  25.239  0.00  0.00    +0.073 C 
ATOM     25  N   UNL     1      -1.550   3.918  25.365  0.00  0.00    -0.263 NA
BRANCH  25  26
ATOM     26  C   UNL     1      -2.066   3.389  25.731  0.00  0.00    +0.099 C 
BRANCH  26  27
ATOM     27  C   UNL     1      -2.879   3.519  25.705  0.00  0.00    -0.006 A 
ATOM     28  C   UNL     1      -3.328   3.204  25.088  0.00  0.00    -0.002 A 
ATOM     29  C   UNL     1      -4.142   3.334  25.061  0.00  0.00    +0.010 A 
ATOM     30  C   UNL     1      -4.508   3.780  25.652  0.00  0.00    +0.068 A 
ATOM     31  C   UNL     1      -4.059   4.095  26.268  0.00  0.00    +0.010 A 
ATOM     32  C   UNL     1      -3.246   3.965  26.295  0.00  0.00    -0.002 A 
BRANCH  30  33
ATOM     33  C   UNL     1      -5.322   3.910  25.625  0.00  0.00    +0.100 C 
ATOM     34  N   UNL     1      -6.136   4.041  25.598  0.00  0.00    -0.191 NA
ENDBRANCH  30  33
ENDBRANCH  26  27
ENDBRANCH  25  26
ENDBRANCH  19  21
TORSDOF 7
ENDMDL
MODEL 3
REMARK VINA RESULT:     -11.2      1.792      4.732
REMARK  Name = 
REMARK  7 active torsions:
REMARK  status: ('A' for Active; 'I' for Inactive)
REMARK    1  A    between atoms: C_2  and  C_4
REMARK    2  A    between atoms: N_7  and  C_10
REMARK    3  A    between atoms: C_12  and  C_16
REMARK    4  A    between atoms: C_19  and  C_21
REMARK    5  A    between atoms: N_25  and  C_26
REMARK    6  A    between atoms: C_26  and  C_27
REMARK    7  A    between atoms: C_30  and  C_33
REMARK                            x       y       z     vdW  Elec       q    Type
REMARK                         _______ _______ _______ _____ _____    ______ ____
ROOT
ATOM     16  C   UNL     1      -4.068   3.026  25.512  0.00  0.00    +0.203 A 
ATOM     17  N   UNL     1      -4.194   3.560  26.128  0.00  0.00    -0.056 NA
ATOM     18  O   UNL     1      -3.553   4.078  26.151  0.00  0.00    -0.336 OA
ATOM     19  C   UNL     1      -3.030   3.864  25.550  0.00  0.00    +0.251 A 
ATOM     20  N   UNL     1      -3.349   3.213  25.155  0.00  0.00    -0.190 NA
ENDROOT
BRANCH  16  12
ATOM     10  C   UNL     1      -4.775   1.042  24.938  0.00  0.00    +0.132 A 
ATOM     11  C   UNL     1      -4.270   1.657  25.158  0.00  0.00    +0.037 A 
ATOM     12  C   UNL     1      -4.573   2.411  25.292  0.00  0.00    +0.043 A 
ATOM     13  C   UNL     1      -5.382   2.553  25.207  0.00  0.00    +0.024 A 
ATOM     14  C   UNL     1      -5.887   1.938  24.988  0.00  0.00    +0.100 A 
ATOM     15  N   UNL     1      -5.583   1.182  24.853  0.00  0.00    -0.229 NA
BRANCH  10   7
ATOM      4  C   UNL     1      -3.865  -1.224  24.534  0.00  0.00    +0.083 C 
ATOM      5  C   UNL     1      -3.931  -0.937  25.305  0.00  0.00    +0.031 C 
ATOM      6  C   UNL     1      -4.234  -0.181  25.440  0.00  0.00    +0.093 C 
ATOM      7  N   UNL     1      -4.471   0.286  24.803  0.00  0.00    -0.293 N 
ATOM      8  C   UNL     1      -4.405  -0.001  24.033  0.00  0.00    +0.093 C 
ATOM      9  C   UNL     1      -4.102  -0.755  23.899  0.00  0.00    +0.031 C 
BRANCH   4   2
ATOM      1  N   UNL     1      -2.774  -2.146  24.585  0.00  0.00    -0.088 NA
ATOM      2  C   UNL     1      -3.561  -1.979  24.401  0.00  0.00    +0.260 C 
ATOM      3  O   UNL     1      -4.043  -2.568  24.083  0.00  0.00    -0.272 OA
ENDBRANCH   4   2
ENDBRANCH  10   7
ENDBRANCH  16  12
BRANCH  19  21
ATOM     21  C   UNL     1      -2.315   4.235  25.374  0.00  0.00    +0.138 C 
ATOM     22  C   UNL     1      -2.218   5.028  25.167  0.00  0.00    +0.027 C 
ATOM     23  C   UNL     1      -1.414   5.162  25.039  0.00  0.00    +0.019 C 
ATOM     24  C   UNL     1      -1.014   4.451  25.167  0.00  0.00    +0.073 C 
ATOM     25  N   UNL     1      -1.571   3.879  25.374  0.00  0.00    -0.263 NA
BRANCH  25  26
ATOM     26  C   UNL     1      -1.411   3.089  25.550  0.00  0.00    +0.099 C 
BRANCH  26  27
ATOM     27  C   UNL     1      -0.792   2.698  25.170  0.00  0.00    -0.006 A 
ATOM     28  C   UNL     1      -0.090   2.546  25.575  0.00  0.00    -0.002 A 
ATOM     29  C   UNL     1       0.530   2.155  25.195  0.00  0.00    +0.010 A 
ATOM     30  C   UNL     1       0.446   1.917  24.409  0.00  0.00    +0.068 A 
ATOM     31  C   UNL     1      -0.256   2.069  24.005  0.00  0.00    +0.010 A 
ATOM     32  C   UNL     1      -0.875   2.459  24.384  0.00  0.00    -0.002 A 
BRANCH  30  33
ATOM     33  C   UNL     1       1.066   1.526  24.029  0.00  0.00    +0.100 C 
ATOM     34  N   UNL     1       1.685   1.135  23.650  0.00  0.00    -0.191 NA
ENDBRANCH  30  33
ENDBRANCH  26  27
ENDBRANCH  25  26
ENDBRANCH  19  21
TORSDOF 7
ENDMDL
MODEL 4
REMARK VINA RESULT:     -10.9      1.770      3.665
REMARK  Name = 
REMARK  7 active torsions:
REMARK  status: ('A' for Active; 'I' for Inactive)
REMARK    1  A    between atoms: C_2  and  C_4
REMARK    2  A    between atoms: N_7  and  C_10
REMARK    3  A    between atoms: C_12  and  C_16
REMARK    4  A    between atoms: C_19  and  C_21
REMARK    5  A    between atoms: N_25  and  C_26
REMARK    6  A    between atoms: C_26  and  C_27
REMARK    7  A    between atoms: C_30  and  C_33
REMARK                            x       y       z     vdW  Elec       q    Type
REMARK                         _______ _______ _______ _____ _____    ______ ____
ROOT
ATOM     16  C   UNL     1      -4.381   0.661  25.223  0.00  0.00    +0.203 A 
ATOM     17  N   UNL     1      -4.643   0.192  25.849  0.00  0.00    -0.056 NA
ATOM     18  O   UNL     1      -4.372  -0.577  25.721  0.00  0.00    -0.336 OA
ATOM     19  C   UNL     1      -3.943  -0.583  25.017  0.00  0.00    +0.251 A 
ATOM     20  N   UNL     1      -3.948   0.183  24.709  0.00  0.00    -0.190 NA
ENDROOT
BRANCH  16  12
ATOM     10  C   UNL     1      -4.047   2.812  25.060  0.00  0.00    +0.132 A 
ATOM     11  C   UNL     1      -3.901   2.005  25.154  0.00  0.00    +0.037 A 
ATOM     12  C   UNL     1      -4.526   1.468  25.128  0.00  0.00    +0.043 A 
ATOM     13  C   UNL     1      -5.297   1.736  25.007  0.00  0.00    +0.024 A 
ATOM     14  C   UNL     1      -5.442   2.543  24.912  0.00  0.00    +0.100 A 
ATOM     15  N   UNL     1      -4.817   3.081  24.939  0.00  0.00    -0.229 NA
BRANCH  10   7
ATOM      4  C   UNL     1      -2.172   4.425  25.139  0.00  0.00    +0.083 C 
ATOM      5  C   UNL     1      -2.343   4.026  24.438  0.00  0.00    +0.031 C 
ATOM      6  C   UNL     1      -2.968   3.488  24.411  0.00  0.00    +0.093 C 
ATOM      7  N   UNL     1      -3.421   3.350  25.086  0.00  0.00    -0.293 N 
ATOM      8  C   UNL     1      -3.249   3.749  25.788  0.00  0.00    +0.093 C 
ATOM      9  C   UNL     1      -2.625   4.286  25.814  0.00  0.00    +0.031 C 
BRANCH   4   2
ATOM      1  N   UNL     1      -0.770   4.697  25.072  0.00  0.00    -0.088 NA
ATOM      2  C   UNL     1      -1.546   4.963  25.164  0.00  0.00    +0.260 C 
ATOM      3  O   UNL     1      -1.696   5.765  25.282  0.00  0.00    -0.272 OA
ENDBRANCH   4   2
ENDBRANCH  10   7
ENDBRANCH  16  12
BRANCH  19  21
ATOM     21  C   UNL     1      -3.573  -1.238  24.679  0.00  0.00    +0.138 C 
ATOM     22  C   UNL     1      -3.947  -1.847  24.266  0.00  0.00    +0.027 C 
ATOM     23  C   UNL     1      -3.370  -2.385  24.027  0.00  0.00    +0.019 C 
ATOM     24  C   UNL     1      -2.638  -2.109  24.292  0.00  0.00    +0.073 C 
ATOM     25  N   UNL     1      -2.764  -1.400  24.695  0.00  0.00    -0.263 NA
BRANCH  25  26
ATOM     26  C   UNL     1      -2.183  -0.936  25.051  0.00  0.00    +0.099 C 
BRANCH  26  27
ATOM     27  C   UNL     1      -1.471  -0.795  24.661  0.00  0.00    -0.006 A 
ATOM     28  C   UNL     1      -0.871  -1.361  24.680  0.00  0.00    -0.002 A 
ATOM     29  C   UNL     1      -0.157  -1.220  24.289  0.00  0.00    +0.010 A 
ATOM     30  C   UNL     1      -0.045  -0.512  23.879  0.00  0.00    +0.068 A 
ATOM     31  C   UNL     1      -0.645   0.053  23.861  0.00  0.00    +0.010 A 
ATOM     32  C   UNL     1      -1.357  -0.088  24.251  0.00  0.00    -0.002 A 
BRANCH  30  33
ATOM     33  C   UNL     1       0.668  -0.371  23.489  0.00  0.00    +0.100 C 
ATOM     34  N   UNL     1       1.381  -0.231  23.098  0.00  0.00    -0.191 NA
ENDBRANCH  30  33
ENDBRANCH  26  27
ENDBRANCH  25  26
ENDBRANCH  19  21
TORSDOF 7
ENDMDL
MODEL 5
REMARK VINA RESULT:     -10.9      1.416      4.323
REMARK  Name = 
REMARK  7 active torsions:
REMARK  status: ('A' for Active; 'I' for Inactive)
REMARK    1  A    between atoms: C_2  and  C_4
REMARK    2  A    between atoms: N_7  and  C_10
REMARK    3  A    between atoms: C_12  and  C_16
REMARK    4  A    between atoms: C_19  and  C_21
REMARK    5  A    between atoms: N_25  and  C_26
REMARK    6  A    between atoms: C_26  and  C_27
REMARK    7  A    between atoms: C_30  and  C_33
REMARK                            x       y       z     vdW  Elec       q    Type
REMARK                         _______ _______ _______ _____ _____    ______ ____
ROOT
ATOM     16  C   UNL     1      -3.345   3.538  25.539  0.00  0.00    +0.203 A 
ATOM     17  N   UNL     1      -3.885   3.911  26.040  0.00  0.00    -0.056 NA
ATOM     18  O   UNL     1      -4.593   3.487  26.014  0.00  0.00    -0.336 OA
ATOM     19  C   UNL     1      -4.490   2.853  25.496  0.00  0.00    +0.251 A 
ATOM     20  N   UNL     1      -3.719   2.885  25.203  0.00  0.00    -0.190 NA
ENDROOT
BRANCH  16  12
ATOM     10  C   UNL     1      -1.235   3.473  24.989  0.00  0.00    +0.132 A 
ATOM     11  C   UNL     1      -2.012   3.233  25.129  0.00  0.00    +0.037 A 
ATOM     12  C   UNL     1      -2.568   3.778  25.399  0.00  0.00    +0.043 A 
ATOM     13  C   UNL     1      -2.349   4.563  25.530  0.00  0.00    +0.024 A 
ATOM     14  C   UNL     1      -1.572   4.802  25.390  0.00  0.00    +0.100 A 
ATOM     15  N   UNL     1      -1.015   4.257  25.119  0.00  0.00    -0.229 NA
BRANCH  10   7
ATOM      4  C   UNL     1       0.437   1.839  24.177  0.00  0.00    +0.083 C 
ATOM      5  C   UNL     1      -0.007   2.277  23.638  0.00  0.00    +0.031 C 
ATOM      6  C   UNL     1      -0.565   2.822  23.908  0.00  0.00    +0.093 C 
ATOM      7  N   UNL     1      -0.677   2.928  24.718  0.00  0.00    -0.293 N 
ATOM      8  C   UNL     1      -0.233   2.490  25.257  0.00  0.00    +0.093 C 
ATOM      9  C   UNL     1       0.324   1.945  24.987  0.00  0.00    +0.031 C 
BRANCH   4   2
ATOM      1  N   UNL     1       0.763   0.523  23.725  0.00  0.00    -0.088 NA
ATOM      2  C   UNL     1       0.994   1.294  23.906  0.00  0.00    +0.260 C 
ATOM      3  O   UNL     1       1.782   1.520  23.814  0.00  0.00    -0.272 OA
ENDBRANCH   4   2
ENDBRANCH  10   7
ENDBRANCH  16  12
BRANCH  19  21
ATOM     21  C   UNL     1      -5.058   2.286  25.305  0.00  0.00    +0.138 C 
ATOM     22  C   UNL     1      -5.875   2.406  25.286  0.00  0.00    +0.027 C 
ATOM     23  C   UNL     1      -6.232   1.695  25.069  0.00  0.00    +0.019 C 
ATOM     24  C   UNL     1      -5.636   1.135  24.953  0.00  0.00    +0.073 C 
ATOM     25  N   UNL     1      -4.911   1.501  25.100  0.00  0.00    -0.263 NA
BRANCH  25  26
ATOM     26  C   UNL     1      -4.169   1.145  25.049  0.00  0.00    +0.099 C 
BRANCH  26  27
ATOM     27  C   UNL     1      -4.108   0.341  24.875  0.00  0.00    -0.006 A 
ATOM     28  C   UNL     1      -4.050  -0.211  25.485  0.00  0.00    -0.002 A 
ATOM     29  C   UNL     1      -3.989  -1.015  25.311  0.00  0.00    +0.010 A 
ATOM     30  C   UNL     1      -3.987  -1.267  24.525  0.00  0.00    +0.068 A 
ATOM     31  C   UNL     1      -4.045  -0.715  23.915  0.00  0.00    +0.010 A 
ATOM     32  C   UNL     1      -4.106   0.088  24.089  0.00  0.00    -0.002 A 
BRANCH  30  33
ATOM     33  C   UNL     1      -3.926  -2.072  24.350  0.00  0.00    +0.100 C 
ATOM     34  N   UNL     1      -3.866  -2.875  24.176  0.00  0.00    -0.191 NA
ENDBRANCH  30  33
ENDBRANCH  26  27
ENDBRANCH  25  26
ENDBRANCH  19  21
TORSDOF 7
ENDMDL
MODEL 6
REMARK VINA RESULT:      -9.9      1.764      3.939
REMARK  Name = 
REMARK  7 active torsions:
REMARK  status: ('A' for Active; 'I' for Inactive)
REMARK    1  A    between atoms: C_2  and  C_4
REMARK    2  A    between atoms: N_7  and  C_10
REMARK    3  A    between atoms: C_12  and  C_16
REMARK    4  A    between atoms: C_19  and  C_21
REMARK    5  A    between atoms: N_25  and  C_26
REMARK    6  A    between atoms: C_26  and  C_27
REMARK    7  A    between atoms: C_30  and  C_33
REMARK                            x       y       z     vdW  Elec       q    Type
REMARK                         _______ _______ _______ _____ _____    ______ ____
ROOT
ATOM     16  C   UNL     1      -0.779  -0.472  24.512  0.00  0.00    +0.203 A 
ATOM     17  N   UNL     1      -0.543  -1.166  24.892  0.00  0.00    -0.056 NA
ATOM     18  O   UNL     1      -1.205  -1.651  24.972  0.00  0.00    -0.336 OA
ATOM     19  C   UNL     1      -1.851  -1.257  24.642  0.00  0.00    +0.251 A 
ATOM     20  N   UNL     1      -1.587  -0.529  24.358  0.00  0.00    -0.190 NA
ENDROOT
BRANCH  16  12
ATOM     10  C   UNL     1      -0.041   1.572  24.314  0.00  0.00    +0.132 A 
ATOM     11  C   UNL     1      -0.528   0.934  24.505  0.00  0.00    +0.037 A 
ATOM     12  C   UNL     1      -0.292   0.166  24.321  0.00  0.00    +0.043 A 
ATOM     13  C   UNL     1       0.430   0.034  23.944  0.00  0.00    +0.024 A 
ATOM     14  C   UNL     1       0.917   0.672  23.753  0.00  0.00    +0.100 A 
ATOM     15  N   UNL     1       0.681   1.442  23.938  0.00  0.00    -0.229 NA
BRANCH  10   7
ATOM      4  C   UNL     1      -0.748   3.878  24.867  0.00  0.00    +0.083 C 
ATOM      5  C   UNL     1      -0.379   3.411  25.439  0.00  0.00    +0.031 C 
ATOM      6  C   UNL     1      -0.143   2.643  25.255  0.00  0.00    +0.093 C 
ATOM      7  N   UNL     1      -0.277   2.341  24.498  0.00  0.00    -0.293 N 
ATOM      8  C   UNL     1      -0.646   2.808  23.927  0.00  0.00    +0.093 C 
ATOM      9  C   UNL     1      -0.881   3.577  24.112  0.00  0.00    +0.031 C 
BRANCH   4   2
ATOM      1  N   UNL     1      -1.704   4.777  25.432  0.00  0.00    -0.088 NA
ATOM      2  C   UNL     1      -0.983   4.647  25.053  0.00  0.00    +0.260 C 
ATOM      3  O   UNL     1      -0.498   5.285  24.860  0.00  0.00    -0.272 OA
ENDBRANCH   4   2
ENDBRANCH  10   7
ENDBRANCH  16  12
BRANCH  19  21
ATOM     21  C   UNL     1      -2.624  -1.542  24.603  0.00  0.00    +0.138 C 
ATOM     22  C   UNL     1      -2.863  -2.251  24.255  0.00  0.00    +0.027 C 
ATOM     23  C   UNL     1      -3.681  -2.315  24.342  0.00  0.00    +0.019 C 
ATOM     24  C   UNL     1      -3.948  -1.645  24.744  0.00  0.00    +0.073 C 
ATOM     25  N   UNL     1      -3.295  -1.168  24.906  0.00  0.00    -0.263 NA
BRANCH  25  26
ATOM     26  C   UNL     1      -3.310  -0.444  25.300  0.00  0.00    +0.099 C 
BRANCH  26  27
ATOM     27  C   UNL     1      -3.947   0.069  25.198  0.00  0.00    -0.006 A 
ATOM     28  C   UNL     1      -3.952   0.602  24.569  0.00  0.00    -0.002 A 
ATOM     29  C   UNL     1      -4.591   1.115  24.466  0.00  0.00    +0.010 A 
ATOM     30  C   UNL     1      -5.224   1.094  24.994  0.00  0.00    +0.068 A 
ATOM     31  C   UNL     1      -5.220   0.561  25.624  0.00  0.00    +0.010 A 
ATOM     32  C   UNL     1      -4.582   0.048  25.726  0.00  0.00    -0.002 A 
BRANCH  30  33
ATOM     33  C   UNL     1      -5.863   1.607  24.892  0.00  0.00    +0.100 C 
ATOM     34  N   UNL     1      -6.501   2.119  24.790  0.00  0.00    -0.191 NA
ENDBRANCH  30  33
ENDBRANCH  26  27
ENDBRANCH  25  26
ENDBRANCH  19  21
TORSDOF 7
ENDMDL
