MODEL 1
REMARK VINA RESULT:     -10.0      0.000      0.000
REMARK  Name = 
REMARK  9 active torsions:
REMARK  status: ('A' for Active; 'I' for Inactive)
REMARK    1  A    between atoms: C_4  and  N_23
REMARK    2  A    between atoms: C_6  and  C_7
REMARK    3  A    between atoms: C_9  and  C_12
REMARK    4  A    between atoms: C_15  and  O_16
REMARK    5  A    between atoms: O_16  and  C_17
REMARK    6  A    between atoms: C_24  and  C_26
REMARK    7  A    between atoms: C_26  and  C_27
REMARK    8  A    between atoms: C_27  and  C_30
REMARK    9  A    between atoms: C_30  and  C_31
REMARK                            x       y       z     vdW  Elec       q    Type
REMARK                         _______ _______ _______ _____ _____    ______ ____
ROOT
ATOM      1  C   UNL     1      -6.032   2.200  25.779  0.00  0.00    +0.090 C 
ATOM      2  N   UNL     1      -5.341   2.456  25.408  0.00  0.00    -0.264 NA
ATOM      3  C   UNL     1      -5.059   3.231  25.390  0.00  0.00    +0.094 C 
ATOM      4  C   UNL     1      -4.354   3.235  24.960  0.00  0.00    +0.113 C 
ATOM      5  C   UNL     1      -4.202   2.463  24.713  0.00  0.00    +0.049 C 
ATOM      6  C   UNL     1      -4.812   1.981  24.990  0.00  0.00    +0.139 C 
ENDROOT
BRANCH   6   7
ATOM      7  C   UNL     1      -4.881   1.169  24.869  0.00  0.00    +0.251 A 
ATOM      8  N   UNL     1      -4.269   0.618  24.917  0.00  0.00    -0.190 NA
ATOM      9  C   UNL     1      -4.583  -0.128  24.757  0.00  0.00    +0.203 A 
ATOM     10  N   UNL     1      -5.390  -0.038  24.610  0.00  0.00    -0.056 NA
ATOM     11  O   UNL     1      -5.573   0.763  24.679  0.00  0.00    -0.336 OA
BRANCH   9  12
ATOM     12  C   UNL     1      -4.165  -0.839  24.746  0.00  0.00    +0.039 A 
ATOM     13  C   UNL     1      -3.720  -1.065  25.403  0.00  0.00    +0.006 A 
ATOM     14  C   UNL     1      -3.301  -1.776  25.392  0.00  0.00    +0.037 A 
ATOM     15  C   UNL     1      -3.327  -2.260  24.724  0.00  0.00    +0.147 A 
ATOM     21  C   UNL     1      -3.773  -2.034  24.068  0.00  0.00    +0.037 A 
ATOM     22  C   UNL     1      -4.191  -1.323  24.079  0.00  0.00    +0.006 A 
BRANCH  15  16
ATOM     16  O   UNL     1      -2.909  -2.971  24.714  0.00  0.00    -0.404 OA
BRANCH  16  17
ATOM     17  C   UNL     1      -2.161  -3.004  24.367  0.00  0.00    +0.575 C 
ATOM     18  F   UNL     1      -1.413  -3.037  24.020  0.00  0.00    -0.133 F 
ATOM     19  F   UNL     1      -2.501  -3.253  23.658  0.00  0.00    -0.133 F 
ATOM     20  F   UNL     1      -1.821  -2.756  25.076  0.00  0.00    -0.133 F 
ENDBRANCH  16  17
ENDBRANCH  15  16
ENDBRANCH   9  12
ENDBRANCH   6   7
BRANCH   4  23
ATOM     23  N   UNL     1      -3.885   3.896  24.806  0.00  0.00    -0.206 NA
ATOM     24  C   UNL     1      -3.147   3.972  25.167  0.00  0.00    +0.241 C 
ATOM     25  O   UNL     1      -2.879   3.388  25.683  0.00  0.00    -0.273 OA
BRANCH  24  26
ATOM     26  C   UNL     1      -2.679   4.633  25.011  0.00  0.00    +0.087 C 
BRANCH  26  27
ATOM     27  C   UNL     1      -1.861   4.590  25.112  0.00  0.00    +0.019 C 
ATOM     28  C   UNL     1      -1.791   4.216  24.379  0.00  0.00    +0.001 C 
ATOM     29  C   UNL     1      -1.930   4.964  25.843  0.00  0.00    +0.001 C 
BRANCH  27  30
ATOM     30  C   UNL     1      -1.043   4.547  25.211  0.00  0.00    +0.115 C 
BRANCH  30  31
ATOM     31  C   UNL     1      -0.542   4.942  24.687  0.00  0.00    +0.365 C 
ATOM     32  O   UNL     1      -0.114   4.514  24.125  0.00  0.00    -0.246 OA
ATOM     33  O   UNL     1      -0.470   5.762  24.724  0.00  0.00    -0.246 OA
ENDBRANCH  30  31
ENDBRANCH  27  30
ENDBRANCH  26  27
ENDBRANCH  24  26
ENDBRANCH   4  23
TORSDOF 9
ENDMDL
MODEL 2
REMARK VINA RESULT:      -9.7      4.804      6.159
REMARK  Name = 
REMARK  9 active torsions:
REMARK  status: ('A' for Active; 'I' for Inactive)
REMARK    1  A    between atoms: C_4  and  N_23
REMARK    2  A    between atoms: C_6  and  C_7
REMARK    3  A    between atoms: C_9  and  C_12
REMARK    4  A    between atoms: C_15  and  O_16
REMARK    5  A    between atoms: O_16  and  C_17
REMARK    6  A    between atoms: C_24  and  C_26
REMARK    7  A    between atoms: C_26  and  C_27
REMARK    8  A    between atoms: C_27  and  C_30
REMARK    9  A    between atoms: C_30  and  C_31
REMARK                            x       y       z     vdW  Elec       q    Type
REMARK                         _______ _______ _______ _____ _____    ______ ____
ROOT
ATOM      1  C   UNL     1      -0.364  -1.132  24.245  0.00  0.00    +0.090 C 
ATOM      2  N   UNL     1      -0.555  -0.329  24.259  0.00  0.00    -0.264 NA
ATOM      3  C   UNL     1      -1.182   0.012  24.672  0.00  0.00    +0.094 C 
ATOM      4  C   UNL     1      -1.168   0.825  24.530  0.00  0.00    +0.113 C 
ATOM      5  C   UNL     1      -0.531   0.985  24.030  0.00  0.00    +0.049 C 
ATOM      6  C   UNL     1      -0.153   0.271  23.862  0.00  0.00    +0.139 C 
ENDROOT
BRANCH   6   7
ATOM      7  C   UNL     1       0.511   0.175  23.383  0.00  0.00    +0.251 A 
ATOM      8  N   UNL     1       1.294   0.318  23.603  0.00  0.00    -0.190 NA
ATOM      9  C   UNL     1       1.776   0.151  22.956  0.00  0.00    +0.203 A 
ATOM     10  N   UNL     1       1.292  -0.096  22.335  0.00  0.00    -0.056 NA
ATOM     11  O   UNL     1       0.511  -0.081  22.599  0.00  0.00    -0.336 OA
BRANCH   9  12
ATOM     12  C   UNL     1       2.598   0.218  22.933  0.00  0.00    +0.039 A 
ATOM     13  C   UNL     1       3.070  -0.441  23.086  0.00  0.00    +0.006 A 
ATOM     14  C   UNL     1       3.892  -0.373  23.063  0.00  0.00    +0.037 A 
ATOM     15  C   UNL     1       4.242   0.353  22.887  0.00  0.00    +0.147 A 
ATOM     21  C   UNL     1       3.770   1.012  22.734  0.00  0.00    +0.037 A 
ATOM     22  C   UNL     1       2.947   0.944  22.757  0.00  0.00    +0.006 A 
BRANCH  15  16
ATOM     16  O   UNL     1       5.064   0.420  22.864  0.00  0.00    -0.404 OA
BRANCH  16  17
ATOM     17  C   UNL     1       5.513   0.220  23.526  0.00  0.00    +0.575 C 
ATOM     18  F   UNL     1       5.962   0.020  24.188  0.00  0.00    -0.133 F 
ATOM     19  F   UNL     1       5.361   0.962  23.853  0.00  0.00    -0.133 F 
ATOM     20  F   UNL     1       5.665  -0.522  23.199  0.00  0.00    -0.133 F 
ENDBRANCH  16  17
ENDBRANCH  15  16
ENDBRANCH   9  12
ENDBRANCH   6   7
BRANCH   4  23
ATOM     23  N   UNL     1      -1.696   1.380  24.835  0.00  0.00    -0.206 NA
ATOM     24  C   UNL     1      -2.420   1.511  24.459  0.00  0.00    +0.241 C 
ATOM     25  O   UNL     1      -2.614   1.087  23.780  0.00  0.00    -0.273 OA
BRANCH  24  26
ATOM     26  C   UNL     1      -2.948   2.066  24.765  0.00  0.00    +0.087 C 
BRANCH  26  27
ATOM     27  C   UNL     1      -3.725   2.091  24.488  0.00  0.00    +0.019 C 
ATOM     28  C   UNL     1      -3.514   2.687  23.956  0.00  0.00    +0.001 C 
ATOM     29  C   UNL     1      -3.935   1.496  25.018  0.00  0.00    +0.001 C 
BRANCH  27  30
ATOM     30  C   UNL     1      -4.500   2.117  24.210  0.00  0.00    +0.115 C 
BRANCH  30  31
ATOM     31  C   UNL     1      -5.099   2.427  24.686  0.00  0.00    +0.365 C 
ATOM     32  O   UNL     1      -5.733   1.949  24.914  0.00  0.00    -0.246 OA
ATOM     33  O   UNL     1      -5.065   3.212  24.934  0.00  0.00    -0.246 OA
ENDBRANCH  30  31
ENDBRANCH  27  30
ENDBRANCH  26  27
ENDBRANCH  24  26
ENDBRANCH   4  23
TORSDOF 9
ENDMDL
MODEL 3
REMARK VINA RESULT:      -9.4      2.688      5.898
REMARK  Name = 
REMARK  9 active torsions:
REMARK  status: ('A' for Active; 'I' for Inactive)
REMARK    1  A    between atoms: C_4  and  N_23
REMARK    2  A    between atoms: C_6  and  C_7
REMARK    3  A    between atoms: C_9  and  C_12
REMARK    4  A    between atoms: C_15  and  O_16
REMARK    5  A    between atoms: O_16  and  C_17
REMARK    6  A    between atoms: C_24  and  C_26
REMARK    7  A    between atoms: C_26  and  C_27
REMARK    8  A    between atoms: C_27  and  C_30
REMARK    9  A    between atoms: C_30  and  C_31
REMARK                            x       y       z     vdW  Elec       q    Type
REMARK                         _______ _______ _______ _____ _____    ______ ____
ROOT
ATOM      1  C   UNL     1      -6.130   1.665  25.367  0.00  0.00    +0.090 C 
ATOM      2  N   UNL     1      -5.485   1.246  25.068  0.00  0.00    -0.264 NA
ATOM      3  C   UNL     1      -5.495   0.465  24.803  0.00  0.00    +0.094 C 
ATOM      4  C   UNL     1      -4.733   0.271  24.553  0.00  0.00    +0.113 C 
ATOM      5  C   UNL     1      -4.252   0.932  24.664  0.00  0.00    +0.049 C 
ATOM      6  C   UNL     1      -4.718   1.535  24.983  0.00  0.00    +0.139 C 
ENDROOT
BRANCH   6   7
ATOM      7  C   UNL     1      -4.460   2.293  25.181  0.00  0.00    +0.251 A 
ATOM      8  N   UNL     1      -3.698   2.590  25.072  0.00  0.00    -0.190 NA
ATOM      9  C   UNL     1      -3.686   3.368  25.347  0.00  0.00    +0.203 A 
ATOM     10  N   UNL     1      -4.440   3.551  25.625  0.00  0.00    -0.056 NA
ATOM     11  O   UNL     1      -4.918   2.888  25.523  0.00  0.00    -0.336 OA
BRANCH   9  12
ATOM     12  C   UNL     1      -3.034   3.874  25.343  0.00  0.00    +0.039 A 
ATOM     13  C   UNL     1      -3.064   4.581  24.921  0.00  0.00    +0.006 A 
ATOM     14  C   UNL     1      -2.412   5.087  24.917  0.00  0.00    +0.037 A 
ATOM     15  C   UNL     1      -1.730   4.885  25.336  0.00  0.00    +0.147 A 
ATOM     21  C   UNL     1      -1.701   4.177  25.759  0.00  0.00    +0.037 A 
ATOM     22  C   UNL     1      -2.353   3.671  25.762  0.00  0.00    +0.006 A 
BRANCH  15  16
ATOM     16  O   UNL     1      -1.078   5.391  25.333  0.00  0.00    -0.404 OA
BRANCH  16  17
ATOM     17  C   UNL     1      -0.551   5.379  24.699  0.00  0.00    +0.575 C 
ATOM     18  F   UNL     1      -0.023   5.367  24.065  0.00  0.00    -0.133 F 
ATOM     19  F   UNL     1      -0.166   4.729  25.030  0.00  0.00    -0.133 F 
ATOM     20  F   UNL     1      -0.935   6.029  24.367  0.00  0.00    -0.133 F 
ENDBRANCH  16  17
ENDBRANCH  15  16
ENDBRANCH   9  12
ENDBRANCH   6   7
BRANCH   4  23
ATOM     23  N   UNL     1      -4.494  -0.456  24.245  0.00  0.00    -0.206 NA
ATOM     24  C   UNL     1      -4.072  -0.985  24.718  0.00  0.00    +0.241 C 
ATOM     25  O   UNL     1      -3.889  -0.787  25.496  0.00  0.00    -0.273 OA
BRANCH  24  26
ATOM     26  C   UNL     1      -3.833  -1.712  24.409  0.00  0.00    +0.087 C 
BRANCH  26  27
ATOM     27  C   UNL     1      -3.138  -2.065  24.679  0.00  0.00    +0.019 C 
ATOM     28  C   UNL     1      -2.694  -1.501  24.271  0.00  0.00    +0.001 C 
ATOM     29  C   UNL     1      -3.580  -2.628  25.087  0.00  0.00    +0.001 C 
BRANCH  27  30
ATOM     30  C   UNL     1      -2.442  -2.417  24.948  0.00  0.00    +0.115 C 
BRANCH  30  31
ATOM     31  C   UNL     1      -1.842  -2.606  24.414  0.00  0.00    +0.365 C 
ATOM     32  O   UNL     1      -1.955  -3.212  23.865  0.00  0.00    -0.246 OA
ATOM     33  O   UNL     1      -1.131  -2.190  24.428  0.00  0.00    -0.246 OA
ENDBRANCH  30  31
ENDBRANCH  27  30
ENDBRANCH  26  27
ENDBRANCH  24  26
ENDBRANCH   4  23
TORSDOF 9
ENDMDL
MODEL 4
REMARK VINA RESULT:      -9.0      2.562      3.505
REMARK  Name = 
REMARK  9 active torsions:
REMARK  status: ('A' for Active; 'I' for Inactive)
REMARK    1  A    between atoms: C_4  and  N_23
REMARK    2  A    between atoms: C_6  and  C_7
REMARK    3  A    between atoms: C_9  and  C_12
REMARK    4  A    between atoms: C_15  and  O_16
REMARK    5  A    between atoms: O_16  and  C_17
REMARK    6  A    between atoms: C_24  and  C_26
REMARK    7  A    between atoms: C_26  and  C_27
REMARK    8  A    between atoms: C_27  and  C_30
REMARK    9  A    between atoms: C_30  and  C_31
REMARK                            x       y       z     vdW  Elec       q    Type
REMARK                         _______ _______ _______ _____ _____    ______ ____
ROOT
ATOM      1  C   UNL     1       0.792   0.278  23.393  0.00  0.00    +0.090 C 
ATOM      2  N   UNL     1       0.454   0.767  23.964  0.00  0.00    -0.264 NA
ATOM      3  C   UNL     1       0.614   1.570  24.070  0.00  0.00    +0.094 C 
ATOM      4  C   UNL     1       0.156   1.839  24.701  0.00  0.00    +0.113 C 
ATOM      5  C   UNL     1      -0.287   1.203  24.984  0.00  0.00    +0.049 C 
ATOM      6  C   UNL     1      -0.102   0.540  24.528  0.00  0.00    +0.139 C 
ENDROOT
BRANCH   6   7
ATOM      7  C   UNL     1      -0.419  -0.215  24.620  0.00  0.00    +0.251 A 
ATOM      8  N   UNL     1      -1.213  -0.423  24.531  0.00  0.00    -0.190 NA
ATOM      9  C   UNL     1      -1.282  -1.233  24.674  0.00  0.00    +0.203 A 
ATOM     10  N   UNL     1      -0.531  -1.525  24.851  0.00  0.00    -0.056 NA
ATOM     11  O   UNL     1       0.001  -0.897  24.818  0.00  0.00    -0.336 OA
BRANCH   9  12
ATOM     12  C   UNL     1      -1.979  -1.672  24.645  0.00  0.00    +0.039 A 
ATOM     13  C   UNL     1      -2.678  -1.357  24.950  0.00  0.00    +0.006 A 
ATOM     14  C   UNL     1      -3.376  -1.797  24.920  0.00  0.00    +0.037 A 
ATOM     15  C   UNL     1      -3.374  -2.551  24.586  0.00  0.00    +0.147 A 
ATOM     21  C   UNL     1      -2.676  -2.866  24.281  0.00  0.00    +0.037 A 
ATOM     22  C   UNL     1      -1.978  -2.427  24.310  0.00  0.00    +0.006 A 
BRANCH  15  16
ATOM     16  O   UNL     1      -4.072  -2.991  24.556  0.00  0.00    -0.404 OA
BRANCH  16  17
ATOM     17  C   UNL     1      -4.519  -3.010  23.863  0.00  0.00    +0.575 C 
ATOM     18  F   UNL     1      -4.966  -3.029  23.170  0.00  0.00    -0.133 F 
ATOM     19  F   UNL     1      -4.821  -2.263  24.038  0.00  0.00    -0.133 F 
ATOM     20  F   UNL     1      -4.216  -3.757  23.688  0.00  0.00    -0.133 F 
ENDBRANCH  16  17
ENDBRANCH  15  16
ENDBRANCH   9  12
ENDBRANCH   6   7
BRANCH   4  23
ATOM     23  N   UNL     1       0.143   2.609  24.997  0.00  0.00    -0.206 NA
ATOM     24  C   UNL     1      -0.455   3.130  24.766  0.00  0.00    +0.241 C 
ATOM     25  O   UNL     1      -1.038   2.880  24.240  0.00  0.00    -0.273 OA
BRANCH  24  26
ATOM     26  C   UNL     1      -0.467   3.900  25.063  0.00  0.00    +0.087 C 
BRANCH  26  27
ATOM     27  C   UNL     1      -1.119   4.385  24.920  0.00  0.00    +0.019 C 
ATOM     28  C   UNL     1      -0.706   4.761  24.313  0.00  0.00    +0.001 C 
ATOM     29  C   UNL     1      -1.532   4.010  25.527  0.00  0.00    +0.001 C 
BRANCH  27  30
ATOM     30  C   UNL     1      -1.770   4.870  24.777  0.00  0.00    +0.115 C 
BRANCH  30  31
ATOM     31  C   UNL     1      -1.935   5.500  25.285  0.00  0.00    +0.365 C 
ATOM     32  O   UNL     1      -2.475   5.402  25.901  0.00  0.00    -0.246 OA
ATOM     33  O   UNL     1      -1.560   6.226  25.177  0.00  0.00    -0.246 OA
ENDBRANCH  30  31
ENDBRANCH  27  30
ENDBRANCH  26  27
ENDBRANCH  24  26
ENDBRANCH   4  23
TORSDOF 9
ENDMDL
MODEL 5
REMARK VINA RESULT:      -8.9      3.260      4.835
REMARK  Name = 
REMARK  9 active torsions:
REMARK  status: ('A' for Active; 'I' for Inactive)
REMARK    1  A    between atoms: C_4  and  N_23
REMARK    2  A    between atoms: C_6  and  C_7
REMARK    3  A    between atoms: C_9  and  C_12
REMARK    4  A    between atoms: C_15  and  O_16
REMARK    5  A    between atoms: O_16  and  C_17
REMARK    6  A    between atoms: C_24  and  C_26
REMARK    7  A    between atoms: C_26  and  C_27
REMARK    8  A    between atoms: C_27  and  C_30
REMARK    9  A    between atoms: C_30  and  C_31
REMARK                            x       y       z     vdW  Elec       q    Type
REMARK                         _______ _______ _______ _____ _____    ______ ____
ROOT
ATOM      1  C   UNL     1      -2.900  -2.021  24.273  0.00  0.00    +0.090 C 
ATOM      2  N   UNL     1      -3.061  -1.301  24.641  0.00  0.00    -0.264 NA
ATOM      3  C   UNL     1      -3.807  -1.025  24.860  0.00  0.00    +0.094 C 
ATOM      4  C   UNL     1      -3.712  -0.284  25.210  0.00  0.00    +0.113 C 
ATOM      5  C   UNL     1      -2.907  -0.103  25.207  0.00  0.00    +0.049 C 
ATOM      6  C   UNL     1      -2.505  -0.732  24.856  0.00  0.00    +0.139 C 
ENDROOT
BRANCH   6   7
ATOM      7  C   UNL     1      -1.690  -0.782  24.740  0.00  0.00    +0.251 A 
ATOM      8  N   UNL     1      -1.250  -0.344  24.197  0.00  0.00    -0.190 NA
ATOM      9  C   UNL     1      -0.460  -0.570  24.267  0.00  0.00    +0.203 A 
ATOM     10  N   UNL     1      -0.412  -1.148  24.853  0.00  0.00    -0.056 NA
ATOM     11  O   UNL     1      -1.171  -1.279  25.145  0.00  0.00    -0.336 OA
BRANCH   9  12
ATOM     12  C   UNL     1       0.172  -0.270  23.828  0.00  0.00    +0.039 A 
ATOM     13  C   UNL     1       0.456   0.489  23.981  0.00  0.00    +0.006 A 
ATOM     14  C   UNL     1       1.087   0.788  23.541  0.00  0.00    +0.037 A 
ATOM     15  C   UNL     1       1.434   0.328  22.951  0.00  0.00    +0.147 A 
ATOM     21  C   UNL     1       1.150  -0.431  22.798  0.00  0.00    +0.037 A 
ATOM     22  C   UNL     1       0.518  -0.730  23.237  0.00  0.00    +0.006 A 
BRANCH  15  16
ATOM     16  O   UNL     1       2.065   0.628  22.512  0.00  0.00    -0.404 OA
BRANCH  16  17
ATOM     17  C   UNL     1       2.840   0.510  22.770  0.00  0.00    +0.575 C 
ATOM     18  F   UNL     1       3.614   0.393  23.028  0.00  0.00    -0.133 F 
ATOM     19  F   UNL     1       2.853  -0.225  22.396  0.00  0.00    -0.133 F 
ATOM     20  F   UNL     1       2.827   1.245  23.144  0.00  0.00    -0.133 F 
ENDBRANCH  16  17
ENDBRANCH  15  16
ENDBRANCH   9  12
ENDBRANCH   6   7
BRANCH   4  23
ATOM     23  N   UNL     1      -4.315   0.192  25.509  0.00  0.00    -0.206 NA
ATOM     24  C   UNL     1      -4.587   0.838  25.073  0.00  0.00    +0.241 C 
ATOM     25  O   UNL     1      -4.255   1.008  24.339  0.00  0.00    -0.273 OA
BRANCH  24  26
ATOM     26  C   UNL     1      -5.191   1.313  25.374  0.00  0.00    +0.087 C 
BRANCH  26  27
ATOM     27  C   UNL     1      -5.255   2.099  25.131  0.00  0.00    +0.019 C 
ATOM     28  C   UNL     1      -5.926   1.907  24.691  0.00  0.00    +0.001 C 
ATOM     29  C   UNL     1      -4.585   2.291  25.572  0.00  0.00    +0.001 C 
BRANCH  27  30
ATOM     30  C   UNL     1      -5.320   2.884  24.888  0.00  0.00    +0.115 C 
BRANCH  30  31
ATOM     31  C   UNL     1      -5.448   3.480  25.446  0.00  0.00    +0.365 C 
ATOM     32  O   UNL     1      -4.840   4.005  25.635  0.00  0.00    -0.246 OA
ATOM     33  O   UNL     1      -6.182   3.549  25.814  0.00  0.00    -0.246 OA
ENDBRANCH  30  31
ENDBRANCH  27  30
ENDBRANCH  26  27
ENDBRANCH  24  26
ENDBRANCH   4  23
TORSDOF 9
ENDMDL
MODEL 6
REMARK VINA RESULT:      -8.8      4.510      5.759
REMARK  Name = 
REMARK  9 active torsions:
REMARK  status: ('A' for Active; 'I' for Inactive)
REMARK    1  A    between atoms: C_4  and  N_23
REMARK    2  A    between atoms: C_6  and  C_7
REMARK    3  A    between atoms: C_9  and  C_12
REMARK    4  A    between atoms: C_15  and  O_16
REMARK    5  A    between atoms: O_16  and  C_17
REMARK    6  A    between atoms: C_24  and  C_26
REMARK    7  A    between atoms: C_26  and  C_27
REMARK    8  A    between atoms: C_27  and  C_30
REMARK    9  A    between atoms: C_30  and  C_31
REMARK                            x       y       z     vdW  Elec       q    Type
REMARK                         _______ _______ _______ _____ _____    ______ ____
ROOT
ATOM      1  C   UNL     1      -0.838  -0.916  24.800  0.00  0.00    +0.090 C 
ATOM      2  N   UNL     1      -0.383  -0.451  24.292  0.00  0.00    -0.264 NA
ATOM      3  C   UNL     1       0.265  -0.708  23.851  0.00  0.00    +0.094 C 
ATOM      4  C   UNL     1       0.552  -0.064  23.422  0.00  0.00    +0.113 C 
ATOM      5  C   UNL     1       0.082   0.590  23.599  0.00  0.00    +0.049 C 
ATOM      6  C   UNL     1      -0.497   0.350  24.137  0.00  0.00    +0.139 C 
ENDROOT
BRANCH   6   7
ATOM      7  C   UNL     1      -1.085   0.828  24.462  0.00  0.00    +0.251 A 
ATOM      8  N   UNL     1      -1.874   0.858  24.222  0.00  0.00    -0.190 NA
ATOM      9  C   UNL     1      -2.264   1.409  24.696  0.00  0.00    +0.203 A 
ATOM     10  N   UNL     1      -1.717   1.720  25.228  0.00  0.00    -0.056 NA
ATOM     11  O   UNL     1      -0.989   1.361  25.084  0.00  0.00    -0.336 OA
BRANCH   9  12
ATOM     12  C   UNL     1      -3.062   1.613  24.645  0.00  0.00    +0.039 A 
ATOM     13  C   UNL     1      -3.639   1.024  24.657  0.00  0.00    +0.006 A 
ATOM     14  C   UNL     1      -4.438   1.228  24.606  0.00  0.00    +0.037 A 
ATOM     15  C   UNL     1      -4.658   2.020  24.545  0.00  0.00    +0.147 A 
ATOM     21  C   UNL     1      -4.080   2.610  24.534  0.00  0.00    +0.037 A 
ATOM     22  C   UNL     1      -3.282   2.405  24.584  0.00  0.00    +0.006 A 
BRANCH  15  16
ATOM     16  O   UNL     1      -5.456   2.225  24.495  0.00  0.00    -0.404 OA
BRANCH  16  17
ATOM     17  C   UNL     1      -5.959   2.082  25.133  0.00  0.00    +0.575 C 
ATOM     18  F   UNL     1      -6.462   1.939  25.770  0.00  0.00    -0.133 F 
ATOM     19  F   UNL     1      -5.706   2.782  25.488  0.00  0.00    -0.133 F 
ATOM     20  F   UNL     1      -6.212   1.382  24.777  0.00  0.00    -0.133 F 
ENDBRANCH  16  17
ENDBRANCH  15  16
ENDBRANCH   9  12
ENDBRANCH   6   7
BRANCH   4  23
ATOM     23  N   UNL     1       1.197  -0.073  22.908  0.00  0.00    -0.206 NA
ATOM     24  C   UNL     1       1.891   0.326  23.108  0.00  0.00    +0.241 C 
ATOM     25  O   UNL     1       1.940   0.734  23.822  0.00  0.00    -0.273 OA
BRANCH  24  26
ATOM     26  C   UNL     1       2.535   0.317  22.592  0.00  0.00    +0.087 C 
BRANCH  26  27
ATOM     27  C   UNL     1       3.292   0.478  22.878  0.00  0.00    +0.019 C 
ATOM     28  C   UNL     1       3.402  -0.324  23.037  0.00  0.00    +0.001 C 
ATOM     29  C   UNL     1       3.183   1.280  22.718  0.00  0.00    +0.001 C 
BRANCH  27  30
ATOM     30  C   UNL     1       4.049   0.639  23.163  0.00  0.00    +0.115 C 
BRANCH  30  31
ATOM     31  C   UNL     1       4.712   0.376  22.746  0.00  0.00    +0.365 C 
ATOM     32  O   UNL     1       5.352   0.050  23.153  0.00  0.00    -0.246 OA
ATOM     33  O   UNL     1       4.734   0.438  21.924  0.00  0.00    -0.246 OA
ENDBRANCH  30  31
ENDBRANCH  27  30
ENDBRANCH  26  27
ENDBRANCH  24  26
ENDBRANCH   4  23
TORSDOF 9
ENDMDL
