MODEL 1
REMARK VINA RESULT:     -11.7      0.000      0.000
REMARK  Name = 
REMARK  6 active torsions:
REMARK  status: ('A' for Active; 'I' for Inactive)
REMARK    1  A    between atoms: C_2  and  C_4
REMARK    2  A    between atoms: C_6  and  C_7
REMARK    3  A    between atoms: C_7  and  C_8
REMARK    4  A    between atoms: C_11  and  C_13
REMARK    5  A    between atoms: C_22  and  C_23
REMARK    6  A    between atoms: C_23  and  N_24
REMARK                            x       y       z     vdW  Elec       q    Type
REMARK                         _______ _______ _______ _____ _____    ______ ____
ROOT
ATOM      4  C   UNL     1      -1.605   1.537  24.591  0.00  0.00    +0.006 C 
ATOM      5  C   UNL     1      -2.191   1.090  24.221  0.00  0.00    +0.005 C 
ATOM      6  C   UNL     1      -2.855   1.465  23.902  0.00  0.00    +0.027 C 
ATOM     19  C   UNL     1      -2.931   2.284  23.955  0.00  0.00    -0.048 C 
ATOM     20  C   UNL     1      -3.594   2.658  23.637  0.00  0.00    +0.026 C 
ATOM     21  C   UNL     1      -2.344   2.730  24.326  0.00  0.00    -0.034 C 
ATOM     22  C   UNL     1      -1.681   2.356  24.644  0.00  0.00    +0.037 C 
ENDROOT
BRANCH   4   2
ATOM      1  C   UNL     1      -0.288   1.005  24.430  0.00  0.00    +0.000 C 
ATOM      2  C   UNL     1      -0.942   1.162  24.909  0.00  0.00    +0.000 C 
ATOM      3  C   UNL     1      -0.933   0.945  25.704  0.00  0.00    +0.000 C 
ENDBRANCH   4   2
BRANCH   6   7
ATOM      7  C   UNL     1      -3.441   1.018  23.531  0.00  0.00    +0.091 C 
BRANCH   7   8
ATOM      8  C   UNL     1      -3.745   0.348  23.902  0.00  0.00    +0.227 A 
ATOM      9  N   UNL     1      -4.391   0.329  24.416  0.00  0.00    -0.111 NA
ATOM     10  N   UNL     1      -4.503  -0.452  24.656  0.00  0.00    -0.107 NA
ATOM     11  C   UNL     1      -3.927  -0.916  24.289  0.00  0.00    +0.251 A 
ATOM     12  O   UNL     1      -3.459  -0.421  23.824  0.00  0.00    -0.419 OA
BRANCH  11  13
ATOM     13  C   UNL     1      -3.835  -1.732  24.374  0.00  0.00    +0.074 A 
ATOM     14  C   UNL     1      -4.178  -2.245  23.826  0.00  0.00    +0.104 A 
ATOM     15  N   UNL     1      -4.087  -3.060  23.910  0.00  0.00    -0.242 NA
ATOM     16  C   UNL     1      -3.652  -3.363  24.542  0.00  0.00    +0.099 A 
ATOM     17  C   UNL     1      -3.309  -2.851  25.090  0.00  0.00    +0.021 A 
ATOM     18  C   UNL     1      -3.401  -2.035  25.006  0.00  0.00    +0.008 A 
ENDBRANCH  11  13
ENDBRANCH   7   8
ENDBRANCH   6   7
BRANCH  22  23
ATOM     23  C   UNL     1      -1.095   2.802  25.015  0.00  0.00    +0.076 C 
BRANCH  23  24
ATOM     24  N   UNL     1      -1.132   3.627  25.001  0.00  0.00    -0.272 NA
ATOM     25  C   UNL     1      -0.679   4.050  24.456  0.00  0.00    +0.072 C 
ATOM     26  C   UNL     1      -0.716   4.874  24.442  0.00  0.00    +0.017 C 
ATOM     27  C   UNL     1      -1.206   5.275  24.972  0.00  0.00    +0.003 C 
ATOM     28  C   UNL     1      -1.243   6.098  24.957  0.00  0.00    +0.000 C 
ATOM     29  C   UNL     1      -1.659   4.851  25.515  0.00  0.00    +0.017 C 
ATOM     30  C   UNL     1      -1.622   4.027  25.530  0.00  0.00    +0.072 C 
ENDBRANCH  23  24
ENDBRANCH  22  23
TORSDOF 6
ENDMDL
MODEL 2
REMARK VINA RESULT:     -11.7      1.239      5.806
REMARK  Name = 
REMARK  6 active torsions:
REMARK  status: ('A' for Active; 'I' for Inactive)
REMARK    1  A    between atoms: C_2  and  C_4
REMARK    2  A    between atoms: C_6  and  C_7
REMARK    3  A    between atoms: C_7  and  C_8
REMARK    4  A    between atoms: C_11  and  C_13
REMARK    5  A    between atoms: C_22  and  C_23
REMARK    6  A    between atoms: C_23  and  N_24
REMARK                            x       y       z     vdW  Elec       q    Type
REMARK                         _______ _______ _______ _____ _____    ______ ____
ROOT
ATOM      4  C   UNL     1      -3.075   0.796  24.772  0.00  0.00    +0.006 C 
ATOM      5  C   UNL     1      -2.365   1.217  24.749  0.00  0.00    +0.005 C 
ATOM      6  C   UNL     1      -1.649   0.822  24.859  0.00  0.00    +0.027 C 
ATOM     19  C   UNL     1      -1.642   0.007  24.992  0.00  0.00    -0.048 C 
ATOM     20  C   UNL     1      -0.927  -0.387  25.101  0.00  0.00    +0.026 C 
ATOM     21  C   UNL     1      -2.353  -0.412  25.014  0.00  0.00    -0.034 C 
ATOM     22  C   UNL     1      -3.069  -0.018  24.905  0.00  0.00    +0.037 C 
ENDROOT
BRANCH   4   2
ATOM      1  C   UNL     1      -4.029   1.408  23.901  0.00  0.00    +0.000 C 
ATOM      2  C   UNL     1      -3.790   1.191  24.662  0.00  0.00    +0.000 C 
ATOM      3  C   UNL     1      -4.267   1.370  25.310  0.00  0.00    +0.000 C 
ENDBRANCH   4   2
BRANCH   6   7
ATOM      7  C   UNL     1      -0.939   1.242  24.836  0.00  0.00    +0.091 C 
BRANCH   7   8
ATOM      8  C   UNL     1      -0.892   1.990  25.177  0.00  0.00    +0.227 A 
ATOM      9  N   UNL     1      -0.640   2.158  25.945  0.00  0.00    -0.111 NA
ATOM     10  N   UNL     1      -0.680   2.975  26.054  0.00  0.00    -0.107 NA
ATOM     11  C   UNL     1      -0.956   3.312  25.354  0.00  0.00    +0.251 A 
ATOM     12  O   UNL     1      -1.087   2.703  24.812  0.00  0.00    -0.419 OA
BRANCH  11  13
ATOM     13  C   UNL     1      -1.081   4.116  25.219  0.00  0.00    +0.074 A 
ATOM     14  C   UNL     1      -0.487   4.573  24.872  0.00  0.00    +0.104 A 
ATOM     15  N   UNL     1      -0.610   5.377  24.736  0.00  0.00    -0.242 NA
ATOM     16  C   UNL     1      -1.328   5.725  24.948  0.00  0.00    +0.099 A 
ATOM     17  C   UNL     1      -1.922   5.270  25.295  0.00  0.00    +0.021 A 
ATOM     18  C   UNL     1      -1.797   4.464  25.430  0.00  0.00    +0.008 A 
ENDBRANCH  11  13
ENDBRANCH   7   8
ENDBRANCH   6   7
BRANCH  22  23
ATOM     23  C   UNL     1      -3.778  -0.437  24.927  0.00  0.00    +0.076 C 
BRANCH  23  24
ATOM     24  N   UNL     1      -3.791  -1.238  24.726  0.00  0.00    -0.272 NA
ATOM     25  C   UNL     1      -4.015  -1.468  23.965  0.00  0.00    +0.072 C 
ATOM     26  C   UNL     1      -4.028  -2.267  23.764  0.00  0.00    +0.017 C 
ATOM     27  C   UNL     1      -3.817  -2.838  24.322  0.00  0.00    +0.003 C 
ATOM     28  C   UNL     1      -3.830  -3.637  24.121  0.00  0.00    +0.000 C 
ATOM     29  C   UNL     1      -3.593  -2.607  25.082  0.00  0.00    +0.017 C 
ATOM     30  C   UNL     1      -3.580  -1.807  25.283  0.00  0.00    +0.072 C 
ENDBRANCH  23  24
ENDBRANCH  22  23
TORSDOF 6
ENDMDL
MODEL 3
REMARK VINA RESULT:     -11.6      1.447      5.484
REMARK  Name = 
REMARK  6 active torsions:
REMARK  status: ('A' for Active; 'I' for Inactive)
REMARK    1  A    between atoms: C_2  and  C_4
REMARK    2  A    between atoms: C_6  and  C_7
REMARK    3  A    between atoms: C_7  and  C_8
REMARK    4  A    between atoms: C_11  and  C_13
REMARK    5  A    between atoms: C_22  and  C_23
REMARK    6  A    between atoms: C_23  and  N_24
REMARK                            x       y       z     vdW  Elec       q    Type
REMARK                         _______ _______ _______ _____ _____    ______ ____
ROOT
ATOM      4  C   UNL     1      -3.253   1.359  23.662  0.00  0.00    +0.006 C 
ATOM      5  C   UNL     1      -3.504   2.060  24.018  0.00  0.00    +0.005 C 
ATOM      6  C   UNL     1      -4.093   2.041  24.596  0.00  0.00    +0.027 C 
ATOM     19  C   UNL     1      -4.430   1.321  24.818  0.00  0.00    -0.048 C 
ATOM     20  C   UNL     1      -5.018   1.303  25.396  0.00  0.00    +0.026 C 
ATOM     21  C   UNL     1      -4.179   0.621  24.462  0.00  0.00    -0.034 C 
ATOM     22  C   UNL     1      -3.591   0.639  23.884  0.00  0.00    +0.037 C 
ENDROOT
BRANCH   4   2
ATOM      1  C   UNL     1      -2.866   1.521  22.296  0.00  0.00    +0.000 C 
ATOM      2  C   UNL     1      -2.665   1.378  23.084  0.00  0.00    +0.000 C 
ATOM      3  C   UNL     1      -1.877   1.256  23.293  0.00  0.00    +0.000 C 
ENDBRANCH   4   2
BRANCH   6   7
ATOM      7  C   UNL     1      -4.343   2.742  24.952  0.00  0.00    +0.091 C 
BRANCH   7   8
ATOM      8  C   UNL     1      -3.792   3.254  25.288  0.00  0.00    +0.227 A 
ATOM      9  N   UNL     1      -3.778   3.502  26.075  0.00  0.00    -0.111 NA
ATOM     10  N   UNL     1      -3.134   4.010  26.170  0.00  0.00    -0.107 NA
ATOM     11  C   UNL     1      -2.751   4.075  25.442  0.00  0.00    +0.251 A 
ATOM     12  O   UNL     1      -3.158   3.608  24.897  0.00  0.00    -0.419 OA
BRANCH  11  13
ATOM     13  C   UNL     1      -2.080   4.528  25.287  0.00  0.00    +0.074 A 
ATOM     14  C   UNL     1      -2.144   5.347  25.205  0.00  0.00    +0.104 A 
ATOM     15  N   UNL     1      -1.473   5.801  25.049  0.00  0.00    -0.242 NA
ATOM     16  C   UNL     1      -0.737   5.435  24.975  0.00  0.00    +0.099 A 
ATOM     17  C   UNL     1      -0.672   4.617  25.056  0.00  0.00    +0.021 A 
ATOM     18  C   UNL     1      -1.344   4.163  25.212  0.00  0.00    +0.008 A 
ENDBRANCH  11  13
ENDBRANCH   7   8
ENDBRANCH   6   7
BRANCH  22  23
ATOM     23  C   UNL     1      -3.340  -0.060  23.528  0.00  0.00    +0.076 C 
BRANCH  23  24
ATOM     24  N   UNL     1      -3.406  -0.777  23.934  0.00  0.00    -0.272 NA
ATOM     25  C   UNL     1      -2.852  -0.974  24.513  0.00  0.00    +0.072 C 
ATOM     26  C   UNL     1      -2.918  -1.690  24.919  0.00  0.00    +0.017 C 
ATOM     27  C   UNL     1      -3.538  -2.208  24.745  0.00  0.00    +0.003 C 
ATOM     28  C   UNL     1      -3.603  -2.922  25.150  0.00  0.00    +0.000 C 
ATOM     29  C   UNL     1      -4.090  -2.009  24.166  0.00  0.00    +0.017 C 
ATOM     30  C   UNL     1      -4.024  -1.293  23.760  0.00  0.00    +0.072 C 
ENDBRANCH  23  24
ENDBRANCH  22  23
TORSDOF 6
ENDMDL
MODEL 4
REMARK VINA RESULT:     -11.3      1.455      5.318
REMARK  Name = 
REMARK  6 active torsions:
REMARK  status: ('A' for Active; 'I' for Inactive)
REMARK    1  A    between atoms: C_2  and  C_4
REMARK    2  A    between atoms: C_6  and  C_7
REMARK    3  A    between atoms: C_7  and  C_8
REMARK    4  A    between atoms: C_11  and  C_13
REMARK    5  A    between atoms: C_22  and  C_23
REMARK    6  A    between atoms: C_23  and  N_24
REMARK                            x       y       z     vdW  Elec       q    Type
REMARK                         _______ _______ _______ _____ _____    ______ ____
ROOT
ATOM      4  C   UNL     1      -4.480   1.343  24.615  0.00  0.00    +0.006 C 
ATOM      5  C   UNL     1      -4.041   2.005  24.393  0.00  0.00    +0.005 C 
ATOM      6  C   UNL     1      -3.405   1.922  23.872  0.00  0.00    +0.027 C 
ATOM     19  C   UNL     1      -3.209   1.178  23.575  0.00  0.00    -0.048 C 
ATOM     20  C   UNL     1      -2.575   1.096  23.055  0.00  0.00    +0.026 C 
ATOM     21  C   UNL     1      -3.649   0.517  23.797  0.00  0.00    -0.034 C 
ATOM     22  C   UNL     1      -4.284   0.599  24.317  0.00  0.00    +0.037 C 
ENDROOT
BRANCH   4   2
ATOM      1  C   UNL     1      -4.984   1.412  25.950  0.00  0.00    +0.000 C 
ATOM      2  C   UNL     1      -5.115   1.425  25.135  0.00  0.00    +0.000 C 
ATOM      3  C   UNL     1      -5.878   1.522  24.841  0.00  0.00    +0.000 C 
ENDBRANCH   4   2
BRANCH   6   7
ATOM      7  C   UNL     1      -2.966   2.585  23.651  0.00  0.00    +0.091 C 
BRANCH   7   8
ATOM      8  C   UNL     1      -2.436   2.925  24.182  0.00  0.00    +0.227 A 
ATOM      9  N   UNL     1      -2.424   3.717  24.415  0.00  0.00    -0.111 NA
ATOM     10  N   UNL     1      -1.805   3.816  24.951  0.00  0.00    -0.107 NA
ATOM     11  C   UNL     1      -1.434   3.085  25.049  0.00  0.00    +0.251 A 
ATOM     12  O   UNL     1      -1.824   2.535  24.573  0.00  0.00    -0.419 OA
BRANCH  11  13
ATOM     13  C   UNL     1      -0.787   2.932  25.537  0.00  0.00    +0.074 A 
ATOM     14  C   UNL     1      -0.028   2.887  25.214  0.00  0.00    +0.104 A 
ATOM     15  N   UNL     1       0.620   2.733  25.701  0.00  0.00    -0.242 NA
ATOM     16  C   UNL     1       0.509   2.624  26.512  0.00  0.00    +0.099 A 
ATOM     17  C   UNL     1      -0.249   2.668  26.835  0.00  0.00    +0.021 A 
ATOM     18  C   UNL     1      -0.897   2.822  26.346  0.00  0.00    +0.008 A 
ENDBRANCH  11  13
ENDBRANCH   7   8
ENDBRANCH   6   7
BRANCH  22  23
ATOM     23  C   UNL     1      -4.723  -0.063  24.539  0.00  0.00    +0.076 C 
BRANCH  23  24
ATOM     24  N   UNL     1      -4.375  -0.812  24.529  0.00  0.00    -0.272 NA
ATOM     25  C   UNL     1      -3.892  -1.051  25.154  0.00  0.00    +0.072 C 
ATOM     26  C   UNL     1      -3.545  -1.799  25.144  0.00  0.00    +0.017 C 
ATOM     27  C   UNL     1      -3.680  -2.308  24.509  0.00  0.00    +0.003 C 
ATOM     28  C   UNL     1      -3.333  -3.056  24.499  0.00  0.00    +0.000 C 
ATOM     29  C   UNL     1      -4.163  -2.068  23.884  0.00  0.00    +0.017 C 
ATOM     30  C   UNL     1      -4.510  -1.320  23.895  0.00  0.00    +0.072 C 
ENDBRANCH  23  24
ENDBRANCH  22  23
TORSDOF 6
ENDMDL
MODEL 5
REMARK VINA RESULT:     -10.9      2.359      4.183
REMARK  Name = 
REMARK  6 active torsions:
REMARK  status: ('A' for Active; 'I' for Inactive)
REMARK    1  A    between atoms: C_2  and  C_4
REMARK    2  A    between atoms: C_6  and  C_7
REMARK    3  A    between atoms: C_7  and  C_8
REMARK    4  A    between atoms: C_11  and  C_13
REMARK    5  A    between atoms: C_22  and  C_23
REMARK    6  A    between atoms: C_23  and  N_24
REMARK                            x       y       z     vdW  Elec       q    Type
REMARK                         _______ _______ _______ _____ _____    ______ ____
ROOT
ATOM      4  C   UNL     1      -1.164   2.247  24.668  0.00  0.00    +0.006 C 
ATOM      5  C   UNL     1      -1.776   2.711  24.366  0.00  0.00    +0.005 C 
ATOM      6  C   UNL     1      -2.273   2.409  23.781  0.00  0.00    +0.027 C 
ATOM     19  C   UNL     1      -2.158   1.642  23.498  0.00  0.00    -0.048 C 
ATOM     20  C   UNL     1      -2.654   1.340  22.913  0.00  0.00    +0.026 C 
ATOM     21  C   UNL     1      -1.546   1.179  23.800  0.00  0.00    -0.034 C 
ATOM     22  C   UNL     1      -1.049   1.481  24.385  0.00  0.00    +0.037 C 
ENDROOT
BRANCH   4   2
ATOM      1  C   UNL     1      -0.919   2.565  26.040  0.00  0.00    +0.000 C 
ATOM      2  C   UNL     1      -0.668   2.550  25.253  0.00  0.00    +0.000 C 
ATOM      3  C   UNL     1       0.078   2.837  25.053  0.00  0.00    +0.000 C 
ENDBRANCH   4   2
BRANCH   6   7
ATOM      7  C   UNL     1      -2.884   2.873  23.479  0.00  0.00    +0.091 C 
BRANCH   7   8
ATOM      8  C   UNL     1      -3.518   3.085  23.961  0.00  0.00    +0.227 A 
ATOM      9  N   UNL     1      -3.747   3.855  24.152  0.00  0.00    -0.111 NA
ATOM     10  N   UNL     1      -4.406   3.810  24.647  0.00  0.00    -0.107 NA
ATOM     11  C   UNL     1      -4.584   3.012  24.762  0.00  0.00    +0.251 A 
ATOM     12  O   UNL     1      -4.035   2.565  24.339  0.00  0.00    -0.419 OA
BRANCH  11  13
ATOM     13  C   UNL     1      -5.201   2.715  25.221  0.00  0.00    +0.074 A 
ATOM     14  C   UNL     1      -5.346   3.026  25.971  0.00  0.00    +0.104 A 
ATOM     15  N   UNL     1      -5.963   2.730  26.431  0.00  0.00    -0.242 NA
ATOM     16  C   UNL     1      -6.437   2.120  26.138  0.00  0.00    +0.099 A 
ATOM     17  C   UNL     1      -6.294   1.808  25.388  0.00  0.00    +0.021 A 
ATOM     18  C   UNL     1      -5.675   2.107  24.929  0.00  0.00    +0.008 A 
ENDBRANCH  11  13
ENDBRANCH   7   8
ENDBRANCH   6   7
BRANCH  22  23
ATOM     23  C   UNL     1      -0.438   1.017  24.687  0.00  0.00    +0.076 C 
BRANCH  23  24
ATOM     24  N   UNL     1      -0.533   0.199  24.749  0.00  0.00    -0.272 NA
ATOM     25  C   UNL     1      -0.204  -0.299  24.179  0.00  0.00    +0.072 C 
ATOM     26  C   UNL     1      -0.299  -1.116  24.242  0.00  0.00    +0.017 C 
ATOM     27  C   UNL     1      -0.722  -1.435  24.875  0.00  0.00    +0.003 C 
ATOM     28  C   UNL     1      -0.816  -2.252  24.937  0.00  0.00    +0.000 C 
ATOM     29  C   UNL     1      -1.050  -0.937  25.444  0.00  0.00    +0.017 C 
ATOM     30  C   UNL     1      -0.955  -0.120  25.382  0.00  0.00    +0.072 C 
ENDBRANCH  23  24
ENDBRANCH  22  23
TORSDOF 6
ENDMDL
MODEL 6
REMARK VINA RESULT:     -10.9      1.057      1.843
REMARK  Name = 
REMARK  6 active torsions:
REMARK  status: ('A' for Active; 'I' for Inactive)
REMARK    1  A    between atoms: C_2  and  C_4
REMARK    2  A    between atoms: C_6  and  C_7
REMARK    3  A    between atoms: C_7  and  C_8
REMARK    4  A    between atoms: C_11  and  C_13
REMARK    5  A    between atoms: C_22  and  C_23
REMARK    6  A    between atoms: C_23  and  N_24
REMARK                            x       y       z     vdW  Elec       q    Type
REMARK                         _______ _______ _______ _____ _____    ______ ____
ROOT
ATOM      4  C   UNL     1      -4.048   2.739  24.976  0.00  0.00    +0.006 C 
ATOM      5  C   UNL     1      -4.237   2.087  24.508  0.00  0.00    +0.005 C 
ATOM      6  C   UNL     1      -3.668   1.761  24.006  0.00  0.00    +0.027 C 
ATOM     19  C   UNL     1      -2.911   2.089  23.972  0.00  0.00    -0.048 C 
ATOM     20  C   UNL     1      -2.344   1.764  23.470  0.00  0.00    +0.026 C 
ATOM     21  C   UNL     1      -2.724   2.742  24.441  0.00  0.00    -0.034 C 
ATOM     22  C   UNL     1      -3.292   3.067  24.942  0.00  0.00    +0.037 C 
ENDROOT
BRANCH   4   2
ATOM      1  C   UNL     1      -5.131   3.646  25.196  0.00  0.00    +0.000 C 
ATOM      2  C   UNL     1      -4.617   3.064  25.477  0.00  0.00    +0.000 C 
ATOM      3  C   UNL     1      -4.672   2.808  26.259  0.00  0.00    +0.000 C 
ENDBRANCH   4   2
BRANCH   6   7
ATOM      7  C   UNL     1      -3.857   1.109  23.538  0.00  0.00    +0.091 C 
BRANCH   7   8
ATOM      8  C   UNL     1      -4.084   0.400  23.891  0.00  0.00    +0.227 A 
ATOM      9  N   UNL     1      -4.825   0.235  24.215  0.00  0.00    -0.111 NA
ATOM     10  N   UNL     1      -4.809  -0.537  24.507  0.00  0.00    -0.107 NA
ATOM     11  C   UNL     1      -4.059  -0.849  24.363  0.00  0.00    +0.251 A 
ATOM     12  O   UNL     1      -3.611  -0.270  23.982  0.00  0.00    -0.419 OA
BRANCH  11  13
ATOM     13  C   UNL     1      -3.802  -1.606  24.563  0.00  0.00    +0.074 A 
ATOM     14  C   UNL     1      -3.907  -2.231  24.035  0.00  0.00    +0.104 A 
ATOM     15  N   UNL     1      -3.650  -2.990  24.235  0.00  0.00    -0.242 NA
ATOM     16  C   UNL     1      -3.288  -3.122  24.965  0.00  0.00    +0.099 A 
ATOM     17  C   UNL     1      -3.183  -2.498  25.494  0.00  0.00    +0.021 A 
ATOM     18  C   UNL     1      -3.440  -1.740  25.292  0.00  0.00    +0.008 A 
ENDBRANCH  11  13
ENDBRANCH   7   8
ENDBRANCH   6   7
BRANCH  22  23
ATOM     23  C   UNL     1      -3.104   3.719  25.410  0.00  0.00    +0.076 C 
BRANCH  23  24
ATOM     24  N   UNL     1      -2.404   4.137  25.274  0.00  0.00    -0.272 NA
ATOM     25  C   UNL     1      -2.417   4.822  24.814  0.00  0.00    +0.072 C 
ATOM     26  C   UNL     1      -1.718   5.239  24.679  0.00  0.00    +0.017 C 
ATOM     27  C   UNL     1      -1.007   4.972  25.003  0.00  0.00    +0.003 C 
ATOM     28  C   UNL     1      -0.310   5.389  24.867  0.00  0.00    +0.000 C 
ATOM     29  C   UNL     1      -0.996   4.287  25.462  0.00  0.00    +0.017 C 
ATOM     30  C   UNL     1      -1.695   3.869  25.598  0.00  0.00    +0.072 C 
ENDBRANCH  23  24
ENDBRANCH  22  23
TORSDOF 6
ENDMDL
MODEL 7
REMARK VINA RESULT:     -10.5      2.071      3.089
REMARK  Name = 
REMARK  6 active torsions:
REMARK  status: ('A' for Active; 'I' for Inactive)
REMARK    1  A    between atoms: C_2  and  C_4
REMARK    2  A    between atoms: C_6  and  C_7
REMARK    3  A    between atoms: C_7  and  C_8
REMARK    4  A    between atoms: C_11  and  C_13
REMARK    5  A    between atoms: C_22  and  C_23
REMARK    6  A    between atoms: C_23  and  N_24
REMARK                            x       y       z     vdW  Elec       q    Type
REMARK                         _______ _______ _______ _____ _____    ______ ____
ROOT
ATOM      4  C   UNL     1      -1.720   3.099  24.779  0.00  0.00    +0.006 C 
ATOM      5  C   UNL     1      -1.294   2.577  24.304  0.00  0.00    +0.005 C 
ATOM      6  C   UNL     1      -1.680   2.151  23.711  0.00  0.00    +0.027 C 
ATOM     19  C   UNL     1      -2.490   2.249  23.593  0.00  0.00    -0.048 C 
ATOM     20  C   UNL     1      -2.875   1.824  23.001  0.00  0.00    +0.026 C 
ATOM     21  C   UNL     1      -2.915   2.773  24.069  0.00  0.00    -0.034 C 
ATOM     22  C   UNL     1      -2.531   3.197  24.662  0.00  0.00    +0.037 C 
ENDROOT
BRANCH   4   2
ATOM      1  C   UNL     1      -1.184   3.170  26.102  0.00  0.00    +0.000 C 
ATOM      2  C   UNL     1      -1.334   3.524  25.372  0.00  0.00    +0.000 C 
ATOM      3  C   UNL     1      -1.098   4.302  25.235  0.00  0.00    +0.000 C 
ENDBRANCH   4   2
BRANCH   6   7
ATOM      7  C   UNL     1      -1.254   1.628  23.236  0.00  0.00    +0.091 C 
BRANCH   7   8
ATOM      8  C   UNL     1      -0.899   0.963  23.569  0.00  0.00    +0.227 A 
ATOM      9  N   UNL     1      -0.088   0.831  23.643  0.00  0.00    -0.111 NA
ATOM     10  N   UNL     1       0.019   0.099  24.008  0.00  0.00    -0.107 NA
ATOM     11  C   UNL     1      -0.726  -0.222  24.159  0.00  0.00    +0.251 A 
ATOM     12  O   UNL     1      -1.293   0.312  23.888  0.00  0.00    -0.419 OA
BRANCH  11  13
ATOM     13  C   UNL     1      -0.877  -0.949  24.518  0.00  0.00    +0.074 A 
ATOM     14  C   UNL     1      -0.409  -1.203  25.148  0.00  0.00    +0.104 A 
ATOM     15  N   UNL     1      -0.559  -1.930  25.508  0.00  0.00    -0.242 NA
ATOM     16  C   UNL     1      -1.179  -2.404  25.237  0.00  0.00    +0.099 A 
ATOM     17  C   UNL     1      -1.647  -2.150  24.607  0.00  0.00    +0.021 A 
ATOM     18  C   UNL     1      -1.495  -1.422  24.248  0.00  0.00    +0.008 A 
ENDBRANCH  11  13
ENDBRANCH   7   8
ENDBRANCH   6   7
BRANCH  22  23
ATOM     23  C   UNL     1      -2.955   3.720  25.137  0.00  0.00    +0.076 C 
BRANCH  23  24
ATOM     24  N   UNL     1      -3.759   3.591  25.275  0.00  0.00    -0.272 NA
ATOM     25  C   UNL     1      -4.324   4.035  24.868  0.00  0.00    +0.072 C 
ATOM     26  C   UNL     1      -5.127   3.906  25.007  0.00  0.00    +0.017 C 
ATOM     27  C   UNL     1      -5.366   3.334  25.553  0.00  0.00    +0.003 C 
ATOM     28  C   UNL     1      -6.168   3.206  25.691  0.00  0.00    +0.000 C 
ATOM     29  C   UNL     1      -4.800   2.892  25.959  0.00  0.00    +0.017 C 
ATOM     30  C   UNL     1      -3.997   3.021  25.821  0.00  0.00    +0.072 C 
ENDBRANCH  23  24
ENDBRANCH  22  23
TORSDOF 6
ENDMDL
MODEL 8
REMARK VINA RESULT:     -10.5      0.987      1.901
REMARK  Name = 
REMARK  6 active torsions:
REMARK  status: ('A' for Active; 'I' for Inactive)
REMARK    1  A    between atoms: C_2  and  C_4
REMARK    2  A    between atoms: C_6  and  C_7
REMARK    3  A    between atoms: C_7  and  C_8
REMARK    4  A    between atoms: C_11  and  C_13
REMARK    5  A    between atoms: C_22  and  C_23
REMARK    6  A    between atoms: C_23  and  N_24
REMARK                            x       y       z     vdW  Elec       q    Type
REMARK                         _______ _______ _______ _____ _____    ______ ____
ROOT
ATOM      4  C   UNL     1      -2.707   1.832  24.434  0.00  0.00    +0.006 C 
ATOM      5  C   UNL     1      -2.452   1.065  24.597  0.00  0.00    +0.005 C 
ATOM      6  C   UNL     1      -1.784   0.944  25.067  0.00  0.00    +0.027 C 
ATOM     19  C   UNL     1      -1.372   1.591  25.373  0.00  0.00    -0.048 C 
ATOM     20  C   UNL     1      -0.705   1.470  25.842  0.00  0.00    +0.026 C 
ATOM     21  C   UNL     1      -1.629   2.358  25.208  0.00  0.00    -0.034 C 
ATOM     22  C   UNL     1      -2.296   2.478  24.739  0.00  0.00    +0.037 C 
ENDROOT
BRANCH   4   2
ATOM      1  C   UNL     1      -3.304   1.959  23.142  0.00  0.00    +0.000 C 
ATOM      2  C   UNL     1      -3.375   1.951  23.964  0.00  0.00    +0.000 C 
ATOM      3  C   UNL     1      -4.112   2.063  24.316  0.00  0.00    +0.000 C 
ENDBRANCH   4   2
BRANCH   6   7
ATOM      7  C   UNL     1      -1.528   0.177  25.231  0.00  0.00    +0.091 C 
BRANCH   7   8
ATOM      8  C   UNL     1      -2.078  -0.430  25.323  0.00  0.00    +0.227 A 
ATOM      9  N   UNL     1      -2.421  -0.669  26.035  0.00  0.00    -0.111 NA
ATOM     10  N   UNL     1      -2.937  -1.293  25.872  0.00  0.00    -0.107 NA
ATOM     11  C   UNL     1      -2.912  -1.438  25.060  0.00  0.00    +0.251 A 
ATOM     12  O   UNL     1      -2.381  -0.905  24.721  0.00  0.00    -0.419 OA
BRANCH  11  13
ATOM     13  C   UNL     1      -3.342  -2.015  24.658  0.00  0.00    +0.074 A 
ATOM     14  C   UNL     1      -3.135  -2.811  24.730  0.00  0.00    +0.104 A 
ATOM     15  N   UNL     1      -3.564  -3.389  24.328  0.00  0.00    -0.242 NA
ATOM     16  C   UNL     1      -4.203  -3.171  23.853  0.00  0.00    +0.099 A 
ATOM     17  C   UNL     1      -4.412  -2.376  23.780  0.00  0.00    +0.021 A 
ATOM     18  C   UNL     1      -3.981  -1.798  24.183  0.00  0.00    +0.008 A 
ENDBRANCH  11  13
ENDBRANCH   7   8
ENDBRANCH   6   7
BRANCH  22  23
ATOM     23  C   UNL     1      -2.552   3.244  24.575  0.00  0.00    +0.076 C 
BRANCH  23  24
ATOM     24  N   UNL     1      -2.036   3.882  24.674  0.00  0.00    -0.272 NA
ATOM     25  C   UNL     1      -2.155   4.416  25.292  0.00  0.00    +0.072 C 
ATOM     26  C   UNL     1      -1.639   5.053  25.390  0.00  0.00    +0.017 C 
ATOM     27  C   UNL     1      -1.006   5.156  24.871  0.00  0.00    +0.003 C 
ATOM     28  C   UNL     1      -0.491   5.792  24.969  0.00  0.00    +0.000 C 
ATOM     29  C   UNL     1      -0.889   4.621  24.253  0.00  0.00    +0.017 C 
ATOM     30  C   UNL     1      -1.404   3.984  24.155  0.00  0.00    +0.072 C 
ENDBRANCH  23  24
ENDBRANCH  22  23
TORSDOF 6
ENDMDL
MODEL 9
REMARK VINA RESULT:     -10.5      2.342      4.222
REMARK  Name = 
REMARK  6 active torsions:
REMARK  status: ('A' for Active; 'I' for Inactive)
REMARK    1  A    between atoms: C_2  and  C_4
REMARK    2  A    between atoms: C_6  and  C_7
REMARK    3  A    between atoms: C_7  and  C_8
REMARK    4  A    between atoms: C_11  and  C_13
REMARK    5  A    between atoms: C_22  and  C_23
REMARK    6  A    between atoms: C_23  and  N_24
REMARK                            x       y       z     vdW  Elec       q    Type
REMARK                         _______ _______ _______ _____ _____    ______ ____
ROOT
ATOM      4  C   UNL     1      -3.119   0.043  24.600  0.00  0.00    +0.006 C 
ATOM      5  C   UNL     1      -2.344  -0.135  24.818  0.00  0.00    +0.005 C 
ATOM      6  C   UNL     1      -1.839   0.466  25.073  0.00  0.00    +0.027 C 
ATOM     19  C   UNL     1      -2.110   1.245  25.110  0.00  0.00    -0.048 C 
ATOM     20  C   UNL     1      -1.605   1.845  25.364  0.00  0.00    +0.026 C 
ATOM     21  C   UNL     1      -2.886   1.422  24.891  0.00  0.00    -0.034 C 
ATOM     22  C   UNL     1      -3.390   0.821  24.637  0.00  0.00    +0.037 C 
ENDROOT
BRANCH   4   2
ATOM      1  C   UNL     1      -3.998  -1.043  24.898  0.00  0.00    +0.000 C 
ATOM      2  C   UNL     1      -3.623  -0.558  24.345  0.00  0.00    +0.000 C 
ATOM      3  C   UNL     1      -3.752  -0.675  23.540  0.00  0.00    +0.000 C 
ENDBRANCH   4   2
BRANCH   6   7
ATOM      7  C   UNL     1      -1.064   0.288  25.291  0.00  0.00    +0.091 C 
BRANCH   7   8
ATOM      8  C   UNL     1      -0.568  -0.109  24.766  0.00  0.00    +0.227 A 
ATOM      9  N   UNL     1      -0.462  -0.927  24.724  0.00  0.00    -0.111 NA
ATOM     10  N   UNL     1       0.080  -1.083  24.122  0.00  0.00    -0.107 NA
ATOM     11  C   UNL     1       0.310  -0.362  23.792  0.00  0.00    +0.251 A 
ATOM     12  O   UNL     1      -0.091   0.240  24.191  0.00  0.00    -0.419 OA
BRANCH  11  13
ATOM     13  C   UNL     1       0.845  -0.260  23.174  0.00  0.00    +0.074 A 
ATOM     14  C   UNL     1       1.591   0.060  23.322  0.00  0.00    +0.104 A 
ATOM     15  N   UNL     1       2.128   0.163  22.704  0.00  0.00    -0.242 NA
ATOM     16  C   UNL     1       1.918  -0.055  21.936  0.00  0.00    +0.099 A 
ATOM     17  C   UNL     1       1.172  -0.375  21.786  0.00  0.00    +0.021 A 
ATOM     18  C   UNL     1       0.636  -0.477  22.406  0.00  0.00    +0.008 A 
ENDBRANCH  11  13
ENDBRANCH   7   8
ENDBRANCH   6   7
BRANCH  22  23
ATOM     23  C   UNL     1      -4.165   0.999  24.418  0.00  0.00    +0.076 C 
BRANCH  23  24
ATOM     24  N   UNL     1      -4.522   1.692  24.690  0.00  0.00    -0.272 NA
ATOM     25  C   UNL     1      -4.433   2.395  24.267  0.00  0.00    +0.072 C 
ATOM     26  C   UNL     1      -4.790   3.087  24.538  0.00  0.00    +0.017 C 
ATOM     27  C   UNL     1      -5.235   3.077  25.233  0.00  0.00    +0.003 C 
ATOM     28  C   UNL     1      -5.591   3.769  25.505  0.00  0.00    +0.000 C 
ATOM     29  C   UNL     1      -5.323   2.374  25.656  0.00  0.00    +0.017 C 
ATOM     30  C   UNL     1      -4.967   1.682  25.384  0.00  0.00    +0.072 C 
ENDBRANCH  23  24
ENDBRANCH  22  23
TORSDOF 6
ENDMDL
MODEL 10
REMARK VINA RESULT:     -10.1      1.623      2.401
REMARK  Name = 
REMARK  6 active torsions:
REMARK  status: ('A' for Active; 'I' for Inactive)
REMARK    1  A    between atoms: C_2  and  C_4
REMARK    2  A    between atoms: C_6  and  C_7
REMARK    3  A    between atoms: C_7  and  C_8
REMARK    4  A    between atoms: C_11  and  C_13
REMARK    5  A    between atoms: C_22  and  C_23
REMARK    6  A    between atoms: C_23  and  N_24
REMARK                            x       y       z     vdW  Elec       q    Type
REMARK                         _______ _______ _______ _____ _____    ______ ____
ROOT
ATOM      4  C   UNL     1      -3.287   1.545  23.543  0.00  0.00    +0.006 C 
ATOM      5  C   UNL     1      -3.525   0.756  23.590  0.00  0.00    +0.005 C 
ATOM      6  C   UNL     1      -4.033   0.514  24.195  0.00  0.00    +0.027 C 
ATOM     19  C   UNL     1      -4.301   1.061  24.752  0.00  0.00    -0.048 C 
ATOM     20  C   UNL     1      -4.807   0.819  25.355  0.00  0.00    +0.026 C 
ATOM     21  C   UNL     1      -4.062   1.849  24.704  0.00  0.00    -0.034 C 
ATOM     22  C   UNL     1      -3.556   2.091  24.100  0.00  0.00    +0.037 C 
ENDROOT
BRANCH   4   2
ATOM      1  C   UNL     1      -3.090   2.121  22.250  0.00  0.00    +0.000 C 
ATOM      2  C   UNL     1      -2.780   1.786  22.939  0.00  0.00    +0.000 C 
ATOM      3  C   UNL     1      -1.966   1.693  23.021  0.00  0.00    +0.000 C 
ENDBRANCH   4   2
BRANCH   6   7
ATOM      7  C   UNL     1      -4.271  -0.274  24.242  0.00  0.00    +0.091 C 
BRANCH   7   8
ATOM      8  C   UNL     1      -3.707  -0.875  24.255  0.00  0.00    +0.227 A 
ATOM      9  N   UNL     1      -3.772  -1.608  23.882  0.00  0.00    -0.111 NA
ATOM     10  N   UNL     1      -3.084  -2.036  24.040  0.00  0.00    -0.107 NA
ATOM     11  C   UNL     1      -2.595  -1.567  24.511  0.00  0.00    +0.251 A 
ATOM     12  O   UNL     1      -2.980  -0.850  24.644  0.00  0.00    -0.419 OA
BRANCH  11  13
ATOM     13  C   UNL     1      -1.851  -1.778  24.799  0.00  0.00    +0.074 A 
ATOM     14  C   UNL     1      -1.580  -2.553  24.714  0.00  0.00    +0.104 A 
ATOM     15  N   UNL     1      -0.837  -2.765  25.001  0.00  0.00    -0.242 NA
ATOM     16  C   UNL     1      -0.363  -2.201  25.374  0.00  0.00    +0.099 A 
ATOM     17  C   UNL     1      -0.633  -1.426  25.459  0.00  0.00    +0.021 A 
ATOM     18  C   UNL     1      -1.378  -1.215  25.171  0.00  0.00    +0.008 A 
ENDBRANCH  11  13
ENDBRANCH   7   8
ENDBRANCH   6   7
BRANCH  22  23
ATOM     23  C   UNL     1      -3.317   2.879  24.052  0.00  0.00    +0.076 C 
BRANCH  23  24
ATOM     24  N   UNL     1      -3.255   3.334  24.739  0.00  0.00    -0.272 NA
ATOM     25  C   UNL     1      -2.552   3.334  25.171  0.00  0.00    +0.072 C 
ATOM     26  C   UNL     1      -2.490   3.788  25.857  0.00  0.00    +0.017 C 
ATOM     27  C   UNL     1      -3.131   4.242  26.111  0.00  0.00    +0.003 C 
ATOM     28  C   UNL     1      -3.070   4.696  26.796  0.00  0.00    +0.000 C 
ATOM     29  C   UNL     1      -3.834   4.240  25.679  0.00  0.00    +0.017 C 
ATOM     30  C   UNL     1      -3.896   3.786  24.993  0.00  0.00    +0.072 C 
ENDBRANCH  23  24
ENDBRANCH  22  23
TORSDOF 6
ENDMDL
