MODEL 1
REMARK VINA RESULT:     -12.7      0.000      0.000
REMARK  Name = 
REMARK  4 active torsions:
REMARK  status: ('A' for Active; 'I' for Inactive)
REMARK    1  A    between atoms: C_2  and  C_4
REMARK    2  A    between atoms: C_7  and  C_8
REMARK    3  A    between atoms: C_8  and  N_9
REMARK    4  A    between atoms: C_12  and  C_14
REMARK                            x       y       z     vdW  Elec       q    Type
REMARK                         _______ _______ _______ _____ _____    ______ ____
ROOT
ATOM      9  N   UNL     1      -4.571   2.111  24.713  0.00  0.00    -0.268 NA
ATOM     10  C   UNL     1      -5.157   1.896  25.253  0.00  0.00    +0.073 C 
ATOM     11  C   UNL     1      -5.128   1.077  25.348  0.00  0.00    +0.028 C 
ATOM     12  C   UNL     1      -4.524   0.785  24.866  0.00  0.00    +0.094 C 
ATOM     13  C   UNL     1      -4.181   1.424  24.474  0.00  0.00    +0.082 C 
ENDROOT
BRANCH  12  14
ATOM     14  C   UNL     1      -4.304  -0.006  24.790  0.00  0.00    +0.207 A 
ATOM     15  N   UNL     1      -3.858  -0.439  25.332  0.00  0.00    -0.212 NA
ATOM     16  C   UNL     1      -3.769  -1.203  25.035  0.00  0.00    +0.119 A 
ATOM     17  C   UNL     1      -4.161  -1.243  24.310  0.00  0.00    +0.164 A 
ATOM     18  O   UNL     1      -4.492  -0.503  24.158  0.00  0.00    -0.438 OA
ATOM     19  C   UNL     1      -4.166  -1.949  23.883  0.00  0.00    +0.039 A 
ATOM     20  C   UNL     1      -3.779  -2.614  24.179  0.00  0.00    +0.003 A 
ATOM     21  C   UNL     1      -3.388  -2.574  24.904  0.00  0.00    +0.002 A 
ATOM     22  C   UNL     1      -3.382  -1.869  25.333  0.00  0.00    +0.022 A 
ENDBRANCH  12  14
BRANCH   9   8
ATOM      8  C   UNL     1      -4.405   2.877  24.456  0.00  0.00    +0.099 C 
BRANCH   8   7
ATOM      4  C   UNL     1      -2.296   3.980  25.134  0.00  0.00    +0.080 A 
ATOM      5  C   UNL     1      -2.339   3.579  24.415  0.00  0.00    +0.006 A 
ATOM      6  C   UNL     1      -3.042   3.211  24.188  0.00  0.00    -0.003 A 
ATOM      7  C   UNL     1      -3.702   3.245  24.683  0.00  0.00    -0.006 A 
ATOM     23  C   UNL     1      -3.659   3.646  25.402  0.00  0.00    -0.003 A 
ATOM     24  C   UNL     1      -2.955   4.013  25.628  0.00  0.00    +0.006 A 
BRANCH   4   2
ATOM      1  O   UNL     1      -0.950   3.892  25.610  0.00  0.00    -0.241 OA
ATOM      2  C   UNL     1      -1.592   4.347  25.360  0.00  0.00    +0.388 C 
ATOM      3  O   UNL     1      -1.530   5.169  25.335  0.00  0.00    -0.241 OA
ENDBRANCH   4   2
ENDBRANCH   8   7
ENDBRANCH   9   8
TORSDOF 4
ENDMDL
MODEL 2
REMARK VINA RESULT:     -12.5      1.220      5.200
REMARK  Name = 
REMARK  4 active torsions:
REMARK  status: ('A' for Active; 'I' for Inactive)
REMARK    1  A    between atoms: C_2  and  C_4
REMARK    2  A    between atoms: C_7  and  C_8
REMARK    3  A    between atoms: C_8  and  N_9
REMARK    4  A    between atoms: C_12  and  C_14
REMARK                            x       y       z     vdW  Elec       q    Type
REMARK                         _______ _______ _______ _____ _____    ______ ____
ROOT
ATOM      9  N   UNL     1      -4.132   1.150  24.820  0.00  0.00    -0.268 NA
ATOM     10  C   UNL     1      -4.331   1.469  24.086  0.00  0.00    +0.073 C 
ATOM     11  C   UNL     1      -3.863   2.138  23.963  0.00  0.00    +0.028 C 
ATOM     12  C   UNL     1      -3.375   2.232  24.622  0.00  0.00    +0.094 C 
ATOM     13  C   UNL     1      -3.541   1.621  25.151  0.00  0.00    +0.082 C 
ENDROOT
BRANCH  12  14
ATOM     14  C   UNL     1      -2.818   2.831  24.732  0.00  0.00    +0.207 A 
ATOM     15  N   UNL     1      -2.975   3.596  24.997  0.00  0.00    -0.212 NA
ATOM     16  C   UNL     1      -2.262   4.007  25.025  0.00  0.00    +0.119 A 
ATOM     17  C   UNL     1      -1.663   3.497  24.778  0.00  0.00    +0.164 A 
ATOM     18  O   UNL     1      -2.006   2.769  24.597  0.00  0.00    -0.438 OA
ATOM     19  C   UNL     1      -0.881   3.761  24.749  0.00  0.00    +0.039 A 
ATOM     20  C   UNL     1      -0.699   4.534  24.968  0.00  0.00    +0.003 A 
ATOM     21  C   UNL     1      -1.298   5.045  25.215  0.00  0.00    +0.002 A 
ATOM     22  C   UNL     1      -2.079   4.782  25.244  0.00  0.00    +0.022 A 
ENDBRANCH  12  14
BRANCH   9   8
ATOM      8  C   UNL     1      -4.465   0.478  25.163  0.00  0.00    +0.099 C 
BRANCH   8   7
ATOM      4  C   UNL     1      -3.515  -1.756  24.685  0.00  0.00    +0.080 A 
ATOM      5  C   UNL     1      -3.330  -1.372  25.391  0.00  0.00    +0.006 A 
ATOM      6  C   UNL     1      -3.646  -0.627  25.551  0.00  0.00    -0.003 A 
ATOM      7  C   UNL     1      -4.149  -0.267  25.003  0.00  0.00    -0.006 A 
ATOM     23  C   UNL     1      -4.334  -0.652  24.297  0.00  0.00    -0.003 A 
ATOM     24  C   UNL     1      -4.016  -1.397  24.138  0.00  0.00    +0.006 A 
BRANCH   4   2
ATOM      1  O   UNL     1      -3.667  -3.176  24.607  0.00  0.00    -0.241 OA
ATOM      2  C   UNL     1      -3.197  -2.502  24.526  0.00  0.00    +0.388 C 
ATOM      3  O   UNL     1      -2.411  -2.573  24.287  0.00  0.00    -0.241 OA
ENDBRANCH   4   2
ENDBRANCH   8   7
ENDBRANCH   9   8
TORSDOF 4
ENDMDL
MODEL 3
REMARK VINA RESULT:     -11.6      2.039      5.691
REMARK  Name = 
REMARK  4 active torsions:
REMARK  status: ('A' for Active; 'I' for Inactive)
REMARK    1  A    between atoms: C_2  and  C_4
REMARK    2  A    between atoms: C_7  and  C_8
REMARK    3  A    between atoms: C_8  and  N_9
REMARK    4  A    between atoms: C_12  and  C_14
REMARK                            x       y       z     vdW  Elec       q    Type
REMARK                         _______ _______ _______ _____ _____    ______ ____
ROOT
ATOM      9  N   UNL     1      -1.114   0.086  25.356  0.00  0.00    -0.268 NA
ATOM     10  C   UNL     1      -0.566   0.177  24.746  0.00  0.00    +0.073 C 
ATOM     11  C   UNL     1      -0.500   0.983  24.580  0.00  0.00    +0.028 C 
ATOM     12  C   UNL     1      -1.008   1.390  25.087  0.00  0.00    +0.094 C 
ATOM     13  C   UNL     1      -1.387   0.836  25.566  0.00  0.00    +0.082 C 
ENDROOT
BRANCH  12  14
ATOM     14  C   UNL     1      -1.118   2.207  25.110  0.00  0.00    +0.207 A 
ATOM     15  N   UNL     1      -0.570   2.777  24.874  0.00  0.00    -0.212 NA
ATOM     16  C   UNL     1      -0.908   3.520  24.991  0.00  0.00    +0.119 A 
ATOM     17  C   UNL     1      -1.665   3.410  25.301  0.00  0.00    +0.164 A 
ATOM     18  O   UNL     1      -1.795   2.599  25.374  0.00  0.00    -0.438 OA
ATOM     19  C   UNL     1      -2.138   4.063  25.475  0.00  0.00    +0.039 A 
ATOM     20  C   UNL     1      -1.854   4.825  25.341  0.00  0.00    +0.003 A 
ATOM     21  C   UNL     1      -1.097   4.935  25.031  0.00  0.00    +0.002 A 
ATOM     22  C   UNL     1      -0.624   4.283  24.856  0.00  0.00    +0.022 A 
ENDBRANCH  12  14
BRANCH   9   8
ATOM      8  C   UNL     1      -1.348  -0.628  25.696  0.00  0.00    +0.099 C 
BRANCH   8   7
ATOM      4  C   UNL     1      -3.159  -1.957  24.659  0.00  0.00    +0.080 A 
ATOM      5  C   UNL     1      -2.376  -2.081  24.433  0.00  0.00    +0.006 A 
ATOM      6  C   UNL     1      -1.772  -1.638  24.778  0.00  0.00    -0.003 A 
ATOM      7  C   UNL     1      -1.952  -1.071  25.350  0.00  0.00    -0.006 A 
ATOM     23  C   UNL     1      -2.735  -0.947  25.577  0.00  0.00    -0.003 A 
ATOM     24  C   UNL     1      -3.339  -1.391  25.231  0.00  0.00    +0.006 A 
BRANCH   4   2
ATOM      1  O   UNL     1      -4.338  -2.028  23.852  0.00  0.00    -0.241 OA
ATOM      2  C   UNL     1      -3.763  -2.401  24.313  0.00  0.00    +0.388 C 
ATOM      3  O   UNL     1      -3.793  -3.217  24.428  0.00  0.00    -0.241 OA
ENDBRANCH   4   2
ENDBRANCH   8   7
ENDBRANCH   9   8
TORSDOF 4
ENDMDL
MODEL 4
REMARK VINA RESULT:     -11.6      1.971      2.548
REMARK  Name = 
REMARK  4 active torsions:
REMARK  status: ('A' for Active; 'I' for Inactive)
REMARK    1  A    between atoms: C_2  and  C_4
REMARK    2  A    between atoms: C_7  and  C_8
REMARK    3  A    between atoms: C_8  and  N_9
REMARK    4  A    between atoms: C_12  and  C_14
REMARK                            x       y       z     vdW  Elec       q    Type
REMARK                         _______ _______ _______ _____ _____    ______ ____
ROOT
ATOM      9  N   UNL     1      -0.769   1.116  25.265  0.00  0.00    -0.268 NA
ATOM     10  C   UNL     1      -0.373   0.850  24.592  0.00  0.00    +0.073 C 
ATOM     11  C   UNL     1      -0.806   0.224  24.272  0.00  0.00    +0.028 C 
ATOM     12  C   UNL     1      -1.470   0.104  24.747  0.00  0.00    +0.094 C 
ATOM     13  C   UNL     1      -1.447   0.655  25.361  0.00  0.00    +0.082 C 
ENDROOT
BRANCH  12  14
ATOM     14  C   UNL     1      -2.054  -0.466  24.630  0.00  0.00    +0.207 A 
ATOM     15  N   UNL     1      -1.991  -1.269  24.810  0.00  0.00    -0.212 NA
ATOM     16  C   UNL     1      -2.701  -1.633  24.602  0.00  0.00    +0.119 A 
ATOM     17  C   UNL     1      -3.203  -1.055  24.293  0.00  0.00    +0.164 A 
ATOM     18  O   UNL     1      -2.803  -0.335  24.310  0.00  0.00    -0.438 OA
ATOM     19  C   UNL     1      -3.960  -1.262  24.037  0.00  0.00    +0.039 A 
ATOM     20  C   UNL     1      -4.214  -2.044  24.089  0.00  0.00    +0.003 A 
ATOM     21  C   UNL     1      -3.713  -2.621  24.398  0.00  0.00    +0.002 A 
ATOM     22  C   UNL     1      -2.956  -2.416  24.655  0.00  0.00    +0.022 A 
ENDBRANCH  12  14
BRANCH   9   8
ATOM      8  C   UNL     1      -0.530   1.734  25.756  0.00  0.00    +0.099 C 
BRANCH   8   7
ATOM      4  C   UNL     1      -1.284   4.045  25.295  0.00  0.00    +0.080 A 
ATOM      5  C   UNL     1      -1.707   3.570  25.820  0.00  0.00    +0.006 A 
ATOM      6  C   UNL     1      -1.456   2.800  25.974  0.00  0.00    -0.003 A 
ATOM      7  C   UNL     1      -0.781   2.504  25.602  0.00  0.00    -0.006 A 
ATOM     23  C   UNL     1      -0.358   2.979  25.077  0.00  0.00    -0.003 A 
ATOM     24  C   UNL     1      -0.610   3.750  24.923  0.00  0.00    +0.006 A 
BRANCH   4   2
ATOM      1  O   UNL     1      -2.343   4.990  25.119  0.00  0.00    -0.241 OA
ATOM      2  C   UNL     1      -1.536   4.816  25.141  0.00  0.00    +0.388 C 
ATOM      3  O   UNL     1      -0.982   5.412  25.010  0.00  0.00    -0.241 OA
ENDBRANCH   4   2
ENDBRANCH   8   7
ENDBRANCH   9   8
TORSDOF 4
ENDMDL
