MODEL 1
REMARK VINA RESULT:      -9.2      0.000      0.000
REMARK  Name = 
REMARK  3 active torsions:
REMARK  status: ('A' for Active; 'I' for Inactive)
REMARK    1  A    between atoms: C_2  and  C_4
REMARK    2  A    between atoms: C_4  and  N_5
REMARK    3  A    between atoms: N_8  and  C_15
REMARK                            x       y       z     vdW  Elec       q    Type
REMARK                         _______ _______ _______ _____ _____    ______ ____
ROOT
ATOM      5  N   UNL     1      -4.372   1.944  24.775  0.00  0.00    -0.267 N 
ATOM      6  C   UNL     1      -4.097   1.202  24.541  0.00  0.00    +0.120 C 
ATOM      7  C   UNL     1      -4.253   0.442  24.820  0.00  0.00    +0.095 C 
ATOM      8  N   UNL     1      -3.817  -0.092  24.367  0.00  0.00    -0.270 NA
ATOM      9  C   UNL     1      -3.391   0.339  23.807  0.00  0.00    +0.104 C 
ATOM     10  C   UNL     1      -3.564   1.139  23.914  0.00  0.00    +0.151 C 
ATOM     11  O   UNL     1      -3.305   1.818  23.522  0.00  0.00    -0.344 OA
ATOM     12  C   UNL     1      -3.580   2.559  23.758  0.00  0.00    +0.227 C 
ATOM     13  C   UNL     1      -4.113   2.623  24.384  0.00  0.00    +0.256 C 
ATOM     14  O   UNL     1      -4.388   3.364  24.619  0.00  0.00    -0.272 OA
ENDROOT
BRANCH   8  15
ATOM     15  C   UNL     1      -3.808  -0.911  24.458  0.00  0.00    +0.063 C 
ATOM     16  C   UNL     1      -3.422  -1.251  25.102  0.00  0.00    +0.048 C 
ATOM     17  C   UNL     1      -3.413  -2.071  25.193  0.00  0.00    +0.144 C 
ATOM     18  O   UNL     1      -3.789  -2.550  24.638  0.00  0.00    -0.354 OA
ATOM     19  C   UNL     1      -4.176  -2.211  23.993  0.00  0.00    +0.144 C 
ATOM     20  C   UNL     1      -4.185  -1.392  23.902  0.00  0.00    +0.048 C 
ENDBRANCH   8  15
BRANCH   5   4
ATOM      4  C   UNL     1      -4.905   2.008  25.402  0.00  0.00    +0.183 C 
BRANCH   4   2
ATOM      1  N   UNL     1      -5.882   3.032  25.596  0.00  0.00    -0.086 NA
ATOM      2  C   UNL     1      -5.662   2.306  25.271  0.00  0.00    +0.281 C 
ATOM      3  O   UNL     1      -6.200   1.880  24.814  0.00  0.00    -0.270 OA
ENDBRANCH   4   2
ENDBRANCH   5   4
TORSDOF 3
ENDMDL
MODEL 2
REMARK VINA RESULT:      -8.9      1.010      1.940
REMARK  Name = 
REMARK  3 active torsions:
REMARK  status: ('A' for Active; 'I' for Inactive)
REMARK    1  A    between atoms: C_2  and  C_4
REMARK    2  A    between atoms: C_4  and  N_5
REMARK    3  A    between atoms: N_8  and  C_15
REMARK                            x       y       z     vdW  Elec       q    Type
REMARK                         _______ _______ _______ _____ _____    ______ ____
ROOT
ATOM      5  N   UNL     1      -3.761   2.253  24.553  0.00  0.00    -0.267 N 
ATOM      6  C   UNL     1      -4.004   1.474  24.675  0.00  0.00    +0.120 C 
ATOM      7  C   UNL     1      -3.624   0.751  24.552  0.00  0.00    +0.095 C 
ATOM      8  N   UNL     1      -4.142   0.150  24.776  0.00  0.00    -0.270 NA
ATOM      9  C   UNL     1      -4.842   0.500  25.039  0.00  0.00    +0.104 C 
ATOM     10  C   UNL     1      -4.756   1.319  24.976  0.00  0.00    +0.151 C 
ATOM     11  O   UNL     1      -5.266   1.943  25.154  0.00  0.00    -0.344 OA
ATOM     12  C   UNL     1      -5.023   2.722  25.031  0.00  0.00    +0.227 C 
ATOM     13  C   UNL     1      -4.271   2.877  24.730  0.00  0.00    +0.256 C 
ATOM     14  O   UNL     1      -4.028   3.655  24.608  0.00  0.00    -0.272 OA
ENDROOT
BRANCH   8  15
ATOM     15  C   UNL     1      -3.988  -0.660  24.745  0.00  0.00    +0.063 C 
ATOM     16  C   UNL     1      -4.199  -1.094  24.076  0.00  0.00    +0.048 C 
ATOM     17  C   UNL     1      -4.045  -1.903  24.044  0.00  0.00    +0.144 C 
ATOM     18  O   UNL     1      -3.679  -2.279  24.681  0.00  0.00    -0.354 OA
ATOM     19  C   UNL     1      -3.468  -1.845  25.350  0.00  0.00    +0.144 C 
ATOM     20  C   UNL     1      -3.622  -1.035  25.382  0.00  0.00    +0.048 C 
ENDBRANCH   8  15
BRANCH   5   4
ATOM      4  C   UNL     1      -3.008   2.409  24.252  0.00  0.00    +0.183 C 
BRANCH   4   2
ATOM      1  N   UNL     1      -2.214   3.544  24.596  0.00  0.00    -0.086 NA
ATOM      2  C   UNL     1      -2.438   2.762  24.731  0.00  0.00    +0.281 C 
ATOM      3  O   UNL     1      -2.091   2.333  25.344  0.00  0.00    -0.270 OA
ENDBRANCH   4   2
ENDBRANCH   5   4
TORSDOF 3
ENDMDL
MODEL 3
REMARK VINA RESULT:      -8.5      2.059      4.203
REMARK  Name = 
REMARK  3 active torsions:
REMARK  status: ('A' for Active; 'I' for Inactive)
REMARK    1  A    between atoms: C_2  and  C_4
REMARK    2  A    between atoms: C_4  and  N_5
REMARK    3  A    between atoms: N_8  and  C_15
REMARK                            x       y       z     vdW  Elec       q    Type
REMARK                         _______ _______ _______ _____ _____    ______ ____
ROOT
ATOM      5  N   UNL     1      -4.596   2.312  24.862  0.00  0.00    -0.267 N 
ATOM      6  C   UNL     1      -4.015   2.842  25.111  0.00  0.00    +0.120 C 
ATOM      7  C   UNL     1      -3.222   2.931  24.903  0.00  0.00    +0.095 C 
ATOM      8  N   UNL     1      -2.913   3.561  25.336  0.00  0.00    -0.270 NA
ATOM      9  C   UNL     1      -3.515   3.862  25.813  0.00  0.00    +0.104 C 
ATOM     10  C   UNL     1      -4.197   3.418  25.674  0.00  0.00    +0.151 C 
ATOM     11  O   UNL     1      -4.959   3.463  25.988  0.00  0.00    -0.344 OA
ATOM     12  C   UNL     1      -5.539   2.932  25.738  0.00  0.00    +0.227 C 
ATOM     13  C   UNL     1      -5.358   2.357  25.175  0.00  0.00    +0.256 C 
ATOM     14  O   UNL     1      -5.938   1.827  24.926  0.00  0.00    -0.272 OA
ENDROOT
BRANCH   8  15
ATOM     15  C   UNL     1      -2.138   3.841  25.299  0.00  0.00    +0.063 C 
ATOM     16  C   UNL     1      -1.508   3.336  25.466  0.00  0.00    +0.048 C 
ATOM     17  C   UNL     1      -0.733   3.616  25.430  0.00  0.00    +0.144 C 
ATOM     18  O   UNL     1      -0.588   4.401  25.226  0.00  0.00    -0.354 OA
ATOM     19  C   UNL     1      -1.218   4.908  25.059  0.00  0.00    +0.144 C 
ATOM     20  C   UNL     1      -1.993   4.628  25.095  0.00  0.00    +0.048 C 
ENDBRANCH   8  15
BRANCH   5   4
ATOM      4  C   UNL     1      -4.415   1.736  24.299  0.00  0.00    +0.183 C 
BRANCH   4   2
ATOM      1  N   UNL     1      -3.559   0.599  24.174  0.00  0.00    -0.086 NA
ATOM      2  C   UNL     1      -4.194   0.979  24.539  0.00  0.00    +0.281 C 
ATOM      3  O   UNL     1      -4.607   0.602  25.145  0.00  0.00    -0.270 OA
ENDBRANCH   4   2
ENDBRANCH   5   4
TORSDOF 3
ENDMDL
MODEL 4
REMARK VINA RESULT:      -8.4      1.485      4.164
REMARK  Name = 
REMARK  3 active torsions:
REMARK  status: ('A' for Active; 'I' for Inactive)
REMARK    1  A    between atoms: C_2  and  C_4
REMARK    2  A    between atoms: C_4  and  N_5
REMARK    3  A    between atoms: N_8  and  C_15
REMARK                            x       y       z     vdW  Elec       q    Type
REMARK                         _______ _______ _______ _____ _____    ______ ____
ROOT
ATOM      5  N   UNL     1      -2.633  -1.201  24.955  0.00  0.00    -0.267 N 
ATOM      6  C   UNL     1      -3.244  -0.671  24.795  0.00  0.00    +0.120 C 
ATOM      7  C   UNL     1      -3.343   0.130  24.971  0.00  0.00    +0.095 C 
ATOM      8  N   UNL     1      -4.072   0.369  24.669  0.00  0.00    -0.270 NA
ATOM      9  C   UNL     1      -4.425  -0.283  24.306  0.00  0.00    +0.104 C 
ATOM     10  C   UNL     1      -3.913  -0.926  24.384  0.00  0.00    +0.151 C 
ATOM     11  O   UNL     1      -3.970  -1.711  24.134  0.00  0.00    -0.344 OA
ATOM     12  C   UNL     1      -3.358  -2.239  24.295  0.00  0.00    +0.227 C 
ATOM     13  C   UNL     1      -2.689  -1.985  24.706  0.00  0.00    +0.256 C 
ATOM     14  O   UNL     1      -2.078  -2.514  24.866  0.00  0.00    -0.272 OA
ENDROOT
BRANCH   8  15
ATOM     15  C   UNL     1      -4.392   1.128  24.720  0.00  0.00    +0.063 C 
ATOM     16  C   UNL     1      -5.036   1.271  25.215  0.00  0.00    +0.048 C 
ATOM     17  C   UNL     1      -5.356   2.029  25.267  0.00  0.00    +0.144 C 
ATOM     18  O   UNL     1      -5.033   2.644  24.823  0.00  0.00    -0.354 OA
ATOM     19  C   UNL     1      -4.389   2.501  24.327  0.00  0.00    +0.144 C 
ATOM     20  C   UNL     1      -4.068   1.743  24.276  0.00  0.00    +0.048 C 
ENDBRANCH   8  15
BRANCH   5   4
ATOM      4  C   UNL     1      -1.963  -0.946  25.366  0.00  0.00    +0.183 C 
BRANCH   4   2
ATOM      1  N   UNL     1      -0.621  -1.426  25.270  0.00  0.00    -0.086 NA
ATOM      2  C   UNL     1      -1.228  -0.940  24.993  0.00  0.00    +0.281 C 
ATOM      3  O   UNL     1      -1.099  -0.448  24.344  0.00  0.00    -0.270 OA
ENDBRANCH   4   2
ENDBRANCH   5   4
TORSDOF 3
ENDMDL
