MODEL 1
REMARK VINA RESULT:     -11.1      0.000      0.000
REMARK  Name = 
REMARK  6 active torsions:
REMARK  status: ('A' for Active; 'I' for Inactive)
REMARK    1  A    between atoms: O_2  and  C_3
REMARK    2  A    between atoms: C_6  and  C_9
REMARK    3  A    between atoms: C_11  and  C_12
REMARK    4  A    between atoms: C_12  and  C_13
REMARK    5  A    between atoms: C_13  and  N_17
REMARK    6  A    between atoms: N_17  and  C_18
REMARK                            x       y       z     vdW  Elec       q    Type
REMARK                         _______ _______ _______ _____ _____    ______ ____
ROOT
ATOM      9  C   UNL     1      -4.250   0.259  24.848  0.00  0.00    +0.177 A 
ATOM     10  C   UNL     1      -3.768   0.886  24.612  0.00  0.00    +0.058 A 
ATOM     11  C   UNL     1      -4.178   1.588  24.752  0.00  0.00    +0.102 A 
ATOM     25  N   UNL     1      -4.913   1.396  25.074  0.00  0.00    -0.081 NA
ATOM     26  O   UNL     1      -4.957   0.574  25.134  0.00  0.00    -0.354 OA
ENDROOT
BRANCH   9   6
ATOM      3  C   UNL     1      -3.675  -2.145  24.723  0.00  0.00    +0.139 A 
ATOM      4  C   UNL     1      -4.046  -1.776  24.085  0.00  0.00    +0.037 A 
ATOM      5  C   UNL     1      -4.237  -0.975  24.127  0.00  0.00    +0.006 A 
ATOM      6  C   UNL     1      -4.058  -0.542  24.806  0.00  0.00    +0.037 A 
ATOM      7  C   UNL     1      -3.687  -0.912  25.444  0.00  0.00    +0.006 A 
ATOM      8  C   UNL     1      -3.496  -1.713  25.402  0.00  0.00    +0.037 A 
BRANCH   3   2
ATOM      1  C   UNL     1      -2.762  -3.181  24.358  0.00  0.00    +0.252 C 
ATOM      2  O   UNL     1      -3.483  -2.946  24.681  0.00  0.00    -0.471 OA
ENDBRANCH   3   2
ENDBRANCH   9   6
BRANCH  11  12
ATOM     12  C   UNL     1      -3.901   2.350  24.596  0.00  0.00    +0.070 C 
BRANCH  12  13
ATOM     13  C   UNL     1      -4.086   2.969  25.109  0.00  0.00    +0.119 C 
ATOM     14  C   UNL     1      -4.270   3.588  25.623  0.00  0.00    +0.161 C 
ATOM     15  O   UNL     1      -5.003   3.675  25.254  0.00  0.00    -0.351 OA
ATOM     16  C   UNL     1      -4.819   3.056  24.741  0.00  0.00    +0.161 C 
BRANCH  13  17
ATOM     17  N   UNL     1      -3.353   2.881  25.478  0.00  0.00    -0.217 NA
BRANCH  17  18
ATOM     18  C   UNL     1      -2.760   3.443  25.357  0.00  0.00    +0.076 C 
ATOM     19  C   UNL     1      -2.270   3.388  24.696  0.00  0.00    +0.035 C 
ATOM     20  C   UNL     1      -1.678   3.949  24.574  0.00  0.00    +0.074 C 
ATOM     21  N   UNL     1      -1.577   4.565  25.113  0.00  0.00    -0.271 NA
ATOM     22  C   UNL     1      -0.984   5.127  24.991  0.00  0.00    +0.090 C 
ATOM     23  C   UNL     1      -2.067   4.620  25.774  0.00  0.00    +0.074 C 
ATOM     24  C   UNL     1      -2.659   4.059  25.896  0.00  0.00    +0.035 C 
ENDBRANCH  17  18
ENDBRANCH  13  17
ENDBRANCH  12  13
ENDBRANCH  11  12
TORSDOF 6
ENDMDL
MODEL 2
REMARK VINA RESULT:      -9.7      2.214      5.775
REMARK  Name = 
REMARK  6 active torsions:
REMARK  status: ('A' for Active; 'I' for Inactive)
REMARK    1  A    between atoms: O_2  and  C_3
REMARK    2  A    between atoms: C_6  and  C_9
REMARK    3  A    between atoms: C_11  and  C_12
REMARK    4  A    between atoms: C_12  and  C_13
REMARK    5  A    between atoms: C_13  and  N_17
REMARK    6  A    between atoms: N_17  and  C_18
REMARK                            x       y       z     vdW  Elec       q    Type
REMARK                         _______ _______ _______ _____ _____    ______ ____
ROOT
ATOM      9  C   UNL     1      -1.336   2.084  25.327  0.00  0.00    +0.177 A 
ATOM     10  C   UNL     1      -1.705   1.576  24.792  0.00  0.00    +0.058 A 
ATOM     11  C   UNL     1      -1.512   0.802  25.002  0.00  0.00    +0.102 A 
ATOM     25  N   UNL     1      -1.023   0.831  25.666  0.00  0.00    -0.081 NA
ATOM     26  O   UNL     1      -0.914   1.624  25.867  0.00  0.00    -0.354 OA
ENDROOT
BRANCH   9   6
ATOM      3  C   UNL     1      -1.468   4.555  25.315  0.00  0.00    +0.139 A 
ATOM      4  C   UNL     1      -2.096   4.110  25.612  0.00  0.00    +0.037 A 
ATOM      5  C   UNL     1      -2.051   3.286  25.616  0.00  0.00    +0.006 A 
ATOM      6  C   UNL     1      -1.380   2.907  25.323  0.00  0.00    +0.037 A 
ATOM      7  C   UNL     1      -0.752   3.353  25.026  0.00  0.00    +0.006 A 
ATOM      8  C   UNL     1      -0.796   4.177  25.022  0.00  0.00    +0.037 A 
BRANCH   3   2
ATOM      1  C   UNL     1      -1.093   5.812  24.747  0.00  0.00    +0.252 C 
ATOM      2  O   UNL     1      -1.512   5.379  25.311  0.00  0.00    -0.471 OA
ENDBRANCH   3   2
ENDBRANCH   9   6
BRANCH  11  12
ATOM     12  C   UNL     1      -1.763   0.118  24.615  0.00  0.00    +0.070 C 
BRANCH  12  13
ATOM     13  C   UNL     1      -1.505  -0.622  24.874  0.00  0.00    +0.119 C 
ATOM     14  C   UNL     1      -1.247  -1.362  25.134  0.00  0.00    +0.161 C 
ATOM     15  O   UNL     1      -0.518  -1.235  24.768  0.00  0.00    -0.351 OA
ATOM     16  C   UNL     1      -0.776  -0.496  24.509  0.00  0.00    +0.161 C 
BRANCH  13  17
ATOM     17  N   UNL     1      -2.234  -0.748  25.240  0.00  0.00    -0.217 NA
BRANCH  17  18
ATOM     18  C   UNL     1      -2.793  -1.242  24.886  0.00  0.00    +0.076 C 
ATOM     19  C   UNL     1      -3.343  -0.930  24.358  0.00  0.00    +0.035 C 
ATOM     20  C   UNL     1      -3.902  -1.423  24.004  0.00  0.00    +0.074 C 
ATOM     21  N   UNL     1      -3.909  -2.229  24.179  0.00  0.00    -0.271 NA
ATOM     22  C   UNL     1      -4.467  -2.723  23.825  0.00  0.00    +0.090 C 
ATOM     23  C   UNL     1      -3.358  -2.542  24.707  0.00  0.00    +0.074 C 
ATOM     24  C   UNL     1      -2.800  -2.048  25.061  0.00  0.00    +0.035 C 
ENDBRANCH  17  18
ENDBRANCH  13  17
ENDBRANCH  12  13
ENDBRANCH  11  12
TORSDOF 6
ENDMDL
MODEL 3
REMARK VINA RESULT:      -9.6      2.132      2.651
REMARK  Name = 
REMARK  6 active torsions:
REMARK  status: ('A' for Active; 'I' for Inactive)
REMARK    1  A    between atoms: O_2  and  C_3
REMARK    2  A    between atoms: C_6  and  C_9
REMARK    3  A    between atoms: C_11  and  C_12
REMARK    4  A    between atoms: C_12  and  C_13
REMARK    5  A    between atoms: C_13  and  N_17
REMARK    6  A    between atoms: N_17  and  C_18
REMARK                            x       y       z     vdW  Elec       q    Type
REMARK                         _______ _______ _______ _____ _____    ______ ____
ROOT
ATOM      9  C   UNL     1      -1.880  -0.360  25.268  0.00  0.00    +0.177 A 
ATOM     10  C   UNL     1      -1.923   0.373  24.892  0.00  0.00    +0.058 A 
ATOM     11  C   UNL     1      -1.366   0.871  25.240  0.00  0.00    +0.102 A 
ATOM     25  N   UNL     1      -0.977   0.446  25.832  0.00  0.00    -0.081 NA
ATOM     26  O   UNL     1      -1.295  -0.315  25.849  0.00  0.00    -0.354 OA
ENDROOT
BRANCH   9   6
ATOM      3  C   UNL     1      -3.260  -2.347  24.746  0.00  0.00    +0.139 A 
ATOM      4  C   UNL     1      -3.595  -1.704  25.141  0.00  0.00    +0.037 A 
ATOM      5  C   UNL     1      -3.134  -1.042  25.315  0.00  0.00    +0.006 A 
ATOM      6  C   UNL     1      -2.340  -1.022  25.094  0.00  0.00    +0.037 A 
ATOM      7  C   UNL     1      -2.006  -1.665  24.699  0.00  0.00    +0.006 A 
ATOM      8  C   UNL     1      -2.466  -2.327  24.525  0.00  0.00    +0.037 A 
BRANCH   3   2
ATOM      1  C   UNL     1      -4.203  -3.012  23.902  0.00  0.00    +0.252 C 
ATOM      2  O   UNL     1      -3.721  -3.009  24.572  0.00  0.00    -0.471 OA
ENDBRANCH   3   2
ENDBRANCH   9   6
BRANCH  11  12
ATOM     12  C   UNL     1      -1.221   1.657  25.034  0.00  0.00    +0.070 C 
BRANCH  12  13
ATOM     13  C   UNL     1      -0.524   2.026  25.278  0.00  0.00    +0.119 C 
ATOM     14  C   UNL     1       0.171   2.396  25.522  0.00  0.00    +0.161 C 
ATOM     15  O   UNL     1       0.599   1.950  24.975  0.00  0.00    -0.351 OA
ATOM     16  C   UNL     1      -0.096   1.581  24.731  0.00  0.00    +0.161 C 
BRANCH  13  17
ATOM     17  N   UNL     1      -0.953   2.472  25.825  0.00  0.00    -0.217 NA
BRANCH  17  18
ATOM     18  C   UNL     1      -1.181   3.243  25.640  0.00  0.00    +0.076 C 
ATOM     19  C   UNL     1      -0.648   3.753  25.272  0.00  0.00    +0.035 C 
ATOM     20  C   UNL     1      -0.875   4.524  25.086  0.00  0.00    +0.074 C 
ATOM     21  N   UNL     1      -1.636   4.784  25.269  0.00  0.00    -0.271 NA
ATOM     22  C   UNL     1      -1.864   5.556  25.084  0.00  0.00    +0.090 C 
ATOM     23  C   UNL     1      -2.170   4.274  25.637  0.00  0.00    +0.074 C 
ATOM     24  C   UNL     1      -1.942   3.503  25.823  0.00  0.00    +0.035 C 
ENDBRANCH  17  18
ENDBRANCH  13  17
ENDBRANCH  12  13
ENDBRANCH  11  12
TORSDOF 6
ENDMDL
MODEL 4
REMARK VINA RESULT:      -9.4      1.414      5.161
REMARK  Name = 
REMARK  6 active torsions:
REMARK  status: ('A' for Active; 'I' for Inactive)
REMARK    1  A    between atoms: O_2  and  C_3
REMARK    2  A    between atoms: C_6  and  C_9
REMARK    3  A    between atoms: C_11  and  C_12
REMARK    4  A    between atoms: C_12  and  C_13
REMARK    5  A    between atoms: C_13  and  N_17
REMARK    6  A    between atoms: N_17  and  C_18
REMARK                            x       y       z     vdW  Elec       q    Type
REMARK                         _______ _______ _______ _____ _____    ______ ____
ROOT
ATOM      9  C   UNL     1      -3.161   2.881  24.488  0.00  0.00    +0.177 A 
ATOM     10  C   UNL     1      -3.137   2.059  24.545  0.00  0.00    +0.058 A 
ATOM     11  C   UNL     1      -3.864   1.764  24.292  0.00  0.00    +0.102 A 
ATOM     25  N   UNL     1      -4.339   2.404  24.077  0.00  0.00    -0.081 NA
ATOM     26  O   UNL     1      -3.903   3.095  24.198  0.00  0.00    -0.354 OA
ENDROOT
BRANCH   9   6
ATOM      3  C   UNL     1      -1.328   4.436  25.079  0.00  0.00    +0.139 A 
ATOM      4  C   UNL     1      -1.171   3.767  24.622  0.00  0.00    +0.037 A 
ATOM      5  C   UNL     1      -1.782   3.249  24.426  0.00  0.00    +0.006 A 
ATOM      6  C   UNL     1      -2.550   3.399  24.685  0.00  0.00    +0.037 A 
ATOM      7  C   UNL     1      -2.707   4.068  25.141  0.00  0.00    +0.006 A 
ATOM      8  C   UNL     1      -2.097   4.586  25.338  0.00  0.00    +0.037 A 
BRANCH   3   2
ATOM      1  C   UNL     1      -0.483   5.538  24.742  0.00  0.00    +0.252 C 
ATOM      2  O   UNL     1      -0.718   4.954  25.276  0.00  0.00    -0.471 OA
ENDBRANCH   3   2
ENDBRANCH   9   6
BRANCH  11  12
ATOM     12  C   UNL     1      -4.080   0.968  24.258  0.00  0.00    +0.070 C 
BRANCH  12  13
ATOM     13  C   UNL     1      -4.330   0.579  24.942  0.00  0.00    +0.119 C 
ATOM     14  C   UNL     1      -4.579   0.190  25.625  0.00  0.00    +0.161 C 
ATOM     15  O   UNL     1      -5.275   0.632  25.622  0.00  0.00    -0.351 OA
ATOM     16  C   UNL     1      -5.026   1.021  24.939  0.00  0.00    +0.161 C 
BRANCH  13  17
ATOM     17  N   UNL     1      -3.633   0.137  24.944  0.00  0.00    -0.217 NA
BRANCH  17  18
ATOM     18  C   UNL     1      -3.660  -0.675  24.799  0.00  0.00    +0.076 C 
ATOM     19  C   UNL     1      -3.953  -0.955  24.081  0.00  0.00    +0.035 C 
ATOM     20  C   UNL     1      -3.981  -1.767  23.935  0.00  0.00    +0.074 C 
ATOM     21  N   UNL     1      -3.713  -2.297  24.507  0.00  0.00    -0.271 NA
ATOM     22  C   UNL     1      -3.740  -3.109  24.360  0.00  0.00    +0.090 C 
ATOM     23  C   UNL     1      -3.419  -2.017  25.224  0.00  0.00    +0.074 C 
ATOM     24  C   UNL     1      -3.392  -1.206  25.371  0.00  0.00    +0.035 C 
ENDBRANCH  17  18
ENDBRANCH  13  17
ENDBRANCH  12  13
ENDBRANCH  11  12
TORSDOF 6
ENDMDL
