MODEL 1
REMARK VINA RESULT:      -8.5      0.000      0.000
REMARK  Name = 
REMARK  9 active torsions:
REMARK  status: ('A' for Active; 'I' for Inactive)
REMARK    1  A    between atoms: O_2  and  C_3
REMARK    2  A    between atoms: C_6  and  S_9
REMARK    3  A    between atoms: S_9  and  N_12
REMARK    4  A    between atoms: N_12  and  C_13
REMARK    5  A    between atoms: C_13  and  C_14
REMARK    6  A    between atoms: C_18  and  C_19
REMARK    7  A    between atoms: C_19  and  C_20
REMARK    8  A    between atoms: N_22  and  C_23
REMARK    9  A    between atoms: C_29  and  C_30
REMARK                            x       y       z     vdW  Elec       q    Type
REMARK                         _______ _______ _______ _____ _____    ______ ____
ROOT
ATOM     14  C   UNL     1      -1.746   0.621  23.860  0.00  0.00    +0.041 C 
ATOM     15  C   UNL     1      -1.974  -0.073  24.245  0.00  0.00    -0.033 C 
ATOM     16  C   UNL     1      -2.761  -0.181  24.467  0.00  0.00    -0.048 C 
ATOM     17  C   UNL     1      -2.989  -0.875  24.851  0.00  0.00    +0.026 C 
ATOM     18  C   UNL     1      -3.320   0.403  24.304  0.00  0.00    +0.027 C 
ATOM     28  C   UNL     1      -3.092   1.096  23.920  0.00  0.00    +0.005 C 
ATOM     29  C   UNL     1      -2.305   1.206  23.698  0.00  0.00    +0.006 C 
ENDROOT
BRANCH  29  30
ATOM     30  C   UNL     1      -2.077   1.898  23.314  0.00  0.00    +0.000 C 
ATOM     31  C   UNL     1      -1.762   2.527  23.746  0.00  0.00    +0.000 C 
ATOM     32  C   UNL     1      -2.164   1.964  22.496  0.00  0.00    +0.000 C 
ENDBRANCH  29  30
BRANCH  14  13
ATOM     13  C   UNL     1      -0.959   0.729  23.638  0.00  0.00    +0.120 C 
BRANCH  13  12
ATOM     12  N   UNL     1      -0.398   0.149  23.813  0.00  0.00    -0.077 NA
BRANCH  12   9
ATOM      9  S   UNL     1       0.367   0.212  23.512  0.00  0.00    +0.077 S 
ATOM     10  O   UNL     1       0.576   0.698  24.146  0.00  0.00    -0.152 OA
ATOM     11  O   UNL     1       0.159  -0.272  22.878  0.00  0.00    -0.152 OA
BRANCH   9   6
ATOM      3  C   UNL     1       2.665   0.406  22.613  0.00  0.00    +0.139 A 
ATOM      4  C   UNL     1       2.415   0.908  23.219  0.00  0.00    +0.038 A 
ATOM      5  C   UNL     1       1.649   0.843  23.518  0.00  0.00    +0.023 A 
ATOM      6  C   UNL     1       1.133   0.277  23.212  0.00  0.00    +0.124 A 
ATOM      7  C   UNL     1       1.383  -0.224  22.607  0.00  0.00    +0.023 A 
ATOM      8  C   UNL     1       2.149  -0.160  22.307  0.00  0.00    +0.038 A 
BRANCH   3   2
ATOM      1  C   UNL     1       4.017   0.843  22.760  0.00  0.00    +0.252 C 
ATOM      2  O   UNL     1       3.431   0.472  22.314  0.00  0.00    -0.471 OA
ENDBRANCH   3   2
ENDBRANCH   9   6
ENDBRANCH  12   9
ENDBRANCH  13  12
ENDBRANCH  14  13
BRANCH  18  19
ATOM     19  C   UNL     1      -4.107   0.294  24.527  0.00  0.00    +0.091 C 
BRANCH  19  20
ATOM     20  C   UNL     1      -4.486   0.859  24.994  0.00  0.00    +0.242 C 
ATOM     21  O   UNL     1      -4.228   0.997  25.766  0.00  0.00    -0.273 OA
ATOM     22  N   UNL     1      -5.122   1.287  24.690  0.00  0.00    -0.207 NA
BRANCH  22  23
ATOM     23  C   UNL     1      -5.501   1.852  25.157  0.00  0.00    +0.095 C 
ATOM     24  C   UNL     1      -6.057   1.699  25.747  0.00  0.00    +0.022 C 
ATOM     25  C   UNL     1      -6.290   2.421  26.071  0.00  0.00    +0.002 C 
ATOM     26  C   UNL     1      -5.877   3.020  25.680  0.00  0.00    +0.002 C 
ATOM     27  C   UNL     1      -5.390   2.668  25.116  0.00  0.00    +0.022 C 
ENDBRANCH  22  23
ENDBRANCH  19  20
ENDBRANCH  18  19
TORSDOF 9
ENDMDL
MODEL 2
REMARK VINA RESULT:      -8.4      3.167      4.936
REMARK  Name = 
REMARK  9 active torsions:
REMARK  status: ('A' for Active; 'I' for Inactive)
REMARK    1  A    between atoms: O_2  and  C_3
REMARK    2  A    between atoms: C_6  and  S_9
REMARK    3  A    between atoms: S_9  and  N_12
REMARK    4  A    between atoms: N_12  and  C_13
REMARK    5  A    between atoms: C_13  and  C_14
REMARK    6  A    between atoms: C_18  and  C_19
REMARK    7  A    between atoms: C_19  and  C_20
REMARK    8  A    between atoms: N_22  and  C_23
REMARK    9  A    between atoms: C_29  and  C_30
REMARK                            x       y       z     vdW  Elec       q    Type
REMARK                         _______ _______ _______ _____ _____    ______ ____
ROOT
ATOM     14  C   UNL     1      -3.886   1.611  24.387  0.00  0.00    +0.041 C 
ATOM     15  C   UNL     1      -4.339   1.906  25.011  0.00  0.00    -0.033 C 
ATOM     16  C   UNL     1      -4.287   2.703  25.217  0.00  0.00    -0.048 C 
ATOM     17  C   UNL     1      -4.740   2.998  25.841  0.00  0.00    +0.026 C 
ATOM     18  C   UNL     1      -3.783   3.205  24.799  0.00  0.00    +0.027 C 
ATOM     28  C   UNL     1      -3.331   2.910  24.176  0.00  0.00    +0.005 C 
ATOM     29  C   UNL     1      -3.382   2.113  23.970  0.00  0.00    +0.006 C 
ENDROOT
BRANCH  29  30
ATOM     30  C   UNL     1      -2.930   1.818  23.347  0.00  0.00    +0.000 C 
ATOM     31  C   UNL     1      -3.233   1.821  22.579  0.00  0.00    +0.000 C 
ATOM     32  C   UNL     1      -2.174   1.520  23.491  0.00  0.00    +0.000 C 
ENDBRANCH  29  30
BRANCH  14  13
ATOM     13  C   UNL     1      -3.938   0.814  24.182  0.00  0.00    +0.120 C 
BRANCH  13  12
ATOM     12  N   UNL     1      -4.293   0.277  24.699  0.00  0.00    -0.077 NA
BRANCH  12   9
ATOM      9  S   UNL     1      -4.146  -0.531  24.620  0.00  0.00    +0.077 S 
ATOM     10  O   UNL     1      -3.618  -0.496  25.253  0.00  0.00    -0.152 OA
ATOM     11  O   UNL     1      -4.673  -0.565  23.987  0.00  0.00    -0.152 OA
BRANCH   9   6
ATOM      3  C   UNL     1      -3.700  -2.954  24.385  0.00  0.00    +0.139 A 
ATOM      4  C   UNL     1      -3.399  -2.540  25.033  0.00  0.00    +0.038 A 
ATOM      5  C   UNL     1      -3.549  -1.732  25.110  0.00  0.00    +0.023 A 
ATOM      6  C   UNL     1      -3.997  -1.338  24.541  0.00  0.00    +0.124 A 
ATOM      7  C   UNL     1      -4.297  -1.752  23.894  0.00  0.00    +0.023 A 
ATOM      8  C   UNL     1      -4.149  -2.560  23.816  0.00  0.00    +0.038 A 
BRANCH   3   2
ATOM      1  C   UNL     1      -2.948  -4.022  23.809  0.00  0.00    +0.252 C 
ATOM      2  O   UNL     1      -3.551  -3.762  24.308  0.00  0.00    -0.471 OA
ENDBRANCH   3   2
ENDBRANCH   9   6
ENDBRANCH  12   9
ENDBRANCH  13  12
ENDBRANCH  14  13
BRANCH  18  19
ATOM     19  C   UNL     1      -3.732   4.003  25.006  0.00  0.00    +0.091 C 
BRANCH  19  20
ATOM     20  C   UNL     1      -3.051   4.432  24.827  0.00  0.00    +0.242 C 
ATOM     21  O   UNL     1      -2.997   4.844  24.114  0.00  0.00    -0.273 OA
ATOM     22  N   UNL     1      -2.422   4.450  25.361  0.00  0.00    -0.207 NA
BRANCH  22  23
ATOM     23  C   UNL     1      -1.740   4.879  25.182  0.00  0.00    +0.095 C 
ATOM     24  C   UNL     1      -0.988   4.563  25.054  0.00  0.00    +0.022 C 
ATOM     25  C   UNL     1      -0.475   5.188  24.893  0.00  0.00    +0.002 C 
ATOM     26  C   UNL     1      -0.909   5.889  24.920  0.00  0.00    +0.002 C 
ATOM     27  C   UNL     1      -1.691   5.698  25.099  0.00  0.00    +0.022 C 
ENDBRANCH  22  23
ENDBRANCH  19  20
ENDBRANCH  18  19
TORSDOF 9
ENDMDL
MODEL 3
REMARK VINA RESULT:      -8.2      2.891      4.496
REMARK  Name = 
REMARK  9 active torsions:
REMARK  status: ('A' for Active; 'I' for Inactive)
REMARK    1  A    between atoms: O_2  and  C_3
REMARK    2  A    between atoms: C_6  and  S_9
REMARK    3  A    between atoms: S_9  and  N_12
REMARK    4  A    between atoms: N_12  and  C_13
REMARK    5  A    between atoms: C_13  and  C_14
REMARK    6  A    between atoms: C_18  and  C_19
REMARK    7  A    between atoms: C_19  and  C_20
REMARK    8  A    between atoms: N_22  and  C_23
REMARK    9  A    between atoms: C_29  and  C_30
REMARK                            x       y       z     vdW  Elec       q    Type
REMARK                         _______ _______ _______ _____ _____    ______ ____
ROOT
ATOM     14  C   UNL     1      -0.780   0.572  25.071  0.00  0.00    +0.041 C 
ATOM     15  C   UNL     1      -1.040   0.255  25.788  0.00  0.00    -0.033 C 
ATOM     16  C   UNL     1      -1.237  -0.544  25.838  0.00  0.00    -0.048 C 
ATOM     17  C   UNL     1      -1.497  -0.860  26.555  0.00  0.00    +0.026 C 
ATOM     18  C   UNL     1      -1.174  -1.027  25.172  0.00  0.00    +0.027 C 
ATOM     28  C   UNL     1      -0.914  -0.711  24.457  0.00  0.00    +0.005 C 
ATOM     29  C   UNL     1      -0.717   0.088  24.405  0.00  0.00    +0.006 C 
ENDROOT
BRANCH  29  30
ATOM     30  C   UNL     1      -0.457   0.404  23.690  0.00  0.00    +0.000 C 
ATOM     31  C   UNL     1      -1.001   0.720  23.155  0.00  0.00    +0.000 C 
ATOM     32  C   UNL     1       0.348   0.406  23.508  0.00  0.00    +0.000 C 
ENDBRANCH  29  30
BRANCH  14  13
ATOM     13  C   UNL     1      -0.583   1.371  25.021  0.00  0.00    +0.120 C 
BRANCH  13  12
ATOM     12  N   UNL     1      -0.740   1.875  25.656  0.00  0.00    -0.077 NA
BRANCH  12   9
ATOM      9  S   UNL     1      -0.863   2.679  25.523  0.00  0.00    +0.077 S 
ATOM     10  O   UNL     1      -1.675   2.544  25.459  0.00  0.00    -0.152 OA
ATOM     11  O   UNL     1      -0.053   2.815  25.587  0.00  0.00    -0.152 OA
BRANCH   9   6
ATOM      3  C   UNL     1      -1.239   5.093  25.123  0.00  0.00    +0.139 A 
ATOM      4  C   UNL     1      -1.795   4.653  25.547  0.00  0.00    +0.038 A 
ATOM      5  C   UNL     1      -1.669   3.849  25.679  0.00  0.00    +0.023 A 
ATOM      6  C   UNL     1      -0.988   3.484  25.389  0.00  0.00    +0.124 A 
ATOM      7  C   UNL     1      -0.433   3.924  24.967  0.00  0.00    +0.023 A 
ATOM      8  C   UNL     1      -0.558   4.728  24.833  0.00  0.00    +0.038 A 
BRANCH   3   2
ATOM      1  C   UNL     1      -2.134   6.189  24.930  0.00  0.00    +0.252 C 
ATOM      2  O   UNL     1      -1.365   5.898  24.991  0.00  0.00    -0.471 OA
ENDBRANCH   3   2
ENDBRANCH   9   6
ENDBRANCH  12   9
ENDBRANCH  13  12
ENDBRANCH  14  13
BRANCH  18  19
ATOM     19  C   UNL     1      -1.371  -1.827  25.224  0.00  0.00    +0.091 C 
BRANCH  19  20
ATOM     20  C   UNL     1      -1.974  -2.134  24.751  0.00  0.00    +0.242 C 
ATOM     21  O   UNL     1      -1.790  -2.507  24.038  0.00  0.00    -0.273 OA
ATOM     22  N   UNL     1      -2.760  -2.068  24.990  0.00  0.00    -0.207 NA
BRANCH  22  23
ATOM     23  C   UNL     1      -3.363  -2.375  24.518  0.00  0.00    +0.095 C 
ATOM     24  C   UNL     1      -3.894  -1.936  24.063  0.00  0.00    +0.022 C 
ATOM     25  C   UNL     1      -4.399  -2.464  23.681  0.00  0.00    +0.002 C 
ATOM     26  C   UNL     1      -4.181  -3.229  23.900  0.00  0.00    +0.002 C 
ATOM     27  C   UNL     1      -3.541  -3.174  24.417  0.00  0.00    +0.022 C 
ENDBRANCH  22  23
ENDBRANCH  19  20
ENDBRANCH  18  19
TORSDOF 9
ENDMDL
MODEL 4
REMARK VINA RESULT:      -7.5      1.524      6.330
REMARK  Name = 
REMARK  9 active torsions:
REMARK  status: ('A' for Active; 'I' for Inactive)
REMARK    1  A    between atoms: O_2  and  C_3
REMARK    2  A    between atoms: C_6  and  S_9
REMARK    3  A    between atoms: S_9  and  N_12
REMARK    4  A    between atoms: N_12  and  C_13
REMARK    5  A    between atoms: C_13  and  C_14
REMARK    6  A    between atoms: C_18  and  C_19
REMARK    7  A    between atoms: C_19  and  C_20
REMARK    8  A    between atoms: N_22  and  C_23
REMARK    9  A    between atoms: C_29  and  C_30
REMARK                            x       y       z     vdW  Elec       q    Type
REMARK                         _______ _______ _______ _____ _____    ______ ____
ROOT
ATOM     14  C   UNL     1      -1.417   1.054  24.396  0.00  0.00    +0.041 C 
ATOM     15  C   UNL     1      -1.551   0.264  24.197  0.00  0.00    -0.033 C 
ATOM     16  C   UNL     1      -0.917  -0.221  23.991  0.00  0.00    -0.048 C 
ATOM     17  C   UNL     1      -1.050  -1.012  23.792  0.00  0.00    +0.026 C 
ATOM     18  C   UNL     1      -0.150   0.082  23.983  0.00  0.00    +0.027 C 
ATOM     28  C   UNL     1      -0.017   0.871  24.182  0.00  0.00    +0.005 C 
ATOM     29  C   UNL     1      -0.650   1.358  24.388  0.00  0.00    +0.006 C 
ENDROOT
BRANCH  29  30
ATOM     30  C   UNL     1      -0.517   2.147  24.587  0.00  0.00    +0.000 C 
ATOM     31  C   UNL     1      -0.360   2.355  25.370  0.00  0.00    +0.000 C 
ATOM     32  C   UNL     1      -0.541   2.729  24.003  0.00  0.00    +0.000 C 
ENDBRANCH  29  30
BRANCH  14  13
ATOM     13  C   UNL     1      -2.051   1.540  24.602  0.00  0.00    +0.120 C 
BRANCH  13  12
ATOM     12  N   UNL     1      -2.826   1.282  24.477  0.00  0.00    -0.077 NA
BRANCH  12   9
ATOM      9  S   UNL     1      -3.460   1.749  24.722  0.00  0.00    +0.077 S 
ATOM     10  O   UNL     1      -3.383   1.452  25.489  0.00  0.00    -0.152 OA
ATOM     11  O   UNL     1      -3.537   2.046  23.957  0.00  0.00    -0.152 OA
BRANCH   9   6
ATOM      3  C   UNL     1      -5.362   3.150  25.460  0.00  0.00    +0.139 A 
ATOM      4  C   UNL     1      -4.616   3.489  25.353  0.00  0.00    +0.038 A 
ATOM      5  C   UNL     1      -3.983   3.021  25.107  0.00  0.00    +0.023 A 
ATOM      6  C   UNL     1      -4.094   2.216  24.968  0.00  0.00    +0.124 A 
ATOM      7  C   UNL     1      -4.839   1.878  25.075  0.00  0.00    +0.023 A 
ATOM      8  C   UNL     1      -5.473   2.345  25.321  0.00  0.00    +0.038 A 
BRANCH   3   2
ATOM      1  C   UNL     1      -5.955   4.439  25.630  0.00  0.00    +0.252 C 
ATOM      2  O   UNL     1      -5.995   3.618  25.706  0.00  0.00    -0.471 OA
ENDBRANCH   3   2
ENDBRANCH   9   6
ENDBRANCH  12   9
ENDBRANCH  13  12
ENDBRANCH  14  13
BRANCH  18  19
ATOM     19  C   UNL     1       0.484  -0.405  23.777  0.00  0.00    +0.091 C 
BRANCH  19  20
ATOM     20  C   UNL     1       1.061  -0.130  23.255  0.00  0.00    +0.242 C 
ATOM     21  O   UNL     1       0.845   0.150  22.509  0.00  0.00    -0.273 OA
ATOM     22  N   UNL     1       1.855  -0.135  23.478  0.00  0.00    -0.207 NA
BRANCH  22  23
ATOM     23  C   UNL     1       2.433   0.139  22.957  0.00  0.00    +0.095 C 
ATOM     24  C   UNL     1       2.952   0.766  23.095  0.00  0.00    +0.022 C 
ATOM     25  C   UNL     1       3.432   0.849  22.430  0.00  0.00    +0.002 C 
ATOM     26  C   UNL     1       3.210   0.274  21.881  0.00  0.00    +0.002 C 
ATOM     27  C   UNL     1       2.593  -0.164  22.207  0.00  0.00    +0.022 C 
ENDBRANCH  22  23
ENDBRANCH  19  20
ENDBRANCH  18  19
TORSDOF 9
ENDMDL
