MODEL 1
REMARK VINA RESULT:     -10.2      0.000      0.000
REMARK  Name = 
REMARK  4 active torsions:
REMARK  status: ('A' for Active; 'I' for Inactive)
REMARK    1  A    between atoms: C_2  and  N_4
REMARK    2  A    between atoms: N_7  and  C_8
REMARK    3  A    between atoms: C_11  and  C_14
REMARK    4  A    between atoms: C_21  and  C_22
REMARK                            x       y       z     vdW  Elec       q    Type
REMARK                         _______ _______ _______ _____ _____    ______ ____
ROOT
ATOM      8  C   UNL     1      -3.771   1.742  24.383  0.00  0.00    +0.075 A 
ATOM      9  C   UNL     1      -3.337   1.359  23.795  0.00  0.00    +0.016 A 
ATOM     10  C   UNL     1      -3.330   0.535  23.756  0.00  0.00    -0.001 A 
ATOM     11  C   UNL     1      -3.759   0.093  24.307  0.00  0.00    +0.006 A 
ATOM     12  C   UNL     1      -4.193   0.475  24.894  0.00  0.00    -0.001 A 
ATOM     13  C   UNL     1      -4.199   1.299  24.934  0.00  0.00    +0.016 A 
ENDROOT
BRANCH  11  14
ATOM     14  C   UNL     1      -3.753  -0.731  24.267  0.00  0.00    +0.159 C 
ATOM     15  O   UNL     1      -4.383  -1.133  23.919  0.00  0.00    -0.341 OA
ATOM     16  C   UNL     1      -4.376  -1.957  23.880  0.00  0.00    +0.227 C 
ATOM     17  C   UNL     1      -3.739  -2.379  24.189  0.00  0.00    +0.256 C 
ATOM     18  O   UNL     1      -3.731  -3.203  24.151  0.00  0.00    -0.272 OA
ATOM     19  N   UNL     1      -3.107  -1.977  24.538  0.00  0.00    -0.272 N 
ATOM     20  C   UNL     1      -2.470  -2.399  24.847  0.00  0.00    +0.115 C 
ATOM     21  C   UNL     1      -3.115  -1.153  24.577  0.00  0.00    +0.140 C 
BRANCH  21  22
ATOM     22  C   UNL     1      -2.483  -0.751  24.925  0.00  0.00    +0.205 C 
ATOM     23  O   UNL     1      -2.063  -1.101  25.543  0.00  0.00    -0.218 OA
ENDBRANCH  21  22
ENDBRANCH  11  14
BRANCH   8   7
ATOM      4  N   UNL     1      -3.238   3.784  24.938  0.00  0.00    -0.189 NA
ATOM      5  C   UNL     1      -3.232   2.961  24.900  0.00  0.00    +0.343 C 
ATOM      6  O   UNL     1      -2.680   2.531  25.339  0.00  0.00    -0.249 OA
ATOM      7  N   UNL     1      -3.777   2.565  24.422  0.00  0.00    -0.161 NA
BRANCH   4   2
ATOM      1  C   UNL     1      -2.855   4.297  26.216  0.00  0.00    +0.023 C 
ATOM      2  C   UNL     1      -2.694   4.178  25.415  0.00  0.00    +0.097 C 
ATOM      3  C   UNL     1      -1.986   4.455  25.092  0.00  0.00    +0.023 C 
ENDBRANCH   4   2
ENDBRANCH   8   7
TORSDOF 4
ENDMDL
MODEL 2
REMARK VINA RESULT:      -9.3      1.174      4.777
REMARK  Name = 
REMARK  4 active torsions:
REMARK  status: ('A' for Active; 'I' for Inactive)
REMARK    1  A    between atoms: C_2  and  N_4
REMARK    2  A    between atoms: N_7  and  C_8
REMARK    3  A    between atoms: C_11  and  C_14
REMARK    4  A    between atoms: C_21  and  C_22
REMARK                            x       y       z     vdW  Elec       q    Type
REMARK                         _______ _______ _______ _____ _____    ______ ____
ROOT
ATOM      8  C   UNL     1      -3.856   0.485  24.302  0.00  0.00    +0.075 A 
ATOM      9  C   UNL     1      -3.360   0.837  23.744  0.00  0.00    +0.016 A 
ATOM     10  C   UNL     1      -3.022   1.573  23.898  0.00  0.00    -0.001 A 
ATOM     11  C   UNL     1      -3.180   1.959  24.612  0.00  0.00    +0.006 A 
ATOM     12  C   UNL     1      -3.675   1.607  25.169  0.00  0.00    -0.001 A 
ATOM     13  C   UNL     1      -4.014   0.871  25.015  0.00  0.00    +0.016 A 
ENDROOT
BRANCH  11  14
ATOM     14  C   UNL     1      -2.841   2.695  24.766  0.00  0.00    +0.159 C 
ATOM     15  O   UNL     1      -3.279   3.384  24.649  0.00  0.00    -0.341 OA
ATOM     16  C   UNL     1      -2.941   4.120  24.803  0.00  0.00    +0.227 C 
ATOM     17  C   UNL     1      -2.163   4.168  25.074  0.00  0.00    +0.256 C 
ATOM     18  O   UNL     1      -1.823   4.903  25.228  0.00  0.00    -0.272 OA
ATOM     19  N   UNL     1      -1.724   3.478  25.191  0.00  0.00    -0.272 N 
ATOM     20  C   UNL     1      -0.947   3.525  25.461  0.00  0.00    +0.115 C 
ATOM     21  C   UNL     1      -2.063   2.743  25.037  0.00  0.00    +0.140 C 
BRANCH  21  22
ATOM     22  C   UNL     1      -1.624   2.053  25.154  0.00  0.00    +0.205 C 
ATOM     23  O   UNL     1      -1.019   2.041  25.714  0.00  0.00    -0.218 OA
ENDBRANCH  21  22
ENDBRANCH  11  14
BRANCH   8   7
ATOM      4  N   UNL     1      -4.127  -1.677  24.193  0.00  0.00    -0.189 NA
ATOM      5  C   UNL     1      -3.789  -0.941  24.347  0.00  0.00    +0.343 C 
ATOM      6  O   UNL     1      -3.045  -0.895  24.701  0.00  0.00    -0.249 OA
ATOM      7  N   UNL     1      -4.194  -0.251  24.148  0.00  0.00    -0.161 NA
BRANCH   4   2
ATOM      1  C   UNL     1      -3.604  -2.562  25.185  0.00  0.00    +0.023 C 
ATOM      2  C   UNL     1      -3.722  -2.367  24.392  0.00  0.00    +0.097 C 
ATOM      3  C   UNL     1      -3.435  -2.864  23.797  0.00  0.00    +0.023 C 
ENDBRANCH   4   2
ENDBRANCH   8   7
TORSDOF 4
ENDMDL
MODEL 3
REMARK VINA RESULT:      -8.8      1.460      4.596
REMARK  Name = 
REMARK  4 active torsions:
REMARK  status: ('A' for Active; 'I' for Inactive)
REMARK    1  A    between atoms: C_2  and  N_4
REMARK    2  A    between atoms: N_7  and  C_8
REMARK    3  A    between atoms: C_11  and  C_14
REMARK    4  A    between atoms: C_21  and  C_22
REMARK                            x       y       z     vdW  Elec       q    Type
REMARK                         _______ _______ _______ _____ _____    ______ ____
ROOT
ATOM      8  C   UNL     1      -3.731  -0.333  24.497  0.00  0.00    +0.075 A 
ATOM      9  C   UNL     1      -4.053  -0.220  25.248  0.00  0.00    +0.016 A 
ATOM     10  C   UNL     1      -4.399   0.502  25.445  0.00  0.00    -0.001 A 
ATOM     11  C   UNL     1      -4.422   1.113  24.891  0.00  0.00    +0.006 A 
ATOM     12  C   UNL     1      -4.100   1.002  24.140  0.00  0.00    -0.001 A 
ATOM     13  C   UNL     1      -3.754   0.279  23.942  0.00  0.00    +0.016 A 
ENDROOT
BRANCH  11  14
ATOM     14  C   UNL     1      -4.768   1.836  25.089  0.00  0.00    +0.159 C 
ATOM     15  O   UNL     1      -5.585   1.891  25.182  0.00  0.00    -0.341 OA
ATOM     16  C   UNL     1      -5.931   2.613  25.380  0.00  0.00    +0.227 C 
ATOM     17  C   UNL     1      -5.458   3.281  25.485  0.00  0.00    +0.256 C 
ATOM     18  O   UNL     1      -5.803   4.004  25.683  0.00  0.00    -0.272 OA
ATOM     19  N   UNL     1      -4.640   3.227  25.391  0.00  0.00    -0.272 N 
ATOM     20  C   UNL     1      -4.168   3.894  25.496  0.00  0.00    +0.115 C 
ATOM     21  C   UNL     1      -4.295   2.504  25.194  0.00  0.00    +0.140 C 
BRANCH  21  22
ATOM     22  C   UNL     1      -3.477   2.449  25.100  0.00  0.00    +0.205 C 
ATOM     23  O   UNL     1      -2.982   2.985  25.486  0.00  0.00    -0.218 OA
ENDBRANCH  21  22
ENDBRANCH  11  14
BRANCH   8   7
ATOM      4  N   UNL     1      -2.264  -1.939  24.329  0.00  0.00    -0.189 NA
ATOM      5  C   UNL     1      -2.609  -1.217  24.527  0.00  0.00    +0.343 C 
ATOM      6  O   UNL     1      -2.178  -0.656  24.952  0.00  0.00    -0.249 OA
ATOM      7  N   UNL     1      -3.385  -1.055  24.299  0.00  0.00    -0.161 NA
BRANCH   4   2
ATOM      1  C   UNL     1      -1.340  -2.600  25.197  0.00  0.00    +0.023 C 
ATOM      2  C   UNL     1      -1.488  -2.101  24.556  0.00  0.00    +0.097 C 
ATOM      3  C   UNL     1      -0.858  -1.764  24.143  0.00  0.00    +0.023 C 
ENDBRANCH   4   2
ENDBRANCH   8   7
TORSDOF 4
ENDMDL
