MODEL 1
REMARK VINA RESULT:     -14.1      0.000      0.000
REMARK  Name = 
REMARK  5 active torsions:
REMARK  status: ('A' for Active; 'I' for Inactive)
REMARK    1  A    between atoms: C_2  and  C_5
REMARK    2  A    between atoms: C_5  and  C_6
REMARK    3  A    between atoms: C_17  and  N_18
REMARK    4  A    between atoms: C_19  and  C_21
REMARK    5  A    between atoms: C_24  and  C_27
REMARK                            x       y       z     vdW  Elec       q    Type
REMARK                         _______ _______ _______ _____ _____    ______ ____
ROOT
ATOM      6  C   UNL     1      -0.723   2.798  24.689  0.00  0.00    +0.226 C 
ATOM      7  O   UNL     1       0.013   2.476  24.504  0.00  0.00    -0.275 OA
ATOM      8  N   UNL     1      -0.793   3.605  24.847  0.00  0.00    -0.279 N 
ATOM      9  C   UNL     1      -0.562   4.401  24.951  0.00  0.00    +0.095 C 
ATOM     10  C   UNL     1      -1.438   4.799  25.174  0.00  0.00    +0.043 C 
ATOM     11  C   UNL     1      -2.072   5.273  25.369  0.00  0.00    +0.011 C 
ATOM     12  C   UNL     1      -1.955   4.595  25.227  0.00  0.00    +0.058 C 
ATOM     13  C   UNL     1      -1.101   4.225  25.012  0.00  0.00    +0.099 C 
ATOM     14  C   UNL     1      -2.388   3.788  25.155  0.00  0.00    +0.041 A 
ATOM     15  C   UNL     1      -3.140   3.457  25.225  0.00  0.00    +0.014 A 
ATOM     16  C   UNL     1      -3.248   2.649  25.098  0.00  0.00    +0.023 A 
ATOM     17  C   UNL     1      -2.604   2.173  24.900  0.00  0.00    +0.130 A 
ATOM     29  C   UNL     1      -1.852   2.504  24.830  0.00  0.00    +0.276 A 
ATOM     30  O   UNL     1      -1.623   1.732  24.651  0.00  0.00    -0.266 OA
ATOM     31  N   UNL     1      -1.744   3.312  24.958  0.00  0.00    -0.298 N 
ATOM     32  C   UNL     1      -1.882   3.952  25.098  0.00  0.00    +0.110 C 
ENDROOT
BRANCH  17  18
ATOM     18  N   UNL     1      -2.712   1.365  24.773  0.00  0.00    -0.171 NA
ATOM     19  C   UNL     1      -3.464   1.033  24.844  0.00  0.00    +0.269 C 
ATOM     20  O   UNL     1      -4.108   1.510  25.042  0.00  0.00    -0.268 OA
BRANCH  19  21
ATOM     21  C   UNL     1      -3.572   0.225  24.716  0.00  0.00    +0.055 A 
ATOM     22  C   UNL     1      -3.489  -0.306  25.343  0.00  0.00    +0.005 A 
ATOM     23  C   UNL     1      -3.598  -1.114  25.215  0.00  0.00    +0.010 A 
ATOM     24  C   UNL     1      -3.789  -1.391  24.461  0.00  0.00    +0.068 A 
ATOM     25  C   UNL     1      -3.871  -0.860  23.836  0.00  0.00    +0.010 A 
ATOM     26  C   UNL     1      -3.763  -0.052  23.963  0.00  0.00    +0.005 A 
BRANCH  24  27
ATOM     27  C   UNL     1      -3.897  -2.198  24.334  0.00  0.00    +0.100 C 
ATOM     28  N   UNL     1      -4.005  -3.006  24.207  0.00  0.00    -0.191 NA
ENDBRANCH  24  27
ENDBRANCH  19  21
ENDBRANCH  17  18
BRANCH   6   5
ATOM      5  C   UNL     1      -1.391   2.313  24.716  0.00  0.00    +0.085 C 
BRANCH   5   2
ATOM      1  C   UNL     1      -1.252   0.700  24.396  0.00  0.00    +0.000 C 
ATOM      2  C   UNL     1      -1.322   1.507  24.556  0.00  0.00    +0.009 C 
ATOM      3  C   UNL     1      -1.466   1.652  23.757  0.00  0.00    +0.000 C 
ATOM      4  C   UNL     1      -1.177   1.361  25.356  0.00  0.00    +0.000 C 
ENDBRANCH   5   2
ENDBRANCH   6   5
TORSDOF 5
ENDMDL
MODEL 2
REMARK VINA RESULT:     -13.7      1.246      4.756
REMARK  Name = 
REMARK  5 active torsions:
REMARK  status: ('A' for Active; 'I' for Inactive)
REMARK    1  A    between atoms: C_2  and  C_5
REMARK    2  A    between atoms: C_5  and  C_6
REMARK    3  A    between atoms: C_17  and  N_18
REMARK    4  A    between atoms: C_19  and  C_21
REMARK    5  A    between atoms: C_24  and  C_27
REMARK                            x       y       z     vdW  Elec       q    Type
REMARK                         _______ _______ _______ _____ _____    ______ ____
ROOT
ATOM      6  C   UNL     1      -1.569  -1.297  24.835  0.00  0.00    +0.226 C 
ATOM      7  O   UNL     1      -0.769  -1.409  25.001  0.00  0.00    -0.275 OA
ATOM      8  N   UNL     1      -2.056  -1.948  24.696  0.00  0.00    -0.279 N 
ATOM      9  C   UNL     1      -2.282  -2.748  24.606  0.00  0.00    +0.095 C 
ATOM     10  C   UNL     1      -3.242  -2.627  24.405  0.00  0.00    +0.043 C 
ATOM     11  C   UNL     1      -4.034  -2.698  24.231  0.00  0.00    +0.011 C 
ATOM     12  C   UNL     1      -3.575  -2.183  24.357  0.00  0.00    +0.058 C 
ATOM     13  C   UNL     1      -2.649  -2.315  24.549  0.00  0.00    +0.099 C 
ATOM     14  C   UNL     1      -3.517  -1.268  24.417  0.00  0.00    +0.041 A 
ATOM     15  C   UNL     1      -3.983  -0.591  24.352  0.00  0.00    +0.014 A 
ATOM     16  C   UNL     1      -3.646   0.154  24.463  0.00  0.00    +0.023 A 
ATOM     17  C   UNL     1      -2.843   0.222  24.640  0.00  0.00    +0.130 A 
ATOM     29  C   UNL     1      -2.377  -0.455  24.705  0.00  0.00    +0.276 A 
ATOM     30  O   UNL     1      -1.772   0.082  24.863  0.00  0.00    -0.266 OA
ATOM     31  N   UNL     1      -2.713  -1.200  24.594  0.00  0.00    -0.298 N 
ATOM     32  C   UNL     1      -3.171  -1.672  24.470  0.00  0.00    +0.110 C 
ENDROOT
BRANCH  17  18
ATOM     18  N   UNL     1      -2.508   0.967  24.751  0.00  0.00    -0.171 NA
ATOM     19  C   UNL     1      -2.972   1.644  24.678  0.00  0.00    +0.269 C 
ATOM     20  O   UNL     1      -3.774   1.577  24.494  0.00  0.00    -0.268 OA
BRANCH  19  21
ATOM     21  C   UNL     1      -2.636   2.390  24.790  0.00  0.00    +0.055 A 
ATOM     22  C   UNL     1      -2.284   2.782  24.155  0.00  0.00    +0.005 A 
ATOM     23  C   UNL     1      -1.947   3.528  24.266  0.00  0.00    +0.010 A 
ATOM     24  C   UNL     1      -1.963   3.880  25.013  0.00  0.00    +0.068 A 
ATOM     25  C   UNL     1      -2.315   3.488  25.646  0.00  0.00    +0.010 A 
ATOM     26  C   UNL     1      -2.652   2.743  25.535  0.00  0.00    +0.005 A 
BRANCH  24  27
ATOM     27  C   UNL     1      -1.627   4.625  25.124  0.00  0.00    +0.100 C 
ATOM     28  N   UNL     1      -1.290   5.370  25.235  0.00  0.00    -0.191 NA
ENDBRANCH  24  27
ENDBRANCH  19  21
ENDBRANCH  17  18
BRANCH   6   5
ATOM      5  C   UNL     1      -1.882  -0.534  24.808  0.00  0.00    +0.085 C 
BRANCH   5   2
ATOM      1  C   UNL     1      -0.912   0.766  25.113  0.00  0.00    +0.000 C 
ATOM      2  C   UNL     1      -1.397   0.116  24.960  0.00  0.00    +0.009 C 
ATOM      3  C   UNL     1      -1.218   0.172  24.157  0.00  0.00    +0.000 C 
ATOM      4  C   UNL     1      -1.576   0.060  25.764  0.00  0.00    +0.000 C 
ENDBRANCH   5   2
ENDBRANCH   6   5
TORSDOF 5
ENDMDL
MODEL 3
REMARK VINA RESULT:     -13.6      1.103      4.987
REMARK  Name = 
REMARK  5 active torsions:
REMARK  status: ('A' for Active; 'I' for Inactive)
REMARK    1  A    between atoms: C_2  and  C_5
REMARK    2  A    between atoms: C_5  and  C_6
REMARK    3  A    between atoms: C_17  and  N_18
REMARK    4  A    between atoms: C_19  and  C_21
REMARK    5  A    between atoms: C_24  and  C_27
REMARK                            x       y       z     vdW  Elec       q    Type
REMARK                         _______ _______ _______ _____ _____    ______ ____
ROOT
ATOM      6  C   UNL     1      -4.116  -0.389  24.188  0.00  0.00    +0.226 C 
ATOM      7  O   UNL     1      -4.813  -0.070  23.886  0.00  0.00    -0.275 OA
ATOM      8  N   UNL     1      -4.036  -1.207  24.265  0.00  0.00    -0.279 N 
ATOM      9  C   UNL     1      -4.238  -2.016  24.226  0.00  0.00    +0.095 C 
ATOM     10  C   UNL     1      -3.407  -2.412  24.587  0.00  0.00    +0.043 C 
ATOM     11  C   UNL     1      -2.803  -2.886  24.860  0.00  0.00    +0.011 C 
ATOM     12  C   UNL     1      -2.926  -2.200  24.772  0.00  0.00    +0.058 C 
ATOM     13  C   UNL     1      -3.735  -1.833  24.422  0.00  0.00    +0.099 C 
ATOM     14  C   UNL     1      -2.533  -1.377  24.888  0.00  0.00    +0.041 A 
ATOM     15  C   UNL     1      -1.833  -1.034  25.156  0.00  0.00    +0.014 A 
ATOM     16  C   UNL     1      -1.747  -0.213  25.147  0.00  0.00    +0.023 A 
ATOM     17  C   UNL     1      -2.361   0.263  24.870  0.00  0.00    +0.130 A 
ATOM     29  C   UNL     1      -3.061  -0.080  24.603  0.00  0.00    +0.276 A 
ATOM     30  O   UNL     1      -3.290   0.700  24.467  0.00  0.00    -0.266 OA
ATOM     31  N   UNL     1      -3.147  -0.900  24.612  0.00  0.00    -0.298 N 
ATOM     32  C   UNL     1      -3.006  -1.548  24.705  0.00  0.00    +0.110 C 
ENDROOT
BRANCH  17  18
ATOM     18  N   UNL     1      -2.273   1.083  24.861  0.00  0.00    -0.171 NA
ATOM     19  C   UNL     1      -1.574   1.427  25.132  0.00  0.00    +0.269 C 
ATOM     20  O   UNL     1      -0.961   0.951  25.412  0.00  0.00    -0.268 OA
BRANCH  19  21
ATOM     21  C   UNL     1      -1.487   2.248  25.123  0.00  0.00    +0.055 A 
ATOM     22  C   UNL     1      -1.158   2.620  24.464  0.00  0.00    +0.005 A 
ATOM     23  C   UNL     1      -1.071   3.442  24.456  0.00  0.00    +0.010 A 
ATOM     24  C   UNL     1      -1.314   3.889  25.105  0.00  0.00    +0.068 A 
ATOM     25  C   UNL     1      -1.643   3.516  25.763  0.00  0.00    +0.010 A 
ATOM     26  C   UNL     1      -1.730   2.696  25.772  0.00  0.00    +0.005 A 
BRANCH  24  27
ATOM     27  C   UNL     1      -1.227   4.709  25.096  0.00  0.00    +0.100 C 
ATOM     28  N   UNL     1      -1.140   5.529  25.087  0.00  0.00    -0.191 NA
ENDBRANCH  24  27
ENDBRANCH  19  21
ENDBRANCH  17  18
BRANCH   6   5
ATOM      5  C   UNL     1      -3.497   0.109  24.414  0.00  0.00    +0.085 C 
BRANCH   5   2
ATOM      1  C   UNL     1      -3.656   1.744  24.254  0.00  0.00    +0.000 C 
ATOM      2  C   UNL     1      -3.576   0.926  24.334  0.00  0.00    +0.009 C 
ATOM      3  C   UNL     1      -3.250   0.885  23.577  0.00  0.00    +0.000 C 
ATOM      4  C   UNL     1      -3.903   0.968  25.090  0.00  0.00    +0.000 C 
ENDBRANCH   5   2
ENDBRANCH   6   5
TORSDOF 5
ENDMDL
MODEL 4
REMARK VINA RESULT:     -13.1      0.973      1.777
REMARK  Name = 
REMARK  5 active torsions:
REMARK  status: ('A' for Active; 'I' for Inactive)
REMARK    1  A    between atoms: C_2  and  C_5
REMARK    2  A    between atoms: C_5  and  C_6
REMARK    3  A    between atoms: C_17  and  N_18
REMARK    4  A    between atoms: C_19  and  C_21
REMARK    5  A    between atoms: C_24  and  C_27
REMARK                            x       y       z     vdW  Elec       q    Type
REMARK                         _______ _______ _______ _____ _____    ______ ____
ROOT
ATOM      6  C   UNL     1      -3.405   3.339  24.665  0.00  0.00    +0.226 C 
ATOM      7  O   UNL     1      -4.185   3.461  24.428  0.00  0.00    -0.275 OA
ATOM      8  N   UNL     1      -2.911   3.984  24.806  0.00  0.00    -0.279 N 
ATOM      9  C   UNL     1      -2.669   4.782  24.869  0.00  0.00    +0.095 C 
ATOM     10  C   UNL     1      -1.732   4.649  25.153  0.00  0.00    +0.043 C 
ATOM     11  C   UNL     1      -0.954   4.709  25.386  0.00  0.00    +0.011 C 
ATOM     12  C   UNL     1      -1.417   4.199  25.253  0.00  0.00    +0.058 C 
ATOM     13  C   UNL     1      -2.321   4.344  24.979  0.00  0.00    +0.099 C 
ATOM     14  C   UNL     1      -1.498   3.284  25.239  0.00  0.00    +0.041 A 
ATOM     15  C   UNL     1      -1.058   2.600  25.379  0.00  0.00    +0.014 A 
ATOM     16  C   UNL     1      -1.407   1.859  25.283  0.00  0.00    +0.023 A 
ATOM     17  C   UNL     1      -2.196   1.801  25.046  0.00  0.00    +0.130 A 
ATOM     29  C   UNL     1      -2.635   2.485  24.906  0.00  0.00    +0.276 A 
ATOM     30  O   UNL     1      -3.242   1.955  24.730  0.00  0.00    -0.266 OA
ATOM     31  N   UNL     1      -2.286   3.226  25.002  0.00  0.00    -0.298 N 
ATOM     32  C   UNL     1      -1.826   3.693  25.136  0.00  0.00    +0.110 C 
ENDROOT
BRANCH  17  18
ATOM     18  N   UNL     1      -2.544   1.060  24.950  0.00  0.00    -0.171 NA
ATOM     19  C   UNL     1      -2.118   0.377  25.131  0.00  0.00    +0.269 C 
ATOM     20  O   UNL     1      -1.342   0.436  25.407  0.00  0.00    -0.268 OA
BRANCH  19  21
ATOM     21  C   UNL     1      -2.467  -0.365  25.034  0.00  0.00    +0.055 A 
ATOM     22  C   UNL     1      -2.881  -0.709  25.659  0.00  0.00    +0.005 A 
ATOM     23  C   UNL     1      -3.230  -1.451  25.562  0.00  0.00    +0.010 A 
ATOM     24  C   UNL     1      -3.164  -1.847  24.841  0.00  0.00    +0.068 A 
ATOM     25  C   UNL     1      -2.749  -1.502  24.218  0.00  0.00    +0.010 A 
ATOM     26  C   UNL     1      -2.401  -0.761  24.314  0.00  0.00    +0.005 A 
BRANCH  24  27
ATOM     27  C   UNL     1      -3.512  -2.589  24.745  0.00  0.00    +0.100 C 
ATOM     28  N   UNL     1      -3.861  -3.330  24.649  0.00  0.00    -0.191 NA
ENDBRANCH  24  27
ENDBRANCH  19  21
ENDBRANCH  17  18
BRANCH   6   5
ATOM      5  C   UNL     1      -3.118   2.570  24.760  0.00  0.00    +0.085 C 
BRANCH   5   2
ATOM      1  C   UNL     1      -4.087   1.280  24.413  0.00  0.00    +0.000 C 
ATOM      2  C   UNL     1      -3.602   1.926  24.586  0.00  0.00    +0.009 C 
ATOM      3  C   UNL     1      -3.320   1.921  23.811  0.00  0.00    +0.000 C 
ATOM      4  C   UNL     1      -3.884   1.930  25.362  0.00  0.00    +0.000 C 
ENDBRANCH   5   2
ENDBRANCH   6   5
TORSDOF 5
ENDMDL
MODEL 5
REMARK VINA RESULT:     -12.8      1.480      2.025
REMARK  Name = 
REMARK  5 active torsions:
REMARK  status: ('A' for Active; 'I' for Inactive)
REMARK    1  A    between atoms: C_2  and  C_5
REMARK    2  A    between atoms: C_5  and  C_6
REMARK    3  A    between atoms: C_17  and  N_18
REMARK    4  A    between atoms: C_19  and  C_21
REMARK    5  A    between atoms: C_24  and  C_27
REMARK                            x       y       z     vdW  Elec       q    Type
REMARK                         _______ _______ _______ _____ _____    ______ ____
ROOT
ATOM      6  C   UNL     1      -2.884   2.823  24.400  0.00  0.00    +0.226 C 
ATOM      7  O   UNL     1      -2.137   2.887  24.057  0.00  0.00    -0.275 OA
ATOM      8  N   UNL     1      -3.292   3.502  24.631  0.00  0.00    -0.279 N 
ATOM      9  C   UNL     1      -3.447   4.314  24.754  0.00  0.00    +0.095 C 
ATOM     10  C   UNL     1      -4.343   4.251  25.166  0.00  0.00    +0.043 C 
ATOM     11  C   UNL     1      -5.071   4.369  25.511  0.00  0.00    +0.011 C 
ATOM     12  C   UNL     1      -4.681   3.827  25.296  0.00  0.00    +0.058 C 
ATOM     13  C   UNL     1      -3.815   3.904  24.899  0.00  0.00    +0.099 C 
ATOM     14  C   UNL     1      -4.688   2.909  25.242  0.00  0.00    +0.041 A 
ATOM     15  C   UNL     1      -5.165   2.261  25.422  0.00  0.00    +0.014 A 
ATOM     16  C   UNL     1      -4.904   1.497  25.253  0.00  0.00    +0.023 A 
ATOM     17  C   UNL     1      -4.165   1.382  24.904  0.00  0.00    +0.130 A 
ATOM     29  C   UNL     1      -3.689   2.030  24.723  0.00  0.00    +0.276 A 
ATOM     30  O   UNL     1      -3.165   1.457  24.445  0.00  0.00    -0.266 OA
ATOM     31  N   UNL     1      -3.950   2.794  24.892  0.00  0.00    -0.298 N 
ATOM     32  C   UNL     1      -4.342   3.293  25.105  0.00  0.00    +0.110 C 
ENDROOT
BRANCH  17  18
ATOM     18  N   UNL     1      -3.905   0.618  24.735  0.00  0.00    -0.171 NA
ATOM     19  C   UNL     1      -4.368  -0.032  24.944  0.00  0.00    +0.269 C 
ATOM     20  O   UNL     1      -5.092   0.082  25.322  0.00  0.00    -0.268 OA
BRANCH  19  21
ATOM     21  C   UNL     1      -4.107  -0.797  24.775  0.00  0.00    +0.055 A 
ATOM     22  C   UNL     1      -4.302  -1.149  24.055  0.00  0.00    +0.005 A 
ATOM     23  C   UNL     1      -4.041  -1.914  23.886  0.00  0.00    +0.010 A 
ATOM     24  C   UNL     1      -3.584  -2.325  24.437  0.00  0.00    +0.068 A 
ATOM     25  C   UNL     1      -3.390  -1.972  25.156  0.00  0.00    +0.010 A 
ATOM     26  C   UNL     1      -3.651  -1.208  25.326  0.00  0.00    +0.005 A 
BRANCH  24  27
ATOM     27  C   UNL     1      -3.323  -3.089  24.268  0.00  0.00    +0.100 C 
ATOM     28  N   UNL     1      -3.062  -3.853  24.099  0.00  0.00    -0.191 NA
ENDBRANCH  24  27
ENDBRANCH  19  21
ENDBRANCH  17  18
BRANCH   6   5
ATOM      5  C   UNL     1      -3.225   2.079  24.511  0.00  0.00    +0.085 C 
BRANCH   5   2
ATOM      1  C   UNL     1      -2.424   0.723  24.020  0.00  0.00    +0.000 C 
ATOM      2  C   UNL     1      -2.825   1.401  24.266  0.00  0.00    +0.009 C 
ATOM      3  C   UNL     1      -3.191   1.451  23.528  0.00  0.00    +0.000 C 
ATOM      4  C   UNL     1      -2.458   1.351  25.004  0.00  0.00    +0.000 C 
ENDBRANCH   5   2
ENDBRANCH   6   5
TORSDOF 5
ENDMDL
MODEL 6
REMARK VINA RESULT:     -11.9      1.898      4.621
REMARK  Name = 
REMARK  5 active torsions:
REMARK  status: ('A' for Active; 'I' for Inactive)
REMARK    1  A    between atoms: C_2  and  C_5
REMARK    2  A    between atoms: C_5  and  C_6
REMARK    3  A    between atoms: C_17  and  N_18
REMARK    4  A    between atoms: C_19  and  C_21
REMARK    5  A    between atoms: C_24  and  C_27
REMARK                            x       y       z     vdW  Elec       q    Type
REMARK                         _______ _______ _______ _____ _____    ______ ____
ROOT
ATOM      6  C   UNL     1      -3.235  -1.416  24.670  0.00  0.00    +0.226 C 
ATOM      7  O   UNL     1      -3.950  -1.826  24.643  0.00  0.00    -0.275 OA
ATOM      8  N   UNL     1      -2.522  -1.825  24.603  0.00  0.00    -0.279 N 
ATOM      9  C   UNL     1      -2.000  -2.471  24.514  0.00  0.00    +0.095 C 
ATOM     10  C   UNL     1      -1.136  -1.992  24.546  0.00  0.00    +0.043 C 
ATOM     11  C   UNL     1      -0.358  -1.752  24.552  0.00  0.00    +0.011 C 
ATOM     12  C   UNL     1      -0.992  -1.457  24.604  0.00  0.00    +0.058 C 
ATOM     13  C   UNL     1      -1.819  -1.934  24.571  0.00  0.00    +0.099 C 
ATOM     14  C   UNL     1      -1.401  -0.640  24.709  0.00  0.00    +0.041 A 
ATOM     15  C   UNL     1      -1.220   0.160  24.796  0.00  0.00    +0.014 A 
ATOM     16  C   UNL     1      -1.826   0.713  24.877  0.00  0.00    +0.023 A 
ATOM     17  C   UNL     1      -2.614   0.467  24.870  0.00  0.00    +0.130 A 
ATOM     29  C   UNL     1      -2.794  -0.333  24.783  0.00  0.00    +0.276 A 
ATOM     30  O   UNL     1      -3.575  -0.073  24.835  0.00  0.00    -0.266 OA
ATOM     31  N   UNL     1      -2.188  -0.887  24.702  0.00  0.00    -0.298 N 
ATOM     32  C   UNL     1      -1.572  -1.144  24.656  0.00  0.00    +0.110 C 
ENDROOT
BRANCH  17  18
ATOM     18  N   UNL     1      -3.219   1.021  24.951  0.00  0.00    -0.171 NA
ATOM     19  C   UNL     1      -3.039   1.822  25.025  0.00  0.00    +0.269 C 
ATOM     20  O   UNL     1      -2.252   2.070  25.018  0.00  0.00    -0.268 OA
BRANCH  19  21
ATOM     21  C   UNL     1      -3.646   2.376  25.105  0.00  0.00    +0.055 A 
ATOM     22  C   UNL     1      -3.984   2.717  24.434  0.00  0.00    +0.005 A 
ATOM     23  C   UNL     1      -4.591   3.271  24.515  0.00  0.00    +0.010 A 
ATOM     24  C   UNL     1      -4.858   3.483  25.267  0.00  0.00    +0.068 A 
ATOM     25  C   UNL     1      -4.519   3.142  25.936  0.00  0.00    +0.010 A 
ATOM     26  C   UNL     1      -3.913   2.588  25.856  0.00  0.00    +0.005 A 
BRANCH  24  27
ATOM     27  C   UNL     1      -5.464   4.037  25.347  0.00  0.00    +0.100 C 
ATOM     28  N   UNL     1      -6.070   4.590  25.427  0.00  0.00    -0.191 NA
ENDBRANCH  24  27
ENDBRANCH  19  21
ENDBRANCH  17  18
BRANCH   6   5
ATOM      5  C   UNL     1      -3.233  -0.596  24.765  0.00  0.00    +0.085 C 
BRANCH   5   2
ATOM      1  C   UNL     1      -4.660   0.223  24.887  0.00  0.00    +0.000 C 
ATOM      2  C   UNL     1      -3.946  -0.186  24.826  0.00  0.00    +0.009 C 
ATOM      3  C   UNL     1      -3.937  -0.290  25.644  0.00  0.00    +0.000 C 
ATOM      4  C   UNL     1      -3.956  -0.082  24.007  0.00  0.00    +0.000 C 
ENDBRANCH   5   2
ENDBRANCH   6   5
TORSDOF 5
ENDMDL
MODEL 7
REMARK VINA RESULT:     -11.7      1.823      3.442
REMARK  Name = 
REMARK  5 active torsions:
REMARK  status: ('A' for Active; 'I' for Inactive)
REMARK    1  A    between atoms: C_2  and  C_5
REMARK    2  A    between atoms: C_5  and  C_6
REMARK    3  A    between atoms: C_17  and  N_18
REMARK    4  A    between atoms: C_19  and  C_21
REMARK    5  A    between atoms: C_24  and  C_27
REMARK                            x       y       z     vdW  Elec       q    Type
REMARK                         _______ _______ _______ _____ _____    ______ ____
ROOT
ATOM      6  C   UNL     1      -3.867   3.321  25.027  0.00  0.00    +0.226 C 
ATOM      7  O   UNL     1      -3.522   4.069  24.982  0.00  0.00    -0.275 OA
ATOM      8  N   UNL     1      -4.654   3.243  25.261  0.00  0.00    -0.279 N 
ATOM      9  C   UNL     1      -5.418   3.469  25.512  0.00  0.00    +0.095 C 
ATOM     10  C   UNL     1      -5.843   2.578  25.570  0.00  0.00    +0.043 C 
ATOM     11  C   UNL     1      -6.331   1.933  25.666  0.00  0.00    +0.011 C 
ATOM     12  C   UNL     1      -5.667   2.058  25.474  0.00  0.00    +0.058 C 
ATOM     13  C   UNL     1      -5.271   2.925  25.423  0.00  0.00    +0.099 C 
ATOM     14  C   UNL     1      -4.901   1.627  25.205  0.00  0.00    +0.041 A 
ATOM     15  C   UNL     1      -4.611   0.870  25.055  0.00  0.00    +0.014 A 
ATOM     16  C   UNL     1      -3.830   0.769  24.809  0.00  0.00    +0.023 A 
ATOM     17  C   UNL     1      -3.340   1.425  24.712  0.00  0.00    +0.130 A 
ATOM     29  C   UNL     1      -3.630   2.183  24.862  0.00  0.00    +0.276 A 
ATOM     30  O   UNL     1      -2.870   2.422  24.650  0.00  0.00    -0.266 OA
ATOM     31  N   UNL     1      -4.410   2.284  25.108  0.00  0.00    -0.298 N 
ATOM     32  C   UNL     1      -5.038   2.137  25.288  0.00  0.00    +0.110 C 
ENDROOT
BRANCH  17  18
ATOM     18  N   UNL     1      -2.559   1.323  24.466  0.00  0.00    -0.171 NA
ATOM     19  C   UNL     1      -2.263   0.564  24.337  0.00  0.00    +0.269 C 
ATOM     20  O   UNL     1      -2.748  -0.093  24.453  0.00  0.00    -0.268 OA
BRANCH  19  21
ATOM     21  C   UNL     1      -1.481   0.463  24.090  0.00  0.00    +0.055 A 
ATOM     22  C   UNL     1      -0.893   0.298  24.644  0.00  0.00    +0.005 A 
ATOM     23  C   UNL     1      -0.111   0.197  24.397  0.00  0.00    +0.010 A 
ATOM     24  C   UNL     1       0.079   0.260  23.597  0.00  0.00    +0.068 A 
ATOM     25  C   UNL     1      -0.509   0.424  23.044  0.00  0.00    +0.010 A 
ATOM     26  C   UNL     1      -1.290   0.526  23.290  0.00  0.00    +0.005 A 
BRANCH  24  27
ATOM     27  C   UNL     1       0.860   0.158  23.351  0.00  0.00    +0.100 C 
ATOM     28  N   UNL     1       1.641   0.057  23.105  0.00  0.00    -0.191 NA
ENDBRANCH  24  27
ENDBRANCH  19  21
ENDBRANCH  17  18
BRANCH   6   5
ATOM      5  C   UNL     1      -3.424   2.650  24.837  0.00  0.00    +0.085 C 
BRANCH   5   2
ATOM      1  C   UNL     1      -1.859   2.810  24.340  0.00  0.00    +0.000 C 
ATOM      2  C   UNL     1      -2.642   2.730  24.589  0.00  0.00    +0.009 C 
ATOM      3  C   UNL     1      -2.387   2.690  25.372  0.00  0.00    +0.000 C 
ATOM      4  C   UNL     1      -2.895   2.770  23.804  0.00  0.00    +0.000 C 
ENDBRANCH   5   2
ENDBRANCH   6   5
TORSDOF 5
ENDMDL
