MODEL 1
REMARK VINA RESULT:      -9.7      0.000      0.000
REMARK  Name = 
REMARK  9 active torsions:
REMARK  status: ('A' for Active; 'I' for Inactive)
REMARK    1  A    between atoms: N_2  and  C_4
REMARK    2  A    between atoms: C_7  and  C_10
REMARK    3  A    between atoms: C_15  and  C_16
REMARK    4  A    between atoms: C_16  and  C_17
REMARK    5  A    between atoms: C_20  and  C_21
REMARK    6  A    between atoms: C_21  and  C_22
REMARK    7  A    between atoms: C_22  and  N_23
REMARK    8  A    between atoms: N_26  and  C_29
REMARK    9  A    between atoms: C_31  and  C_35
REMARK                            x       y       z     vdW  Elec       q    Type
REMARK                         _______ _______ _______ _____ _____    ______ ____
ROOT
ATOM     10  C   UNL     1      -2.314   2.078  24.234  0.00  0.00    +0.249 C 
ATOM     11  O   UNL     1      -1.829   2.634  23.865  0.00  0.00    -0.270 OA
ATOM     12  N   UNL     1      -2.049   1.305  24.341  0.00  0.00    -0.276 N 
ATOM     13  C   UNL     1      -2.534   0.749  24.710  0.00  0.00    +0.094 C 
ATOM     14  C   UNL     1      -2.268  -0.024  24.818  0.00  0.00    +0.022 C 
ATOM     15  C   UNL     1      -1.516  -0.242  24.557  0.00  0.00    +0.015 C 
ATOM     20  C   UNL     1      -1.030   0.313  24.188  0.00  0.00    +0.022 C 
ATOM     39  C   UNL     1      -1.297   1.087  24.081  0.00  0.00    +0.094 C 
ENDROOT
BRANCH  10   7
ATOM      4  C   UNL     1      -4.570   2.731  25.016  0.00  0.00    +0.048 A 
ATOM      5  C   UNL     1      -3.915   2.840  25.506  0.00  0.00    +0.015 A 
ATOM      6  C   UNL     1      -3.164   2.623  25.245  0.00  0.00    +0.006 A 
ATOM      7  C   UNL     1      -3.066   2.295  24.495  0.00  0.00    +0.054 A 
ATOM      8  C   UNL     1      -3.721   2.186  24.004  0.00  0.00    +0.006 A 
ATOM      9  C   UNL     1      -4.472   2.403  24.265  0.00  0.00    +0.015 A 
BRANCH   4   2
ATOM      1  C   UNL     1      -5.913   2.378  25.351  0.00  0.00    +0.112 C 
ATOM      2  N   UNL     1      -5.322   2.948  25.277  0.00  0.00    -0.304 N 
ATOM      3  C   UNL     1      -5.481   3.735  25.464  0.00  0.00    +0.112 C 
ENDBRANCH   4   2
ENDBRANCH  10   7
BRANCH  15  16
ATOM     16  C   UNL     1      -1.250  -1.016  24.665  0.00  0.00    +0.114 C 
BRANCH  16  17
ATOM     17  C   UNL     1      -1.772  -1.598  24.928  0.00  0.00    +0.365 C 
ATOM     18  O   UNL     1      -1.903  -1.700  25.736  0.00  0.00    -0.246 OA
ATOM     19  O   UNL     1      -2.163  -2.079  24.382  0.00  0.00    -0.246 OA
ENDBRANCH  16  17
ENDBRANCH  15  16
BRANCH  20  21
ATOM     21  C   UNL     1      -0.279   0.096  23.927  0.00  0.00    +0.019 C 
BRANCH  21  22
ATOM     22  C   UNL     1       0.083   0.514  23.316  0.00  0.00    +0.072 C 
BRANCH  22  23
ATOM     23  N   UNL     1       0.903   0.485  23.224  0.00  0.00    -0.270 NA
ATOM     24  C   UNL     1       1.247  -0.129  22.792  0.00  0.00    +0.094 C 
ATOM     25  C   UNL     1       2.067  -0.158  22.700  0.00  0.00    +0.108 C 
ATOM     26  N   UNL     1       2.541   0.426  23.040  0.00  0.00    -0.305 N 
ATOM     27  C   UNL     1       2.196   1.038  23.471  0.00  0.00    +0.108 C 
ATOM     28  C   UNL     1       1.377   1.068  23.563  0.00  0.00    +0.094 C 
BRANCH  26  29
ATOM     29  C   UNL     1       3.360   0.396  22.948  0.00  0.00    +0.048 A 
ATOM     30  C   UNL     1       3.828   0.039  23.526  0.00  0.00    +0.018 A 
ATOM     31  C   UNL     1       4.647   0.010  23.434  0.00  0.00    +0.073 A 
ATOM     32  C   UNL     1       5.000   0.338  22.763  0.00  0.00    +0.004 A 
ATOM     33  C   UNL     1       4.532   0.695  22.186  0.00  0.00    +0.001 A 
ATOM     34  C   UNL     1       3.712   0.724  22.278  0.00  0.00    +0.015 A 
BRANCH  31  35
ATOM     35  C   UNL     1       5.115  -0.347  24.012  0.00  0.00    +0.419 C 
ATOM     36  F   UNL     1       5.583  -0.706  24.590  0.00  0.00    -0.166 F 
ATOM     37  F   UNL     1       5.354   0.395  24.279  0.00  0.00    -0.166 F 
ATOM     38  F   UNL     1       4.877  -1.091  23.745  0.00  0.00    -0.166 F 
ENDBRANCH  31  35
ENDBRANCH  26  29
ENDBRANCH  22  23
ENDBRANCH  21  22
ENDBRANCH  20  21
TORSDOF 9
ENDMDL
MODEL 2
REMARK VINA RESULT:      -8.2      1.237      1.900
REMARK  Name = 
REMARK  9 active torsions:
REMARK  status: ('A' for Active; 'I' for Inactive)
REMARK    1  A    between atoms: N_2  and  C_4
REMARK    2  A    between atoms: C_7  and  C_10
REMARK    3  A    between atoms: C_15  and  C_16
REMARK    4  A    between atoms: C_16  and  C_17
REMARK    5  A    between atoms: C_20  and  C_21
REMARK    6  A    between atoms: C_21  and  C_22
REMARK    7  A    between atoms: C_22  and  N_23
REMARK    8  A    between atoms: N_26  and  C_29
REMARK    9  A    between atoms: C_31  and  C_35
REMARK                            x       y       z     vdW  Elec       q    Type
REMARK                         _______ _______ _______ _____ _____    ______ ____
ROOT
ATOM     10  C   UNL     1      -2.960   0.978  24.178  0.00  0.00    +0.249 C 
ATOM     11  O   UNL     1      -2.912   0.423  23.569  0.00  0.00    -0.270 OA
ATOM     12  N   UNL     1      -2.276   1.231  24.562  0.00  0.00    -0.276 N 
ATOM     13  C   UNL     1      -2.325   1.785  25.171  0.00  0.00    +0.094 C 
ATOM     14  C   UNL     1      -1.641   2.038  25.555  0.00  0.00    +0.022 C 
ATOM     15  C   UNL     1      -0.907   1.737  25.330  0.00  0.00    +0.015 C 
ATOM     20  C   UNL     1      -0.856   1.183  24.721  0.00  0.00    +0.022 C 
ATOM     39  C   UNL     1      -1.542   0.930  24.337  0.00  0.00    +0.094 C 
ENDROOT
BRANCH  10   7
ATOM      4  C   UNL     1      -5.164   1.881  24.853  0.00  0.00    +0.048 A 
ATOM      5  C   UNL     1      -4.899   1.164  25.163  0.00  0.00    +0.015 A 
ATOM      6  C   UNL     1      -4.165   0.863  24.938  0.00  0.00    +0.006 A 
ATOM      7  C   UNL     1      -3.695   1.279  24.403  0.00  0.00    +0.054 A 
ATOM      8  C   UNL     1      -3.960   1.996  24.092  0.00  0.00    +0.006 A 
ATOM      9  C   UNL     1      -4.693   2.297  24.317  0.00  0.00    +0.015 A 
BRANCH   4   2
ATOM      1  C   UNL     1      -5.939   2.854  25.555  0.00  0.00    +0.112 C 
ATOM      2  N   UNL     1      -5.898   2.182  25.078  0.00  0.00    -0.304 N 
ATOM      3  C   UNL     1      -6.590   1.812  24.825  0.00  0.00    +0.112 C 
ENDBRANCH   4   2
ENDBRANCH  10   7
BRANCH  15  16
ATOM     16  C   UNL     1      -0.221   1.991  25.714  0.00  0.00    +0.114 C 
BRANCH  16  17
ATOM     17  C   UNL     1      -0.257   2.618  26.249  0.00  0.00    +0.365 C 
ATOM     18  O   UNL     1      -0.259   2.469  27.061  0.00  0.00    -0.246 OA
ATOM     19  O   UNL     1      -0.290   3.395  25.972  0.00  0.00    -0.246 OA
ENDBRANCH  16  17
ENDBRANCH  15  16
BRANCH  20  21
ATOM     21  C   UNL     1      -0.122   0.882  24.496  0.00  0.00    +0.019 C 
BRANCH  21  22
ATOM     22  C   UNL     1       0.074   0.829  23.697  0.00  0.00    +0.072 C 
BRANCH  22  23
ATOM     23  N   UNL     1       0.863   0.734  23.472  0.00  0.00    -0.270 NA
ATOM     24  C   UNL     1       1.381   1.376  23.503  0.00  0.00    +0.094 C 
ATOM     25  C   UNL     1       2.169   1.281  23.277  0.00  0.00    +0.108 C 
ATOM     26  N   UNL     1       2.438   0.545  23.021  0.00  0.00    -0.305 N 
ATOM     27  C   UNL     1       1.921  -0.096  22.990  0.00  0.00    +0.108 C 
ATOM     28  C   UNL     1       1.133  -0.002  23.216  0.00  0.00    +0.094 C 
BRANCH  26  29
ATOM     29  C   UNL     1       3.226   0.450  22.796  0.00  0.00    +0.048 A 
ATOM     30  C   UNL     1       3.805   0.311  23.367  0.00  0.00    +0.018 A 
ATOM     31  C   UNL     1       4.593   0.216  23.142  0.00  0.00    +0.073 A 
ATOM     32  C   UNL     1       4.803   0.260  22.345  0.00  0.00    +0.004 A 
ATOM     33  C   UNL     1       4.224   0.399  21.774  0.00  0.00    +0.001 A 
ATOM     34  C   UNL     1       3.436   0.494  21.999  0.00  0.00    +0.015 A 
BRANCH  31  35
ATOM     35  C   UNL     1       5.172   0.077  23.713  0.00  0.00    +0.419 C 
ATOM     36  F   UNL     1       5.751  -0.064  24.284  0.00  0.00    -0.166 F 
ATOM     37  F   UNL     1       5.333   0.885  23.748  0.00  0.00    -0.166 F 
ATOM     38  F   UNL     1       5.012  -0.732  23.678  0.00  0.00    -0.166 F 
ENDBRANCH  31  35
ENDBRANCH  26  29
ENDBRANCH  22  23
ENDBRANCH  21  22
ENDBRANCH  20  21
TORSDOF 9
ENDMDL
MODEL 3
REMARK VINA RESULT:      -6.2      3.343      7.267
REMARK  Name = 
REMARK  9 active torsions:
REMARK  status: ('A' for Active; 'I' for Inactive)
REMARK    1  A    between atoms: N_2  and  C_4
REMARK    2  A    between atoms: C_7  and  C_10
REMARK    3  A    between atoms: C_15  and  C_16
REMARK    4  A    between atoms: C_16  and  C_17
REMARK    5  A    between atoms: C_20  and  C_21
REMARK    6  A    between atoms: C_21  and  C_22
REMARK    7  A    between atoms: C_22  and  N_23
REMARK    8  A    between atoms: N_26  and  C_29
REMARK    9  A    between atoms: C_31  and  C_35
REMARK                            x       y       z     vdW  Elec       q    Type
REMARK                         _______ _______ _______ _____ _____    ______ ____
ROOT
ATOM     10  C   UNL     1       0.259   0.636  23.336  0.00  0.00    +0.249 C 
ATOM     11  O   UNL     1      -0.116   1.335  23.108  0.00  0.00    -0.270 OA
ATOM     12  N   UNL     1      -0.160   0.055  23.744  0.00  0.00    -0.276 N 
ATOM     13  C   UNL     1       0.215  -0.643  23.971  0.00  0.00    +0.094 C 
ATOM     14  C   UNL     1      -0.204  -1.224  24.379  0.00  0.00    +0.022 C 
ATOM     15  C   UNL     1      -1.000  -1.106  24.560  0.00  0.00    +0.015 C 
ATOM     20  C   UNL     1      -1.377  -0.408  24.333  0.00  0.00    +0.022 C 
ATOM     39  C   UNL     1      -0.957   0.173  23.925  0.00  0.00    +0.094 C 
ENDROOT
BRANCH  10   7
ATOM      4  C   UNL     1       2.648   0.284  22.792  0.00  0.00    +0.048 A 
ATOM      5  C   UNL     1       2.066  -0.136  22.385  0.00  0.00    +0.015 A 
ATOM      6  C   UNL     1       1.270  -0.018  22.566  0.00  0.00    +0.006 A 
ATOM      7  C   UNL     1       1.056   0.519  23.154  0.00  0.00    +0.054 A 
ATOM      8  C   UNL     1       1.638   0.939  23.562  0.00  0.00    +0.006 A 
ATOM      9  C   UNL     1       2.433   0.822  23.381  0.00  0.00    +0.015 A 
BRANCH   4   2
ATOM      1  C   UNL     1       3.921  -0.277  23.117  0.00  0.00    +0.112 C 
ATOM      2  N   UNL     1       3.444   0.167  22.611  0.00  0.00    -0.304 N 
ATOM      3  C   UNL     1       3.763   0.493  21.924  0.00  0.00    +0.112 C 
ENDBRANCH   4   2
ENDBRANCH  10   7
BRANCH  15  16
ATOM     16  C   UNL     1      -1.421  -1.688  24.969  0.00  0.00    +0.114 C 
BRANCH  16  17
ATOM     17  C   UNL     1      -1.203  -2.480  24.899  0.00  0.00    +0.365 C 
ATOM     18  O   UNL     1      -0.600  -2.786  25.372  0.00  0.00    -0.246 OA
ATOM     19  O   UNL     1      -1.588  -2.967  24.354  0.00  0.00    -0.246 OA
ENDBRANCH  16  17
ENDBRANCH  15  16
BRANCH  20  21
ATOM     21  C   UNL     1      -2.173  -0.291  24.515  0.00  0.00    +0.019 C 
BRANCH  21  22
ATOM     22  C   UNL     1      -2.659   0.120  23.991  0.00  0.00    +0.072 C 
BRANCH  22  23
ATOM     23  N   UNL     1      -3.270   0.595  24.280  0.00  0.00    -0.270 NA
ATOM     24  C   UNL     1      -3.482   1.284  23.878  0.00  0.00    +0.094 C 
ATOM     25  C   UNL     1      -4.092   1.758  24.167  0.00  0.00    +0.108 C 
ATOM     26  N   UNL     1      -4.490   1.542  24.857  0.00  0.00    -0.305 N 
ATOM     27  C   UNL     1      -4.278   0.854  25.258  0.00  0.00    +0.108 C 
ATOM     28  C   UNL     1      -3.668   0.380  24.969  0.00  0.00    +0.094 C 
BRANCH  26  29
ATOM     29  C   UNL     1      -5.100   2.016  25.146  0.00  0.00    +0.048 A 
ATOM     30  C   UNL     1      -4.974   2.823  25.269  0.00  0.00    +0.018 A 
ATOM     31  C   UNL     1      -5.584   3.297  25.558  0.00  0.00    +0.073 A 
ATOM     32  C   UNL     1      -6.322   2.965  25.724  0.00  0.00    +0.004 A 
ATOM     33  C   UNL     1      -6.448   2.159  25.601  0.00  0.00    +0.001 A 
ATOM     34  C   UNL     1      -5.837   1.685  25.312  0.00  0.00    +0.015 A 
BRANCH  31  35
ATOM     35  C   UNL     1      -5.458   4.102  25.681  0.00  0.00    +0.419 C 
ATOM     36  F   UNL     1      -5.334   4.909  25.804  0.00  0.00    -0.166 F 
ATOM     37  F   UNL     1      -4.740   3.935  26.050  0.00  0.00    -0.166 F 
ATOM     38  F   UNL     1      -6.177   4.271  25.312  0.00  0.00    -0.166 F 
ENDBRANCH  31  35
ENDBRANCH  26  29
ENDBRANCH  22  23
ENDBRANCH  21  22
ENDBRANCH  20  21
TORSDOF 9
ENDMDL
MODEL 4
REMARK VINA RESULT:      -5.8      3.573      7.596
REMARK  Name = 
REMARK  9 active torsions:
REMARK  status: ('A' for Active; 'I' for Inactive)
REMARK    1  A    between atoms: N_2  and  C_4
REMARK    2  A    between atoms: C_7  and  C_10
REMARK    3  A    between atoms: C_15  and  C_16
REMARK    4  A    between atoms: C_16  and  C_17
REMARK    5  A    between atoms: C_20  and  C_21
REMARK    6  A    between atoms: C_21  and  C_22
REMARK    7  A    between atoms: C_22  and  N_23
REMARK    8  A    between atoms: N_26  and  C_29
REMARK    9  A    between atoms: C_31  and  C_35
REMARK                            x       y       z     vdW  Elec       q    Type
REMARK                         _______ _______ _______ _____ _____    ______ ____
ROOT
ATOM     10  C   UNL     1       1.412   0.192  22.875  0.00  0.00    +0.249 C 
ATOM     11  O   UNL     1       1.007  -0.255  22.312  0.00  0.00    -0.270 OA
ATOM     12  N   UNL     1       1.000   0.721  23.355  0.00  0.00    -0.276 N 
ATOM     13  C   UNL     1       1.404   1.169  23.918  0.00  0.00    +0.094 C 
ATOM     14  C   UNL     1       0.993   1.698  24.398  0.00  0.00    +0.022 C 
ATOM     15  C   UNL     1       0.176   1.781  24.315  0.00  0.00    +0.015 C 
ATOM     20  C   UNL     1      -0.229   1.334  23.752  0.00  0.00    +0.022 C 
ATOM     39  C   UNL     1       0.183   0.804  23.271  0.00  0.00    +0.094 C 
ENDROOT
BRANCH  10   7
ATOM      4  C   UNL     1       3.861  -0.056  23.125  0.00  0.00    +0.048 A 
ATOM      5  C   UNL     1       3.551   0.586  22.711  0.00  0.00    +0.015 A 
ATOM      6  C   UNL     1       2.736   0.669  22.628  0.00  0.00    +0.006 A 
ATOM      7  C   UNL     1       2.228   0.109  22.958  0.00  0.00    +0.054 A 
ATOM      8  C   UNL     1       2.538  -0.534  23.373  0.00  0.00    +0.006 A 
ATOM      9  C   UNL     1       3.354  -0.617  23.456  0.00  0.00    +0.015 A 
BRANCH   4   2
ATOM      1  C   UNL     1       5.178   0.488  23.012  0.00  0.00    +0.112 C 
ATOM      2  N   UNL     1       4.678  -0.139  23.208  0.00  0.00    -0.304 N 
ATOM      3  C   UNL     1       4.994  -0.848  23.487  0.00  0.00    +0.112 C 
ENDBRANCH   4   2
ENDBRANCH  10   7
BRANCH  15  16
ATOM     16  C   UNL     1      -0.236   2.311  24.795  0.00  0.00    +0.114 C 
BRANCH  16  17
ATOM     17  C   UNL     1       0.172   2.773  25.343  0.00  0.00    +0.365 C 
ATOM     18  O   UNL     1       0.338   3.564  25.174  0.00  0.00    -0.246 OA
ATOM     19  O   UNL     1       0.414   2.444  26.060  0.00  0.00    -0.246 OA
ENDBRANCH  16  17
ENDBRANCH  15  16
BRANCH  20  21
ATOM     21  C   UNL     1      -1.046   1.417  23.668  0.00  0.00    +0.019 C 
BRANCH  21  22
ATOM     22  C   UNL     1      -1.545   0.788  23.855  0.00  0.00    +0.072 C 
BRANCH  22  23
ATOM     23  N   UNL     1      -2.324   0.934  24.087  0.00  0.00    -0.270 NA
ATOM     24  C   UNL     1      -2.812   1.406  23.618  0.00  0.00    +0.094 C 
ATOM     25  C   UNL     1      -3.590   1.552  23.849  0.00  0.00    +0.108 C 
ATOM     26  N   UNL     1      -3.880   1.226  24.550  0.00  0.00    -0.305 N 
ATOM     27  C   UNL     1      -3.392   0.754  25.018  0.00  0.00    +0.108 C 
ATOM     28  C   UNL     1      -2.614   0.609  24.787  0.00  0.00    +0.094 C 
BRANCH  26  29
ATOM     29  C   UNL     1      -4.658   1.372  24.781  0.00  0.00    +0.048 A 
ATOM     30  C   UNL     1      -4.855   2.090  25.136  0.00  0.00    +0.018 A 
ATOM     31  C   UNL     1      -5.634   2.236  25.368  0.00  0.00    +0.073 A 
ATOM     32  C   UNL     1      -6.215   1.664  25.244  0.00  0.00    +0.004 A 
ATOM     33  C   UNL     1      -6.018   0.946  24.890  0.00  0.00    +0.001 A 
ATOM     34  C   UNL     1      -5.239   0.800  24.658  0.00  0.00    +0.015 A 
BRANCH  31  35
ATOM     35  C   UNL     1      -5.831   2.954  25.723  0.00  0.00    +0.419 C 
ATOM     36  F   UNL     1      -6.029   3.673  26.077  0.00  0.00    -0.166 F 
ATOM     37  F   UNL     1      -5.820   2.592  26.463  0.00  0.00    -0.166 F 
ATOM     38  F   UNL     1      -5.843   3.317  24.981  0.00  0.00    -0.166 F 
ENDBRANCH  31  35
ENDBRANCH  26  29
ENDBRANCH  22  23
ENDBRANCH  21  22
ENDBRANCH  20  21
TORSDOF 9
ENDMDL
