MODEL 1
REMARK VINA RESULT:     -10.0      0.000      0.000
REMARK  Name = 
REMARK  4 active torsions:
REMARK  status: ('A' for Active; 'I' for Inactive)
REMARK    1  A    between atoms: N_4  and  C_5
REMARK    2  A    between atoms: C_5  and  C_6
REMARK    3  A    between atoms: C_9  and  N_10
REMARK    4  A    between atoms: N_10  and  C_11
REMARK                            x       y       z     vdW  Elec       q    Type
REMARK                         _______ _______ _______ _____ _____    ______ ____
ROOT
ATOM      6  C   UNL     1      -3.193   1.803  24.642  0.00  0.00    +0.169 C 
ATOM      7  O   UNL     1      -2.659   1.274  24.302  0.00  0.00    -0.350 OA
ATOM      8  C   UNL     1      -3.023   0.535  24.261  0.00  0.00    +0.162 C 
ATOM      9  C   UNL     1      -3.782   0.606  24.577  0.00  0.00    +0.135 C 
ATOM     19  C   UNL     1      -3.887   1.390  24.812  0.00  0.00    +0.199 C 
ATOM     20  O   UNL     1      -4.566   1.705  25.157  0.00  0.00    -0.219 OA
ENDROOT
BRANCH   6   5
ATOM      5  C   UNL     1      -3.057   2.604  24.787  0.00  0.00    +0.147 C 
BRANCH   5   4
ATOM      1  C   UNL     1      -1.388   3.942  25.220  0.00  0.00    +0.096 C 
ATOM      2  C   UNL     1      -2.153   3.674  25.066  0.00  0.00    +0.242 C 
ATOM      3  O   UNL     1      -2.779   4.211  25.037  0.00  0.00    -0.273 OA
ATOM      4  N   UNL     1      -2.292   2.870  24.941  0.00  0.00    -0.203 NA
ENDBRANCH   5   4
ENDBRANCH   6   5
BRANCH   9  10
ATOM     10  N   UNL     1      -4.338   0.001  24.645  0.00  0.00    -0.216 NA
BRANCH  10  11
ATOM     11  C   UNL     1      -4.091  -0.786  24.663  0.00  0.00    +0.073 C 
ATOM     12  C   UNL     1      -3.748  -1.095  25.346  0.00  0.00    +0.023 C 
ATOM     13  C   UNL     1      -3.501  -1.883  25.364  0.00  0.00    +0.068 C 
ATOM     14  C   UNL     1      -3.598  -2.360  24.698  0.00  0.00    +0.264 C 
ATOM     15  F   UNL     1      -3.245  -2.901  25.213  0.00  0.00    -0.204 F 
ATOM     16  F   UNL     1      -3.573  -3.026  24.211  0.00  0.00    -0.204 F 
ATOM     17  C   UNL     1      -3.942  -2.051  24.015  0.00  0.00    +0.068 C 
ATOM     18  C   UNL     1      -4.188  -1.264  23.997  0.00  0.00    +0.023 C 
ENDBRANCH  10  11
ENDBRANCH   9  10
TORSDOF 4
ENDMDL
MODEL 2
REMARK VINA RESULT:      -9.1      2.991      5.218
REMARK  Name = 
REMARK  4 active torsions:
REMARK  status: ('A' for Active; 'I' for Inactive)
REMARK    1  A    between atoms: N_4  and  C_5
REMARK    2  A    between atoms: C_5  and  C_6
REMARK    3  A    between atoms: C_9  and  N_10
REMARK    4  A    between atoms: N_10  and  C_11
REMARK                            x       y       z     vdW  Elec       q    Type
REMARK                         _______ _______ _______ _____ _____    ______ ____
ROOT
ATOM      6  C   UNL     1      -2.189   0.646  24.727  0.00  0.00    +0.169 C 
ATOM      7  O   UNL     1      -2.488   1.262  24.269  0.00  0.00    -0.350 OA
ATOM      8  C   UNL     1      -2.100   1.957  24.490  0.00  0.00    +0.162 C 
ATOM      9  C   UNL     1      -1.561   1.768  25.086  0.00  0.00    +0.135 C 
ATOM     19  C   UNL     1      -1.616   0.958  25.232  0.00  0.00    +0.199 C 
ATOM     20  O   UNL     1      -1.175   0.535  25.786  0.00  0.00    -0.219 OA
ENDROOT
BRANCH   6   5
ATOM      5  C   UNL     1      -2.422  -0.145  24.688  0.00  0.00    +0.147 C 
BRANCH   5   4
ATOM      1  C   UNL     1      -4.119  -1.333  24.003  0.00  0.00    +0.096 C 
ATOM      2  C   UNL     1      -3.383  -1.135  24.319  0.00  0.00    +0.242 C 
ATOM      3  O   UNL     1      -2.874  -1.728  24.582  0.00  0.00    -0.273 OA
ATOM      4  N   UNL     1      -3.157  -0.343  24.372  0.00  0.00    -0.203 NA
ENDBRANCH   5   4
ENDBRANCH   6   5
BRANCH   9  10
ATOM     10  N   UNL     1      -1.056   2.297  25.467  0.00  0.00    -0.216 NA
BRANCH  10  11
ATOM     11  C   UNL     1      -1.174   3.109  25.390  0.00  0.00    +0.073 C 
ATOM     12  C   UNL     1      -1.786   3.479  25.802  0.00  0.00    +0.023 C 
ATOM     13  C   UNL     1      -1.904   4.292  25.724  0.00  0.00    +0.068 C 
ATOM     14  C   UNL     1      -1.409   4.735  25.235  0.00  0.00    +0.264 C 
ATOM     15  F   UNL     1      -1.911   5.330  25.511  0.00  0.00    -0.204 F 
ATOM     16  F   UNL     1      -1.090   5.386  24.842  0.00  0.00    -0.204 F 
ATOM     17  C   UNL     1      -0.798   4.366  24.823  0.00  0.00    +0.068 C 
ATOM     18  C   UNL     1      -0.680   3.554  24.900  0.00  0.00    +0.023 C 
ENDBRANCH  10  11
ENDBRANCH   9  10
TORSDOF 4
ENDMDL
MODEL 3
REMARK VINA RESULT:      -9.1      2.646      4.783
REMARK  Name = 
REMARK  4 active torsions:
REMARK  status: ('A' for Active; 'I' for Inactive)
REMARK    1  A    between atoms: N_4  and  C_5
REMARK    2  A    between atoms: C_5  and  C_6
REMARK    3  A    between atoms: C_9  and  N_10
REMARK    4  A    between atoms: N_10  and  C_11
REMARK                            x       y       z     vdW  Elec       q    Type
REMARK                         _______ _______ _______ _____ _____    ______ ____
ROOT
ATOM      6  C   UNL     1      -3.956   0.288  24.406  0.00  0.00    +0.169 C 
ATOM      7  O   UNL     1      -4.276   0.551  25.119  0.00  0.00    -0.350 OA
ATOM      8  C   UNL     1      -4.209   1.373  25.142  0.00  0.00    +0.162 C 
ATOM      9  C   UNL     1      -3.846   1.619  24.443  0.00  0.00    +0.135 C 
ATOM     19  C   UNL     1      -3.690   0.948  23.987  0.00  0.00    +0.199 C 
ATOM     20  O   UNL     1      -3.332   0.939  23.245  0.00  0.00    -0.219 OA
ENDROOT
BRANCH   6   5
ATOM      5  C   UNL     1      -3.910  -0.496  24.154  0.00  0.00    +0.147 C 
BRANCH   5   4
ATOM      1  C   UNL     1      -3.510  -2.468  25.000  0.00  0.00    +0.096 C 
ATOM      2  C   UNL     1      -3.748  -1.879  24.473  0.00  0.00    +0.242 C 
ATOM      3  O   UNL     1      -4.059  -2.085  23.737  0.00  0.00    -0.273 OA
ATOM      4  N   UNL     1      -3.673  -1.084  24.681  0.00  0.00    -0.203 NA
ENDBRANCH   5   4
ENDBRANCH   6   5
BRANCH   9  10
ATOM     10  N   UNL     1      -3.671   2.397  24.235  0.00  0.00    -0.216 NA
BRANCH  10  11
ATOM     11  C   UNL     1      -3.380   2.920  24.802  0.00  0.00    +0.073 C 
ATOM     12  C   UNL     1      -3.902   3.377  25.249  0.00  0.00    +0.023 C 
ATOM     13  C   UNL     1      -3.611   3.901  25.816  0.00  0.00    +0.068 C 
ATOM     14  C   UNL     1      -2.798   3.967  25.937  0.00  0.00    +0.264 C 
ATOM     15  F   UNL     1      -3.071   4.513  26.492  0.00  0.00    -0.204 F 
ATOM     16  F   UNL     1      -2.079   4.224  26.250  0.00  0.00    -0.204 F 
ATOM     17  C   UNL     1      -2.276   3.511  25.490  0.00  0.00    +0.068 C 
ATOM     18  C   UNL     1      -2.566   2.988  24.923  0.00  0.00    +0.023 C 
ENDBRANCH  10  11
ENDBRANCH   9  10
TORSDOF 4
ENDMDL
MODEL 4
REMARK VINA RESULT:      -9.0      1.608      1.942
REMARK  Name = 
REMARK  4 active torsions:
REMARK  status: ('A' for Active; 'I' for Inactive)
REMARK    1  A    between atoms: N_4  and  C_5
REMARK    2  A    between atoms: C_5  and  C_6
REMARK    3  A    between atoms: C_9  and  N_10
REMARK    4  A    between atoms: N_10  and  C_11
REMARK                            x       y       z     vdW  Elec       q    Type
REMARK                         _______ _______ _______ _____ _____    ______ ____
ROOT
ATOM      6  C   UNL     1      -1.529   0.752  24.830  0.00  0.00    +0.169 C 
ATOM      7  O   UNL     1      -2.105   0.834  24.246  0.00  0.00    -0.350 OA
ATOM      8  C   UNL     1      -2.707   0.291  24.403  0.00  0.00    +0.162 C 
ATOM      9  C   UNL     1      -2.502  -0.127  25.084  0.00  0.00    +0.135 C 
ATOM     19  C   UNL     1      -1.774   0.158  25.348  0.00  0.00    +0.199 C 
ATOM     20  O   UNL     1      -1.363  -0.105  26.013  0.00  0.00    -0.219 OA
ENDROOT
BRANCH   6   5
ATOM      5  C   UNL     1      -0.830   1.186  24.886  0.00  0.00    +0.147 C 
BRANCH   5   4
ATOM      1  C   UNL     1      -0.076   3.170  24.375  0.00  0.00    +0.096 C 
ATOM      2  C   UNL     1      -0.100   2.390  24.644  0.00  0.00    +0.242 C 
ATOM      3  O   UNL     1       0.584   2.035  24.940  0.00  0.00    -0.273 OA
ATOM      4  N   UNL     1      -0.806   1.965  24.617  0.00  0.00    -0.203 NA
ENDBRANCH   5   4
ENDBRANCH   6   5
BRANCH   9  10
ATOM     10  N   UNL     1      -2.947  -0.724  25.439  0.00  0.00    -0.216 NA
BRANCH  10  11
ATOM     11  C   UNL     1      -3.301  -1.306  24.975  0.00  0.00    +0.073 C 
ATOM     12  C   UNL     1      -2.989  -2.069  24.961  0.00  0.00    +0.023 C 
ATOM     13  C   UNL     1      -3.344  -2.652  24.497  0.00  0.00    +0.068 C 
ATOM     14  C   UNL     1      -4.010  -2.471  24.046  0.00  0.00    +0.264 C 
ATOM     15  F   UNL     1      -3.918  -3.268  23.853  0.00  0.00    -0.204 F 
ATOM     16  F   UNL     1      -4.645  -2.567  23.529  0.00  0.00    -0.204 F 
ATOM     17  C   UNL     1      -4.322  -1.708  24.060  0.00  0.00    +0.068 C 
ATOM     18  C   UNL     1      -3.968  -1.125  24.524  0.00  0.00    +0.023 C 
ENDBRANCH  10  11
ENDBRANCH   9  10
TORSDOF 4
ENDMDL
