MODEL 1
REMARK VINA RESULT:     -12.1      0.000      0.000
REMARK  Name = 
REMARK  6 active torsions:
REMARK  status: ('A' for Active; 'I' for Inactive)
REMARK    1  A    between atoms: C_2  and  C_3
REMARK    2  A    between atoms: C_2  and  C_25
REMARK    3  A    between atoms: C_10  and  N_11
REMARK    4  A    between atoms: C_12  and  C_14
REMARK    5  A    between atoms: N_27  and  C_28
REMARK    6  A    between atoms: C_28  and  C_29
REMARK                            x       y       z     vdW  Elec       q    Type
REMARK                         _______ _______ _______ _____ _____    ______ ____
ROOT
ATOM      3  C   UNL     1      -4.404   2.821  24.548  0.00  0.00    +0.039 C 
ATOM      4  C   UNL     1      -5.046   2.799  25.067  0.00  0.00    +0.003 C 
ATOM      5  C   UNL     1      -5.331   2.074  25.339  0.00  0.00    +0.000 C 
ATOM      6  C   UNL     1      -4.974   1.373  25.094  0.00  0.00    +0.002 C 
ATOM      7  C   UNL     1      -5.615   1.350  25.611  0.00  0.00    +0.000 C 
ATOM      8  C   UNL     1      -5.258   0.647  25.366  0.00  0.00    +0.002 C 
ATOM      9  C   UNL     1      -4.902  -0.054  25.121  0.00  0.00    +0.022 C 
ATOM     10  C   UNL     1      -4.259  -0.031  24.603  0.00  0.00    +0.096 C 
ATOM     20  C   UNL     1      -3.975   0.693  24.331  0.00  0.00    +0.022 C 
ATOM     21  C   UNL     1      -3.333   0.715  23.813  0.00  0.00    +0.002 C 
ATOM     22  C   UNL     1      -4.331   1.395  24.576  0.00  0.00    +0.032 C 
ATOM     23  C   UNL     1      -4.047   2.120  24.303  0.00  0.00    +0.152 C 
ATOM     24  O   UNL     1      -3.405   2.142  23.785  0.00  0.00    -0.223 OA
ENDROOT
BRANCH  10  11
ATOM     11  N   UNL     1      -3.902  -0.734  24.358  0.00  0.00    -0.203 NA
ATOM     12  C   UNL     1      -3.653  -1.287  24.916  0.00  0.00    +0.265 C 
ATOM     13  O   UNL     1      -3.759  -1.138  25.721  0.00  0.00    -0.268 OA
BRANCH  12  14
ATOM     14  C   UNL     1      -3.296  -1.989  24.671  0.00  0.00    +0.058 A 
ATOM     15  C   UNL     1      -3.759  -2.618  24.407  0.00  0.00    +0.025 A 
ATOM     16  C   UNL     1      -3.403  -3.320  24.162  0.00  0.00    +0.099 A 
ATOM     17  N   UNL     1      -2.581  -3.394  24.182  0.00  0.00    -0.242 NA
ATOM     18  C   UNL     1      -2.116  -2.765  24.446  0.00  0.00    +0.099 A 
ATOM     19  C   UNL     1      -2.474  -2.063  24.691  0.00  0.00    +0.025 A 
ENDBRANCH  12  14
ENDBRANCH  10  11
BRANCH   3   2
ATOM      1  C   UNL     1      -4.263   3.782  23.498  0.00  0.00    +0.010 C 
ATOM      2  C   UNL     1      -4.120   3.547  24.276  0.00  0.00    +0.081 C 
BRANCH   2  25
ATOM     25  C   UNL     1      -3.691   4.037  24.782  0.00  0.00    +0.241 C 
ATOM     26  O   UNL     1      -4.084   4.484  25.355  0.00  0.00    -0.273 OA
ATOM     27  N   UNL     1      -2.869   4.082  24.716  0.00  0.00    -0.200 NA
BRANCH  27  28
ATOM     28  C   UNL     1      -2.441   4.572  25.222  0.00  0.00    +0.148 C 
BRANCH  28  29
ATOM     29  C   UNL     1      -1.629   4.669  25.114  0.00  0.00    +0.029 A 
ATOM     30  C   UNL     1      -1.250   5.365  24.883  0.00  0.00    +0.004 A 
ATOM     31  C   UNL     1      -0.440   5.212  24.844  0.00  0.00    +0.007 A 
ATOM     32  C   UNL     1      -0.319   4.422  25.051  0.00  0.00    +0.035 A 
ATOM     33  S   UNL     1      -1.054   4.086  25.217  0.00  0.00    -0.089 S 
ENDBRANCH  28  29
ENDBRANCH  27  28
ENDBRANCH   2  25
ENDBRANCH   3   2
TORSDOF 6
ENDMDL
MODEL 2
REMARK VINA RESULT:     -10.7      1.562      5.261
REMARK  Name = 
REMARK  6 active torsions:
REMARK  status: ('A' for Active; 'I' for Inactive)
REMARK    1  A    between atoms: C_2  and  C_3
REMARK    2  A    between atoms: C_2  and  C_25
REMARK    3  A    between atoms: C_10  and  N_11
REMARK    4  A    between atoms: C_12  and  C_14
REMARK    5  A    between atoms: N_27  and  C_28
REMARK    6  A    between atoms: C_28  and  C_29
REMARK                            x       y       z     vdW  Elec       q    Type
REMARK                         _______ _______ _______ _____ _____    ______ ____
ROOT
ATOM      3  C   UNL     1      -4.163   0.161  24.413  0.00  0.00    +0.039 C 
ATOM      4  C   UNL     1      -4.848   0.305  24.851  0.00  0.00    +0.003 C 
ATOM      5  C   UNL     1      -4.990   1.057  25.158  0.00  0.00    +0.000 C 
ATOM      6  C   UNL     1      -4.449   1.665  25.027  0.00  0.00    +0.002 C 
ATOM      7  C   UNL     1      -5.133   1.809  25.464  0.00  0.00    +0.000 C 
ATOM      8  C   UNL     1      -4.591   2.418  25.334  0.00  0.00    +0.002 C 
ATOM      9  C   UNL     1      -4.050   3.026  25.203  0.00  0.00    +0.022 C 
ATOM     10  C   UNL     1      -3.365   2.881  24.765  0.00  0.00    +0.096 C 
ATOM     20  C   UNL     1      -3.222   2.130  24.459  0.00  0.00    +0.022 C 
ATOM     21  C   UNL     1      -2.538   1.985  24.021  0.00  0.00    +0.002 C 
ATOM     22  C   UNL     1      -3.764   1.521  24.589  0.00  0.00    +0.032 C 
ATOM     23  C   UNL     1      -3.622   0.769  24.283  0.00  0.00    +0.152 C 
ATOM     24  O   UNL     1      -2.937   0.624  23.845  0.00  0.00    -0.223 OA
ENDROOT
BRANCH  10  11
ATOM     11  N   UNL     1      -2.823   3.490  24.635  0.00  0.00    -0.203 NA
ATOM     12  C   UNL     1      -2.466   3.869  25.274  0.00  0.00    +0.265 C 
ATOM     13  O   UNL     1      -2.651   3.640  26.045  0.00  0.00    -0.268 OA
BRANCH  12  14
ATOM     14  C   UNL     1      -1.925   4.478  25.143  0.00  0.00    +0.058 A 
ATOM     15  C   UNL     1      -1.128   4.304  25.024  0.00  0.00    +0.025 A 
ATOM     16  C   UNL     1      -0.587   4.913  24.893  0.00  0.00    +0.099 A 
ATOM     17  N   UNL     1      -0.843   5.697  24.882  0.00  0.00    -0.242 NA
ATOM     18  C   UNL     1      -1.641   5.872  25.002  0.00  0.00    +0.099 A 
ATOM     19  C   UNL     1      -2.181   5.262  25.133  0.00  0.00    +0.025 A 
ENDBRANCH  12  14
ENDBRANCH  10  11
BRANCH   3   2
ATOM      1  C   UNL     1      -4.227  -0.767  23.327  0.00  0.00    +0.010 C 
ATOM      2  C   UNL     1      -4.021  -0.592  24.107  0.00  0.00    +0.081 C 
BRANCH   2  25
ATOM     25  C   UNL     1      -3.672  -1.171  24.581  0.00  0.00    +0.241 C 
ATOM     26  O   UNL     1      -4.124  -1.570  25.144  0.00  0.00    -0.273 OA
ATOM     27  N   UNL     1      -2.871  -1.350  24.491  0.00  0.00    -0.200 NA
BRANCH  27  28
ATOM     28  C   UNL     1      -2.523  -1.928  24.964  0.00  0.00    +0.148 C 
BRANCH  28  29
ATOM     29  C   UNL     1      -1.702  -1.966  25.033  0.00  0.00    +0.029 A 
ATOM     30  C   UNL     1      -1.242  -1.560  25.586  0.00  0.00    +0.004 A 
ATOM     31  C   UNL     1      -0.452  -1.760  25.455  0.00  0.00    +0.007 A 
ATOM     32  C   UNL     1      -0.424  -2.289  24.822  0.00  0.00    +0.035 A 
ATOM     33  S   UNL     1      -1.196  -2.416  24.562  0.00  0.00    -0.089 S 
ENDBRANCH  28  29
ENDBRANCH  27  28
ENDBRANCH   2  25
ENDBRANCH   3   2
TORSDOF 6
ENDMDL
MODEL 3
REMARK VINA RESULT:     -10.1      3.559      5.355
REMARK  Name = 
REMARK  6 active torsions:
REMARK  status: ('A' for Active; 'I' for Inactive)
REMARK    1  A    between atoms: C_2  and  C_3
REMARK    2  A    between atoms: C_2  and  C_25
REMARK    3  A    between atoms: C_10  and  N_11
REMARK    4  A    between atoms: C_12  and  C_14
REMARK    5  A    between atoms: N_27  and  C_28
REMARK    6  A    between atoms: C_28  and  C_29
REMARK                            x       y       z     vdW  Elec       q    Type
REMARK                         _______ _______ _______ _____ _____    ______ ____
ROOT
ATOM      3  C   UNL     1      -0.008   0.680  23.994  0.00  0.00    +0.039 C 
ATOM      4  C   UNL     1       0.401   1.394  24.077  0.00  0.00    +0.003 C 
ATOM      5  C   UNL     1       0.005   2.067  24.340  0.00  0.00    +0.000 C 
ATOM      6  C   UNL     1      -0.798   2.029  24.521  0.00  0.00    +0.002 C 
ATOM      7  C   UNL     1      -0.390   2.740  24.604  0.00  0.00    +0.000 C 
ATOM      8  C   UNL     1      -1.195   2.703  24.785  0.00  0.00    +0.002 C 
ATOM      9  C   UNL     1      -1.998   2.665  24.966  0.00  0.00    +0.022 C 
ATOM     10  C   UNL     1      -2.406   1.952  24.883  0.00  0.00    +0.096 C 
ATOM     20  C   UNL     1      -2.011   1.279  24.620  0.00  0.00    +0.022 C 
ATOM     21  C   UNL     1      -2.419   0.566  24.537  0.00  0.00    +0.002 C 
ATOM     22  C   UNL     1      -1.207   1.316  24.439  0.00  0.00    +0.032 C 
ATOM     23  C   UNL     1      -0.811   0.643  24.175  0.00  0.00    +0.152 C 
ATOM     24  O   UNL     1      -1.219  -0.070  24.093  0.00  0.00    -0.223 OA
ENDROOT
BRANCH  10  11
ATOM     11  N   UNL     1      -3.211   1.915  25.065  0.00  0.00    -0.203 NA
ATOM     12  C   UNL     1      -3.707   2.543  24.870  0.00  0.00    +0.265 C 
ATOM     13  O   UNL     1      -3.400   3.211  24.494  0.00  0.00    -0.268 OA
BRANCH  12  14
ATOM     14  C   UNL     1      -4.512   2.506  25.052  0.00  0.00    +0.058 A 
ATOM     15  C   UNL     1      -5.008   2.004  24.626  0.00  0.00    +0.025 A 
ATOM     16  C   UNL     1      -5.812   1.966  24.807  0.00  0.00    +0.099 A 
ATOM     17  N   UNL     1      -6.119   2.432  25.415  0.00  0.00    -0.242 NA
ATOM     18  C   UNL     1      -5.623   2.934  25.842  0.00  0.00    +0.099 A 
ATOM     19  C   UNL     1      -4.819   2.971  25.660  0.00  0.00    +0.025 A 
ENDBRANCH  12  14
ENDBRANCH  10  11
BRANCH   3   2
ATOM      1  C   UNL     1       0.268  -0.718  24.106  0.00  0.00    +0.010 C 
ATOM      2  C   UNL     1       0.389   0.007  23.730  0.00  0.00    +0.081 C 
BRANCH   2  25
ATOM     25  C   UNL     1       0.907   0.058  23.090  0.00  0.00    +0.241 C 
ATOM     26  O   UNL     1       0.610   0.076  22.320  0.00  0.00    -0.273 OA
ATOM     27  N   UNL     1       1.722   0.090  23.220  0.00  0.00    -0.200 NA
BRANCH  27  28
ATOM     28  C   UNL     1       2.239   0.141  22.580  0.00  0.00    +0.148 C 
BRANCH  28  29
ATOM     29  C   UNL     1       3.042   0.280  22.708  0.00  0.00    +0.029 A 
ATOM     30  C   UNL     1       3.430   1.002  22.615  0.00  0.00    +0.004 A 
ATOM     31  C   UNL     1       4.226   0.889  22.801  0.00  0.00    +0.007 A 
ATOM     32  C   UNL     1       4.329   0.097  23.010  0.00  0.00    +0.035 A 
ATOM     33  S   UNL     1       3.597  -0.279  22.953  0.00  0.00    -0.089 S 
ENDBRANCH  28  29
ENDBRANCH  27  28
ENDBRANCH   2  25
ENDBRANCH   3   2
TORSDOF 6
ENDMDL
MODEL 4
REMARK VINA RESULT:     -10.1      2.603      6.367
REMARK  Name = 
REMARK  6 active torsions:
REMARK  status: ('A' for Active; 'I' for Inactive)
REMARK    1  A    between atoms: C_2  and  C_3
REMARK    2  A    between atoms: C_2  and  C_25
REMARK    3  A    between atoms: C_10  and  N_11
REMARK    4  A    between atoms: C_12  and  C_14
REMARK    5  A    between atoms: N_27  and  C_28
REMARK    6  A    between atoms: C_28  and  C_29
REMARK                            x       y       z     vdW  Elec       q    Type
REMARK                         _______ _______ _______ _____ _____    ______ ____
ROOT
ATOM      3  C   UNL     1      -0.560  -0.845  24.846  0.00  0.00    +0.039 C 
ATOM      4  C   UNL     1      -0.085  -0.907  24.173  0.00  0.00    +0.003 C 
ATOM      5  C   UNL     1       0.183  -0.226  23.793  0.00  0.00    +0.000 C 
ATOM      6  C   UNL     1      -0.024   0.517  24.085  0.00  0.00    +0.002 C 
ATOM      7  C   UNL     1       0.450   0.455  23.413  0.00  0.00    +0.000 C 
ATOM      8  C   UNL     1       0.243   1.199  23.705  0.00  0.00    +0.002 C 
ATOM      9  C   UNL     1       0.037   1.942  23.996  0.00  0.00    +0.022 C 
ATOM     10  C   UNL     1      -0.438   2.004  24.669  0.00  0.00    +0.096 C 
ATOM     20  C   UNL     1      -0.706   1.322  25.049  0.00  0.00    +0.022 C 
ATOM     21  C   UNL     1      -1.180   1.384  25.721  0.00  0.00    +0.002 C 
ATOM     22  C   UNL     1      -0.499   0.579  24.757  0.00  0.00    +0.032 C 
ATOM     23  C   UNL     1      -0.766  -0.103  25.137  0.00  0.00    +0.152 C 
ATOM     24  O   UNL     1      -1.241  -0.041  25.809  0.00  0.00    -0.223 OA
ENDROOT
BRANCH  10  11
ATOM     11  N   UNL     1      -0.645   2.747  24.961  0.00  0.00    -0.203 NA
ATOM     12  C   UNL     1      -1.000   3.302  24.464  0.00  0.00    +0.265 C 
ATOM     13  O   UNL     1      -1.149   3.112  23.674  0.00  0.00    -0.268 OA
BRANCH  12  14
ATOM     14  C   UNL     1      -1.207   4.045  24.756  0.00  0.00    +0.058 A 
ATOM     15  C   UNL     1      -1.931   4.154  25.134  0.00  0.00    +0.025 A 
ATOM     16  C   UNL     1      -2.138   4.898  25.425  0.00  0.00    +0.099 A 
ATOM     17  N   UNL     1      -1.619   5.533  25.338  0.00  0.00    -0.242 NA
ATOM     18  C   UNL     1      -0.893   5.425  24.959  0.00  0.00    +0.099 A 
ATOM     19  C   UNL     1      -0.688   4.681  24.669  0.00  0.00    +0.025 A 
ENDBRANCH  12  14
ENDBRANCH  10  11
BRANCH   3   2
ATOM      1  C   UNL     1      -0.623  -1.670  26.012  0.00  0.00    +0.010 C 
ATOM      2  C   UNL     1      -0.827  -1.527  25.225  0.00  0.00    +0.081 C 
BRANCH   2  25
ATOM     25  C   UNL     1      -1.298  -2.068  24.818  0.00  0.00    +0.241 C 
ATOM     26  O   UNL     1      -0.956  -2.732  24.467  0.00  0.00    -0.273 OA
ATOM     27  N   UNL     1      -2.113  -1.945  24.760  0.00  0.00    -0.200 NA
BRANCH  27  28
ATOM     28  C   UNL     1      -2.584  -2.485  24.353  0.00  0.00    +0.148 C 
BRANCH  28  29
ATOM     29  C   UNL     1      -3.366  -2.297  24.173  0.00  0.00    +0.029 A 
ATOM     30  C   UNL     1      -3.670  -1.537  24.064  0.00  0.00    +0.004 A 
ATOM     31  C   UNL     1      -4.475  -1.607  23.894  0.00  0.00    +0.007 A 
ATOM     32  C   UNL     1      -4.668  -2.410  23.898  0.00  0.00    +0.035 A 
ATOM     33  S   UNL     1      -3.983  -2.836  24.071  0.00  0.00    -0.089 S 
ENDBRANCH  28  29
ENDBRANCH  27  28
ENDBRANCH   2  25
ENDBRANCH   3   2
TORSDOF 6
ENDMDL
MODEL 5
REMARK VINA RESULT:     -10.0      2.576      4.967
REMARK  Name = 
REMARK  6 active torsions:
REMARK  status: ('A' for Active; 'I' for Inactive)
REMARK    1  A    between atoms: C_2  and  C_3
REMARK    2  A    between atoms: C_2  and  C_25
REMARK    3  A    between atoms: C_10  and  N_11
REMARK    4  A    between atoms: C_12  and  C_14
REMARK    5  A    between atoms: N_27  and  C_28
REMARK    6  A    between atoms: C_28  and  C_29
REMARK                            x       y       z     vdW  Elec       q    Type
REMARK                         _______ _______ _______ _____ _____    ______ ____
ROOT
ATOM      3  C   UNL     1      -1.740  -1.135  24.698  0.00  0.00    +0.039 C 
ATOM      4  C   UNL     1      -2.253  -1.725  24.430  0.00  0.00    +0.003 C 
ATOM      5  C   UNL     1      -3.066  -1.585  24.410  0.00  0.00    +0.000 C 
ATOM      6  C   UNL     1      -3.365  -0.857  24.655  0.00  0.00    +0.002 C 
ATOM      7  C   UNL     1      -3.878  -1.445  24.389  0.00  0.00    +0.000 C 
ATOM      8  C   UNL     1      -4.178  -0.717  24.635  0.00  0.00    +0.002 C 
ATOM      9  C   UNL     1      -4.478   0.010  24.881  0.00  0.00    +0.022 C 
ATOM     10  C   UNL     1      -3.965   0.599  25.148  0.00  0.00    +0.096 C 
ATOM     20  C   UNL     1      -3.153   0.460  25.169  0.00  0.00    +0.022 C 
ATOM     21  C   UNL     1      -2.640   1.048  25.436  0.00  0.00    +0.002 C 
ATOM     22  C   UNL     1      -2.852  -0.268  24.923  0.00  0.00    +0.032 C 
ATOM     23  C   UNL     1      -2.040  -0.408  24.943  0.00  0.00    +0.152 C 
ATOM     24  O   UNL     1      -1.527   0.181  25.210  0.00  0.00    -0.223 OA
ENDROOT
BRANCH  10  11
ATOM     11  N   UNL     1      -4.265   1.328  25.394  0.00  0.00    -0.203 NA
ATOM     12  C   UNL     1      -4.845   1.707  24.947  0.00  0.00    +0.265 C 
ATOM     13  O   UNL     1      -5.125   1.359  24.253  0.00  0.00    -0.268 OA
BRANCH  12  14
ATOM     14  C   UNL     1      -5.145   2.435  25.193  0.00  0.00    +0.058 A 
ATOM     15  C   UNL     1      -4.757   3.133  24.988  0.00  0.00    +0.025 A 
ATOM     16  C   UNL     1      -5.058   3.861  25.234  0.00  0.00    +0.099 A 
ATOM     17  N   UNL     1      -5.748   3.890  25.686  0.00  0.00    -0.242 NA
ATOM     18  C   UNL     1      -6.137   3.192  25.892  0.00  0.00    +0.099 A 
ATOM     19  C   UNL     1      -5.835   2.465  25.645  0.00  0.00    +0.025 A 
ENDBRANCH  12  14
ENDBRANCH  10  11
BRANCH   3   2
ATOM      1  C   UNL     1      -0.552  -1.432  25.436  0.00  0.00    +0.010 C 
ATOM      2  C   UNL     1      -0.927  -1.276  24.718  0.00  0.00    +0.081 C 
BRANCH   2  25
ATOM     25  C   UNL     1      -0.488  -1.260  24.020  0.00  0.00    +0.241 C 
ATOM     26  O   UNL     1      -0.616  -1.832  23.438  0.00  0.00    -0.273 OA
ATOM     27  N   UNL     1       0.079  -0.671  23.901  0.00  0.00    -0.200 NA
BRANCH  27  28
ATOM     28  C   UNL     1       0.517  -0.655  23.203  0.00  0.00    +0.148 C 
BRANCH  28  29
ATOM     29  C   UNL     1       1.142  -0.124  23.121  0.00  0.00    +0.029 A 
ATOM     30  C   UNL     1       1.157   0.655  23.393  0.00  0.00    +0.004 A 
ATOM     31  C   UNL     1       1.887   0.981  23.191  0.00  0.00    +0.007 A 
ATOM     32  C   UNL     1       2.324   0.404  22.794  0.00  0.00    +0.035 A 
ATOM     33  S   UNL     1       1.864  -0.279  22.751  0.00  0.00    -0.089 S 
ENDBRANCH  28  29
ENDBRANCH  27  28
ENDBRANCH   2  25
ENDBRANCH   3   2
TORSDOF 6
ENDMDL
MODEL 6
REMARK VINA RESULT:      -9.6      2.975      4.266
REMARK  Name = 
REMARK  6 active torsions:
REMARK  status: ('A' for Active; 'I' for Inactive)
REMARK    1  A    between atoms: C_2  and  C_3
REMARK    2  A    between atoms: C_2  and  C_25
REMARK    3  A    between atoms: C_10  and  N_11
REMARK    4  A    between atoms: C_12  and  C_14
REMARK    5  A    between atoms: N_27  and  C_28
REMARK    6  A    between atoms: C_28  and  C_29
REMARK                            x       y       z     vdW  Elec       q    Type
REMARK                         _______ _______ _______ _____ _____    ______ ____
ROOT
ATOM      3  C   UNL     1      -3.449  -0.050  24.842  0.00  0.00    +0.039 C 
ATOM      4  C   UNL     1      -3.327  -0.552  25.486  0.00  0.00    +0.003 C 
ATOM      5  C   UNL     1      -2.565  -0.799  25.678  0.00  0.00    +0.000 C 
ATOM      6  C   UNL     1      -1.923  -0.546  25.226  0.00  0.00    +0.002 C 
ATOM      7  C   UNL     1      -1.802  -1.046  25.869  0.00  0.00    +0.000 C 
ATOM      8  C   UNL     1      -1.160  -0.793  25.416  0.00  0.00    +0.002 C 
ATOM      9  C   UNL     1      -0.519  -0.540  24.964  0.00  0.00    +0.022 C 
ATOM     10  C   UNL     1      -0.641  -0.038  24.320  0.00  0.00    +0.096 C 
ATOM     20  C   UNL     1      -1.403   0.209  24.129  0.00  0.00    +0.022 C 
ATOM     21  C   UNL     1      -1.525   0.710  23.485  0.00  0.00    +0.002 C 
ATOM     22  C   UNL     1      -2.045  -0.044  24.581  0.00  0.00    +0.032 C 
ATOM     23  C   UNL     1      -2.808   0.203  24.390  0.00  0.00    +0.152 C 
ATOM     24  O   UNL     1      -2.930   0.704  23.746  0.00  0.00    -0.223 OA
ENDROOT
BRANCH  10  11
ATOM     11  N   UNL     1       0.002   0.215  23.867  0.00  0.00    -0.203 NA
ATOM     12  C   UNL     1       0.584  -0.322  23.640  0.00  0.00    +0.265 C 
ATOM     13  O   UNL     1       0.525  -1.115  23.864  0.00  0.00    -0.268 OA
BRANCH  12  14
ATOM     14  C   UNL     1       1.226  -0.069  23.187  0.00  0.00    +0.058 A 
ATOM     15  C   UNL     1       1.745   0.497  23.487  0.00  0.00    +0.025 A 
ATOM     16  C   UNL     1       2.387   0.751  23.035  0.00  0.00    +0.099 A 
ATOM     17  N   UNL     1       2.509   0.437  22.282  0.00  0.00    -0.242 NA
ATOM     18  C   UNL     1       1.990  -0.130  21.981  0.00  0.00    +0.099 A 
ATOM     19  C   UNL     1       1.349  -0.383  22.434  0.00  0.00    +0.025 A 
ENDBRANCH  12  14
ENDBRANCH  10  11
BRANCH   3   2
ATOM      1  C   UNL     1      -4.554  -0.028  23.934  0.00  0.00    +0.010 C 
ATOM      2  C   UNL     1      -4.213   0.197  24.651  0.00  0.00    +0.081 C 
BRANCH   2  25
ATOM     25  C   UNL     1      -4.637   0.670  25.177  0.00  0.00    +0.241 C 
ATOM     26  O   UNL     1      -5.039   0.326  25.811  0.00  0.00    -0.273 OA
ATOM     27  N   UNL     1      -4.658   1.489  25.071  0.00  0.00    -0.200 NA
BRANCH  27  28
ATOM     28  C   UNL     1      -5.081   1.962  25.597  0.00  0.00    +0.148 C 
BRANCH  28  29
ATOM     29  C   UNL     1      -5.030   2.784  25.546  0.00  0.00    +0.029 A 
ATOM     30  C   UNL     1      -4.336   3.230  25.573  0.00  0.00    +0.004 A 
ATOM     31  C   UNL     1      -4.542   4.025  25.503  0.00  0.00    +0.007 A 
ATOM     32  C   UNL     1      -5.364   4.071  25.433  0.00  0.00    +0.035 A 
ATOM     33  S   UNL     1      -5.665   3.304  25.460  0.00  0.00    -0.089 S 
ENDBRANCH  28  29
ENDBRANCH  27  28
ENDBRANCH   2  25
ENDBRANCH   3   2
TORSDOF 6
ENDMDL
MODEL 7
REMARK VINA RESULT:      -9.6      2.940      4.439
REMARK  Name = 
REMARK  6 active torsions:
REMARK  status: ('A' for Active; 'I' for Inactive)
REMARK    1  A    between atoms: C_2  and  C_3
REMARK    2  A    between atoms: C_2  and  C_25
REMARK    3  A    between atoms: C_10  and  N_11
REMARK    4  A    between atoms: C_12  and  C_14
REMARK    5  A    between atoms: N_27  and  C_28
REMARK    6  A    between atoms: C_28  and  C_29
REMARK                            x       y       z     vdW  Elec       q    Type
REMARK                         _______ _______ _______ _____ _____    ______ ____
ROOT
ATOM      3  C   UNL     1      -2.110   3.532  25.381  0.00  0.00    +0.039 C 
ATOM      4  C   UNL     1      -1.795   3.506  26.144  0.00  0.00    +0.003 C 
ATOM      5  C   UNL     1      -1.093   3.097  26.287  0.00  0.00    +0.000 C 
ATOM      6  C   UNL     1      -0.706   2.715  25.668  0.00  0.00    +0.002 C 
ATOM      7  C   UNL     1      -0.392   2.688  26.429  0.00  0.00    +0.000 C 
ATOM      8  C   UNL     1      -0.003   2.305  25.810  0.00  0.00    +0.002 C 
ATOM      9  C   UNL     1       0.384   1.923  25.191  0.00  0.00    +0.022 C 
ATOM     10  C   UNL     1       0.069   1.949  24.428  0.00  0.00    +0.096 C 
ATOM     20  C   UNL     1      -0.632   2.358  24.285  0.00  0.00    +0.022 C 
ATOM     21  C   UNL     1      -0.946   2.384  23.523  0.00  0.00    +0.002 C 
ATOM     22  C   UNL     1      -1.020   2.741  24.905  0.00  0.00    +0.032 C 
ATOM     23  C   UNL     1      -1.722   3.150  24.762  0.00  0.00    +0.152 C 
ATOM     24  O   UNL     1      -2.036   3.176  24.000  0.00  0.00    -0.223 OA
ENDROOT
BRANCH  10  11
ATOM     11  N   UNL     1       0.458   1.566  23.809  0.00  0.00    -0.203 NA
ATOM     12  C   UNL     1       0.609   0.757  23.853  0.00  0.00    +0.265 C 
ATOM     13  O   UNL     1       0.371   0.329  24.518  0.00  0.00    -0.268 OA
BRANCH  12  14
ATOM     14  C   UNL     1       0.997   0.374  23.234  0.00  0.00    +0.058 A 
ATOM     15  C   UNL     1       1.804   0.494  23.116  0.00  0.00    +0.025 A 
ATOM     16  C   UNL     1       2.192   0.111  22.497  0.00  0.00    +0.099 A 
ATOM     17  N   UNL     1       1.772  -0.392  21.995  0.00  0.00    -0.242 NA
ATOM     18  C   UNL     1       0.964  -0.512  22.113  0.00  0.00    +0.099 A 
ATOM     19  C   UNL     1       0.577  -0.129  22.733  0.00  0.00    +0.025 A 
ENDBRANCH  12  14
ENDBRANCH  10  11
BRANCH   3   2
ATOM      1  C   UNL     1      -2.830   4.553  24.686  0.00  0.00    +0.010 C 
ATOM      2  C   UNL     1      -2.812   3.941  25.239  0.00  0.00    +0.081 C 
BRANCH   2  25
ATOM     25  C   UNL     1      -3.498   3.738  25.651  0.00  0.00    +0.241 C 
ATOM     26  O   UNL     1      -3.650   4.074  26.390  0.00  0.00    -0.273 OA
ATOM     27  N   UNL     1      -4.031   3.200  25.324  0.00  0.00    -0.200 NA
BRANCH  27  28
ATOM     28  C   UNL     1      -4.716   2.997  25.735  0.00  0.00    +0.148 C 
BRANCH  28  29
ATOM     29  C   UNL     1      -5.210   2.403  25.447  0.00  0.00    +0.029 A 
ATOM     30  C   UNL     1      -4.984   1.632  25.258  0.00  0.00    +0.004 A 
ATOM     31  C   UNL     1      -5.652   1.229  24.991  0.00  0.00    +0.007 A 
ATOM     32  C   UNL     1      -6.292   1.750  25.015  0.00  0.00    +0.035 A 
ATOM     33  S   UNL     1      -6.019   2.476  25.297  0.00  0.00    -0.089 S 
ENDBRANCH  28  29
ENDBRANCH  27  28
ENDBRANCH   2  25
ENDBRANCH   3   2
TORSDOF 6
ENDMDL
MODEL 8
REMARK VINA RESULT:      -9.1      2.364      5.647
REMARK  Name = 
REMARK  6 active torsions:
REMARK  status: ('A' for Active; 'I' for Inactive)
REMARK    1  A    between atoms: C_2  and  C_3
REMARK    2  A    between atoms: C_2  and  C_25
REMARK    3  A    between atoms: C_10  and  N_11
REMARK    4  A    between atoms: C_12  and  C_14
REMARK    5  A    between atoms: N_27  and  C_28
REMARK    6  A    between atoms: C_28  and  C_29
REMARK                            x       y       z     vdW  Elec       q    Type
REMARK                         _______ _______ _______ _____ _____    ______ ____
ROOT
ATOM      3  C   UNL     1      -0.696   0.862  24.448  0.00  0.00    +0.039 C 
ATOM      4  C   UNL     1      -0.147   1.221  24.950  0.00  0.00    +0.003 C 
ATOM      5  C   UNL     1      -0.355   1.900  25.369  0.00  0.00    +0.000 C 
ATOM      6  C   UNL     1      -1.110   2.220  25.288  0.00  0.00    +0.002 C 
ATOM      7  C   UNL     1      -0.562   2.579  25.789  0.00  0.00    +0.000 C 
ATOM      8  C   UNL     1      -1.318   2.900  25.708  0.00  0.00    +0.002 C 
ATOM      9  C   UNL     1      -2.073   3.220  25.627  0.00  0.00    +0.022 C 
ATOM     10  C   UNL     1      -2.622   2.861  25.125  0.00  0.00    +0.096 C 
ATOM     20  C   UNL     1      -2.415   2.182  24.706  0.00  0.00    +0.022 C 
ATOM     21  C   UNL     1      -2.963   1.824  24.204  0.00  0.00    +0.002 C 
ATOM     22  C   UNL     1      -1.659   1.861  24.786  0.00  0.00    +0.032 C 
ATOM     23  C   UNL     1      -1.452   1.183  24.367  0.00  0.00    +0.152 C 
ATOM     24  O   UNL     1      -2.000   0.824  23.866  0.00  0.00    -0.223 OA
ENDROOT
BRANCH  10  11
ATOM     11  N   UNL     1      -3.378   3.182  25.044  0.00  0.00    -0.203 NA
ATOM     12  C   UNL     1      -3.821   3.371  25.714  0.00  0.00    +0.265 C 
ATOM     13  O   UNL     1      -3.507   3.238  26.467  0.00  0.00    -0.268 OA
BRANCH  12  14
ATOM     14  C   UNL     1      -4.576   3.692  25.633  0.00  0.00    +0.058 A 
ATOM     15  C   UNL     1      -4.668   4.489  25.446  0.00  0.00    +0.025 A 
ATOM     16  C   UNL     1      -5.424   4.810  25.365  0.00  0.00    +0.099 A 
ATOM     17  N   UNL     1      -6.088   4.333  25.472  0.00  0.00    -0.242 NA
ATOM     18  C   UNL     1      -5.997   3.534  25.659  0.00  0.00    +0.099 A 
ATOM     19  C   UNL     1      -5.240   3.214  25.740  0.00  0.00    +0.025 A 
ENDBRANCH  12  14
ENDBRANCH  10  11
BRANCH   3   2
ATOM      1  C   UNL     1      -0.226   0.243  23.248  0.00  0.00    +0.010 C 
ATOM      2  C   UNL     1      -0.488   0.183  24.028  0.00  0.00    +0.081 C 
BRANCH   2  25
ATOM     25  C   UNL     1      -0.543  -0.557  24.389  0.00  0.00    +0.241 C 
ATOM     26  O   UNL     1       0.105  -0.865  24.798  0.00  0.00    -0.273 OA
ATOM     27  N   UNL     1      -1.245  -0.989  24.341  0.00  0.00    -0.200 NA
BRANCH  27  28
ATOM     28  C   UNL     1      -1.299  -1.728  24.701  0.00  0.00    +0.148 C 
BRANCH  28  29
ATOM     29  C   UNL     1      -2.025  -2.117  24.739  0.00  0.00    +0.029 A 
ATOM     30  C   UNL     1      -2.632  -1.960  25.276  0.00  0.00    +0.004 A 
ATOM     31  C   UNL     1      -3.254  -2.477  25.115  0.00  0.00    +0.007 A 
ATOM     32  C   UNL     1      -3.032  -2.954  24.479  0.00  0.00    +0.035 A 
ATOM     33  S   UNL     1      -2.272  -2.731  24.247  0.00  0.00    -0.089 S 
ENDBRANCH  28  29
ENDBRANCH  27  28
ENDBRANCH   2  25
ENDBRANCH   3   2
TORSDOF 6
ENDMDL
MODEL 9
REMARK VINA RESULT:      -9.1      1.819      2.899
REMARK  Name = 
REMARK  6 active torsions:
REMARK  status: ('A' for Active; 'I' for Inactive)
REMARK    1  A    between atoms: C_2  and  C_3
REMARK    2  A    between atoms: C_2  and  C_25
REMARK    3  A    between atoms: C_10  and  N_11
REMARK    4  A    between atoms: C_12  and  C_14
REMARK    5  A    between atoms: N_27  and  C_28
REMARK    6  A    between atoms: C_28  and  C_29
REMARK                            x       y       z     vdW  Elec       q    Type
REMARK                         _______ _______ _______ _____ _____    ______ ____
ROOT
ATOM      3  C   UNL     1      -1.269   2.601  24.950  0.00  0.00    +0.039 C 
ATOM      4  C   UNL     1      -0.745   2.464  25.574  0.00  0.00    +0.003 C 
ATOM      5  C   UNL     1      -0.630   1.697  25.854  0.00  0.00    +0.000 C 
ATOM      6  C   UNL     1      -1.037   1.067  25.511  0.00  0.00    +0.002 C 
ATOM      7  C   UNL     1      -0.514   0.930  26.134  0.00  0.00    +0.000 C 
ATOM      8  C   UNL     1      -0.921   0.299  25.791  0.00  0.00    +0.002 C 
ATOM      9  C   UNL     1      -1.328  -0.330  25.449  0.00  0.00    +0.022 C 
ATOM     10  C   UNL     1      -1.852  -0.193  24.825  0.00  0.00    +0.096 C 
ATOM     20  C   UNL     1      -1.967   0.574  24.545  0.00  0.00    +0.022 C 
ATOM     21  C   UNL     1      -2.490   0.711  23.922  0.00  0.00    +0.002 C 
ATOM     22  C   UNL     1      -1.560   1.204  24.888  0.00  0.00    +0.032 C 
ATOM     23  C   UNL     1      -1.676   1.971  24.608  0.00  0.00    +0.152 C 
ATOM     24  O   UNL     1      -2.199   2.108  23.985  0.00  0.00    -0.223 OA
ENDROOT
BRANCH  10  11
ATOM     11  N   UNL     1      -2.259  -0.824  24.482  0.00  0.00    -0.203 NA
ATOM     12  C   UNL     1      -2.761  -1.289  24.941  0.00  0.00    +0.265 C 
ATOM     13  O   UNL     1      -2.857  -1.125  25.745  0.00  0.00    -0.268 OA
BRANCH  12  14
ATOM     14  C   UNL     1      -3.168  -1.920  24.598  0.00  0.00    +0.058 A 
ATOM     15  C   UNL     1      -3.896  -1.792  24.233  0.00  0.00    +0.025 A 
ATOM     16  C   UNL     1      -4.303  -2.423  23.890  0.00  0.00    +0.099 A 
ATOM     17  N   UNL     1      -3.981  -3.182  23.914  0.00  0.00    -0.242 NA
ATOM     18  C   UNL     1      -3.252  -3.311  24.279  0.00  0.00    +0.099 A 
ATOM     19  C   UNL     1      -2.846  -2.679  24.622  0.00  0.00    +0.025 A 
ENDBRANCH  12  14
ENDBRANCH  10  11
BRANCH   3   2
ATOM      1  C   UNL     1      -0.981   3.630  24.000  0.00  0.00    +0.010 C 
ATOM      2  C   UNL     1      -1.384   3.369  24.671  0.00  0.00    +0.081 C 
BRANCH   2  25
ATOM     25  C   UNL     1      -1.904   3.876  25.063  0.00  0.00    +0.241 C 
ATOM     26  O   UNL     1      -1.610   4.522  25.484  0.00  0.00    -0.273 OA
ATOM     27  N   UNL     1      -2.717   3.738  25.033  0.00  0.00    -0.200 NA
BRANCH  27  28
ATOM     28  C   UNL     1      -3.236   4.245  25.425  0.00  0.00    +0.148 C 
BRANCH  28  29
ATOM     29  C   UNL     1      -4.025   4.030  25.526  0.00  0.00    +0.029 A 
ATOM     30  C   UNL     1      -4.326   3.560  26.135  0.00  0.00    +0.004 A 
ATOM     31  C   UNL     1      -5.140   3.487  26.022  0.00  0.00    +0.007 A 
ATOM     32  C   UNL     1      -5.342   3.911  25.343  0.00  0.00    +0.035 A 
ATOM     33  S   UNL     1      -4.654   4.247  25.037  0.00  0.00    -0.089 S 
ENDBRANCH  28  29
ENDBRANCH  27  28
ENDBRANCH   2  25
ENDBRANCH   3   2
TORSDOF 6
ENDMDL
MODEL 10
REMARK VINA RESULT:      -8.3      2.703      4.717
REMARK  Name = 
REMARK  6 active torsions:
REMARK  status: ('A' for Active; 'I' for Inactive)
REMARK    1  A    between atoms: C_2  and  C_3
REMARK    2  A    between atoms: C_2  and  C_25
REMARK    3  A    between atoms: C_10  and  N_11
REMARK    4  A    between atoms: C_12  and  C_14
REMARK    5  A    between atoms: N_27  and  C_28
REMARK    6  A    between atoms: C_28  and  C_29
REMARK                            x       y       z     vdW  Elec       q    Type
REMARK                         _______ _______ _______ _____ _____    ______ ____
ROOT
ATOM      3  C   UNL     1      -0.636   2.895  25.264  0.00  0.00    +0.039 C 
ATOM      4  C   UNL     1      -0.625   3.721  25.249  0.00  0.00    +0.003 C 
ATOM      5  C   UNL     1      -1.332   4.142  25.212  0.00  0.00    +0.000 C 
ATOM      6  C   UNL     1      -2.051   3.739  25.190  0.00  0.00    +0.002 C 
ATOM      7  C   UNL     1      -2.040   4.563  25.175  0.00  0.00    +0.000 C 
ATOM      8  C   UNL     1      -2.760   4.160  25.153  0.00  0.00    +0.002 C 
ATOM      9  C   UNL     1      -3.479   3.757  25.131  0.00  0.00    +0.022 C 
ATOM     10  C   UNL     1      -3.490   2.931  25.145  0.00  0.00    +0.096 C 
ATOM     20  C   UNL     1      -2.782   2.510  25.182  0.00  0.00    +0.022 C 
ATOM     21  C   UNL     1      -2.793   1.686  25.197  0.00  0.00    +0.002 C 
ATOM     22  C   UNL     1      -2.062   2.913  25.204  0.00  0.00    +0.032 C 
ATOM     23  C   UNL     1      -1.355   2.492  25.241  0.00  0.00    +0.152 C 
ATOM     24  O   UNL     1      -1.366   1.668  25.256  0.00  0.00    -0.223 OA
ENDROOT
BRANCH  10  11
ATOM     11  N   UNL     1      -4.210   2.529  25.123  0.00  0.00    -0.203 NA
ATOM     12  C   UNL     1      -4.860   2.821  25.537  0.00  0.00    +0.265 C 
ATOM     13  O   UNL     1      -4.791   3.518  25.975  0.00  0.00    -0.268 OA
BRANCH  12  14
ATOM     14  C   UNL     1      -5.580   2.418  25.515  0.00  0.00    +0.058 A 
ATOM     15  C   UNL     1      -5.931   2.240  24.791  0.00  0.00    +0.025 A 
ATOM     16  C   UNL     1      -6.651   1.837  24.768  0.00  0.00    +0.099 A 
ATOM     17  N   UNL     1      -7.019   1.613  25.472  0.00  0.00    -0.242 NA
ATOM     18  C   UNL     1      -6.668   1.791  26.197  0.00  0.00    +0.099 A 
ATOM     19  C   UNL     1      -5.948   2.194  26.218  0.00  0.00    +0.025 A 
ENDBRANCH  12  14
ENDBRANCH  10  11
BRANCH   3   2
ATOM      1  C   UNL     1       0.333   2.164  26.020  0.00  0.00    +0.010 C 
ATOM      2  C   UNL     1       0.073   2.474  25.300  0.00  0.00    +0.081 C 
BRANCH   2  25
ATOM     25  C   UNL     1       0.522   2.363  24.617  0.00  0.00    +0.241 C 
ATOM     26  O   UNL     1       0.853   3.014  24.231  0.00  0.00    -0.273 OA
ATOM     27  N   UNL     1       0.642   1.602  24.320  0.00  0.00    -0.200 NA
BRANCH  27  28
ATOM     28  C   UNL     1       1.090   1.492  23.638  0.00  0.00    +0.148 C 
BRANCH  28  29
ATOM     29  C   UNL     1       1.160   0.739  23.307  0.00  0.00    +0.029 A 
ATOM     30  C   UNL     1       0.541   0.213  23.163  0.00  0.00    +0.004 A 
ATOM     31  C   UNL     1       0.860  -0.470  22.829  0.00  0.00    +0.007 A 
ATOM     32  C   UNL     1       1.677  -0.366  22.766  0.00  0.00    +0.035 A 
ATOM     33  S   UNL     1       1.862   0.381  23.062  0.00  0.00    -0.089 S 
ENDBRANCH  28  29
ENDBRANCH  27  28
ENDBRANCH   2  25
ENDBRANCH   3   2
TORSDOF 6
ENDMDL
