MODEL 1
REMARK VINA RESULT:      -8.7      0.000      0.000
REMARK  Name = 
REMARK  8 active torsions:
REMARK  status: ('A' for Active; 'I' for Inactive)
REMARK    1  A    between atoms: C_2  and  C_4
REMARK    2  A    between atoms: C_6  and  C_7
REMARK    3  A    between atoms: C_7  and  C_8
REMARK    4  A    between atoms: C_18  and  C_19
REMARK    5  A    between atoms: C_19  and  N_20
REMARK    6  A    between atoms: N_20  and  S_21
REMARK    7  A    between atoms: S_21  and  C_24
REMARK    8  A    between atoms: C_27  and  N_28
REMARK                            x       y       z     vdW  Elec       q    Type
REMARK                         _______ _______ _______ _____ _____    ______ ____
ROOT
ATOM      4  C   UNL     1      -1.533   0.904  24.805  0.00  0.00    +0.006 C 
ATOM      5  C   UNL     1      -2.326   1.122  24.874  0.00  0.00    +0.005 C 
ATOM      6  C   UNL     1      -2.742   1.380  24.210  0.00  0.00    +0.027 C 
ATOM     15  C   UNL     1      -2.364   1.420  23.478  0.00  0.00    -0.048 C 
ATOM     16  C   UNL     1      -2.780   1.678  22.813  0.00  0.00    +0.026 C 
ATOM     17  C   UNL     1      -1.571   1.202  23.409  0.00  0.00    -0.033 C 
ATOM     18  C   UNL     1      -1.156   0.944  24.073  0.00  0.00    +0.041 C 
ENDROOT
BRANCH   4   2
ATOM      1  C   UNL     1      -0.668   1.181  25.908  0.00  0.00    +0.000 C 
ATOM      2  C   UNL     1      -1.118   0.646  25.470  0.00  0.00    +0.000 C 
ATOM      3  C   UNL     1      -1.152  -0.146  25.697  0.00  0.00    +0.000 C 
ENDBRANCH   4   2
BRANCH   6   7
ATOM      7  C   UNL     1      -3.534   1.598  24.278  0.00  0.00    +0.089 C 
BRANCH   7   8
ATOM      8  C   UNL     1      -3.749   2.227  24.767  0.00  0.00    +0.226 C 
ATOM      9  O   UNL     1      -3.203   2.823  24.935  0.00  0.00    -0.275 OA
ATOM     10  N   UNL     1      -4.508   2.260  25.088  0.00  0.00    -0.280 N 
ATOM     11  C   UNL     1      -5.109   1.708  24.969  0.00  0.00    +0.093 C 
ATOM     12  C   UNL     1      -5.772   1.958  25.392  0.00  0.00    +0.023 C 
ATOM     13  C   UNL     1      -5.581   2.666  25.771  0.00  0.00    +0.023 C 
ATOM     14  C   UNL     1      -4.799   2.852  25.583  0.00  0.00    +0.093 C 
ENDBRANCH   7   8
ENDBRANCH   6   7
BRANCH  18  19
ATOM     19  C   UNL     1      -0.364   0.726  24.005  0.00  0.00    +0.120 C 
BRANCH  19  20
ATOM     20  N   UNL     1      -0.051   0.530  23.267  0.00  0.00    -0.077 NA
BRANCH  20  21
ATOM     21  S   UNL     1       0.764   0.531  23.151  0.00  0.00    +0.077 S 
ATOM     22  O   UNL     1       0.747  -0.284  23.019  0.00  0.00    -0.152 OA
ATOM     23  O   UNL     1       0.782   1.346  23.282  0.00  0.00    -0.152 OA
BRANCH  21  24
ATOM     24  C   UNL     1       1.582   0.532  23.034  0.00  0.00    +0.124 A 
ATOM     25  C   UNL     1       1.932  -0.048  22.562  0.00  0.00    +0.021 A 
ATOM     26  C   UNL     1       2.748  -0.047  22.445  0.00  0.00    +0.018 A 
ATOM     27  C   UNL     1       3.216   0.533  22.801  0.00  0.00    +0.073 A 
ATOM     32  C   UNL     1       2.865   1.112  23.273  0.00  0.00    +0.018 A 
ATOM     33  C   UNL     1       2.048   1.111  23.389  0.00  0.00    +0.021 A 
BRANCH  27  28
ATOM     28  N   UNL     1       4.031   0.534  22.685  0.00  0.00    -0.179 NA
ATOM     29  C   UNL     1       4.519   0.082  23.172  0.00  0.00    +0.246 C 
ATOM     30  C   UNL     1       5.335   0.083  23.056  0.00  0.00    +0.097 C 
ATOM     31  O   UNL     1       4.188  -0.372  23.777  0.00  0.00    -0.273 OA
ENDBRANCH  27  28
ENDBRANCH  21  24
ENDBRANCH  20  21
ENDBRANCH  19  20
ENDBRANCH  18  19
TORSDOF 8
ENDMDL
MODEL 2
REMARK VINA RESULT:      -7.6      1.345      6.624
REMARK  Name = 
REMARK  8 active torsions:
REMARK  status: ('A' for Active; 'I' for Inactive)
REMARK    1  A    between atoms: C_2  and  C_4
REMARK    2  A    between atoms: C_6  and  C_7
REMARK    3  A    between atoms: C_7  and  C_8
REMARK    4  A    between atoms: C_18  and  C_19
REMARK    5  A    between atoms: C_19  and  N_20
REMARK    6  A    between atoms: N_20  and  S_21
REMARK    7  A    between atoms: S_21  and  C_24
REMARK    8  A    between atoms: C_27  and  N_28
REMARK                            x       y       z     vdW  Elec       q    Type
REMARK                         _______ _______ _______ _____ _____    ______ ____
ROOT
ATOM      4  C   UNL     1       0.309   1.387  24.168  0.00  0.00    +0.006 C 
ATOM      5  C   UNL     1       1.071   1.141  23.970  0.00  0.00    +0.005 C 
ATOM      6  C   UNL     1       1.181   0.479  23.491  0.00  0.00    +0.027 C 
ATOM     15  C   UNL     1       0.526   0.063  23.209  0.00  0.00    -0.048 C 
ATOM     16  C   UNL     1       0.635  -0.600  22.729  0.00  0.00    +0.026 C 
ATOM     17  C   UNL     1      -0.236   0.309  23.407  0.00  0.00    -0.033 C 
ATOM     18  C   UNL     1      -0.344   0.970  23.886  0.00  0.00    +0.041 C 
ENDROOT
BRANCH   4   2
ATOM      1  C   UNL     1       0.183   1.965  25.469  0.00  0.00    +0.000 C 
ATOM      2  C   UNL     1       0.201   2.049  24.648  0.00  0.00    +0.000 C 
ATOM      3  C   UNL     1       0.111   2.795  24.309  0.00  0.00    +0.000 C 
ENDBRANCH   4   2
BRANCH   6   7
ATOM      7  C   UNL     1       1.943   0.234  23.293  0.00  0.00    +0.089 C 
BRANCH   7   8
ATOM      8  C   UNL     1       2.501   0.785  23.037  0.00  0.00    +0.226 C 
ATOM      9  O   UNL     1       2.256   1.530  22.779  0.00  0.00    -0.275 OA
ATOM     10  N   UNL     1       3.303   0.592  23.039  0.00  0.00    -0.280 N 
ATOM     11  C   UNL     1       3.627  -0.126  23.281  0.00  0.00    +0.093 C 
ATOM     12  C   UNL     1       4.447  -0.079  23.191  0.00  0.00    +0.023 C 
ATOM     13  C   UNL     1       4.627   0.670  22.894  0.00  0.00    +0.023 C 
ATOM     14  C   UNL     1       3.920   1.085  22.800  0.00  0.00    +0.093 C 
ENDBRANCH   7   8
ENDBRANCH   6   7
BRANCH  18  19
ATOM     19  C   UNL     1      -1.107   1.216  24.084  0.00  0.00    +0.120 C 
BRANCH  19  20
ATOM     20  N   UNL     1      -1.761   0.799  23.803  0.00  0.00    -0.077 NA
BRANCH  20  21
ATOM     21  S   UNL     1      -2.521   1.026  24.025  0.00  0.00    +0.077 S 
ATOM     22  O   UNL     1      -2.459   0.566  24.707  0.00  0.00    -0.152 OA
ATOM     23  O   UNL     1      -2.583   1.487  23.342  0.00  0.00    -0.152 OA
BRANCH  21  24
ATOM     24  C   UNL     1      -3.283   1.253  24.248  0.00  0.00    +0.124 A 
ATOM     25  C   UNL     1      -3.761   0.732  24.674  0.00  0.00    +0.021 A 
ATOM     26  C   UNL     1      -4.522   0.959  24.896  0.00  0.00    +0.018 A 
ATOM     27  C   UNL     1      -4.806   1.707  24.693  0.00  0.00    +0.073 A 
ATOM     32  C   UNL     1      -4.328   2.227  24.268  0.00  0.00    +0.018 A 
ATOM     33  C   UNL     1      -3.566   2.000  24.045  0.00  0.00    +0.021 A 
BRANCH  27  28
ATOM     28  N   UNL     1      -5.566   1.934  24.916  0.00  0.00    -0.179 NA
ATOM     29  C   UNL     1      -5.679   2.394  25.591  0.00  0.00    +0.246 C 
ATOM     30  C   UNL     1      -6.440   2.621  25.814  0.00  0.00    +0.097 C 
ATOM     31  O   UNL     1      -5.030   2.627  26.043  0.00  0.00    -0.273 OA
ENDBRANCH  27  28
ENDBRANCH  21  24
ENDBRANCH  20  21
ENDBRANCH  19  20
ENDBRANCH  18  19
TORSDOF 8
ENDMDL
MODEL 3
REMARK VINA RESULT:      -5.8     15.291     16.160
REMARK  Name = 
REMARK  8 active torsions:
REMARK  status: ('A' for Active; 'I' for Inactive)
REMARK    1  A    between atoms: C_2  and  C_4
REMARK    2  A    between atoms: C_6  and  C_7
REMARK    3  A    between atoms: C_7  and  C_8
REMARK    4  A    between atoms: C_18  and  C_19
REMARK    5  A    between atoms: C_19  and  N_20
REMARK    6  A    between atoms: N_20  and  S_21
REMARK    7  A    between atoms: S_21  and  C_24
REMARK    8  A    between atoms: C_27  and  N_28
REMARK                            x       y       z     vdW  Elec       q    Type
REMARK                         _______ _______ _______ _____ _____    ______ ____
ROOT
ATOM      4  C   UNL     1      -8.140 -10.060  15.007  0.00  0.00    +0.006 C 
ATOM      5  C   UNL     1      -8.467 -10.078  15.764  0.00  0.00    +0.005 C 
ATOM      6  C   UNL     1      -7.976 -10.072  16.427  0.00  0.00    +0.027 C 
ATOM     15  C   UNL     1      -7.157 -10.048  16.331  0.00  0.00    -0.048 C 
ATOM     16  C   UNL     1      -6.665 -10.041  16.994  0.00  0.00    +0.026 C 
ATOM     17  C   UNL     1      -6.830 -10.029  15.574  0.00  0.00    -0.033 C 
ATOM     18  C   UNL     1      -7.321 -10.035  14.912  0.00  0.00    +0.041 C 
ENDROOT
BRANCH   4   2
ATOM      1  C   UNL     1      -8.913  -9.355  14.034  0.00  0.00    +0.000 C 
ATOM      2  C   UNL     1      -8.633 -10.066  14.345  0.00  0.00    +0.000 C 
ATOM      3  C   UNL     1      -8.844 -10.781  13.994  0.00  0.00    +0.000 C 
ENDBRANCH   4   2
BRANCH   6   7
ATOM      7  C   UNL     1      -8.303 -10.091  17.184  0.00  0.00    +0.089 C 
BRANCH   7   8
ATOM      8  C   UNL     1      -8.879  -9.541  17.399  0.00  0.00    +0.226 C 
ATOM      9  O   UNL     1      -8.842  -8.770  17.105  0.00  0.00    -0.275 OA
ATOM     10  N   UNL     1      -9.491  -9.760  17.906  0.00  0.00    -0.280 N 
ATOM     11  C   UNL     1      -9.598 -10.506  18.241  0.00  0.00    +0.093 C 
ATOM     12  C   UNL     1     -10.277 -10.479  18.710  0.00  0.00    +0.023 C 
ATOM     13  C   UNL     1     -10.588  -9.716  18.665  0.00  0.00    +0.023 C 
ATOM     14  C   UNL     1     -10.102  -9.271  18.167  0.00  0.00    +0.093 C 
ENDBRANCH   7   8
ENDBRANCH   6   7
BRANCH  18  19
ATOM     19  C   UNL     1      -6.994 -10.016  14.155  0.00  0.00    +0.120 C 
BRANCH  19  20
ATOM     20  N   UNL     1      -6.176  -9.984  14.060  0.00  0.00    -0.077 NA
BRANCH  20  21
ATOM     21  S   UNL     1      -5.849  -9.960  13.304  0.00  0.00    +0.077 S 
ATOM     22  O   UNL     1      -5.950  -9.141  13.286  0.00  0.00    -0.152 OA
ATOM     23  O   UNL     1      -5.748 -10.780  13.322  0.00  0.00    -0.152 OA
BRANCH  21  24
ATOM     24  C   UNL     1      -5.522  -9.936  12.546  0.00  0.00    +0.124 A 
ATOM     25  C   UNL     1      -6.004  -9.790  11.893  0.00  0.00    +0.021 A 
ATOM     26  C   UNL     1      -5.677  -9.766  11.136  0.00  0.00    +0.018 A 
ATOM     27  C   UNL     1      -4.868  -9.889  11.032  0.00  0.00    +0.073 A 
ATOM     32  C   UNL     1      -4.386 -10.035  11.685  0.00  0.00    +0.018 A 
ATOM     33  C   UNL     1      -4.713 -10.059  12.442  0.00  0.00    +0.021 A 
BRANCH  27  28
ATOM     28  N   UNL     1      -4.541  -9.865  10.275  0.00  0.00    -0.179 NA
ATOM     29  C   UNL     1      -4.280  -9.149   9.960  0.00  0.00    +0.246 C 
ATOM     30  C   UNL     1      -3.953  -9.125   9.203  0.00  0.00    +0.097 C 
ATOM     31  O   UNL     1      -4.347  -8.456  10.403  0.00  0.00    -0.273 OA
ENDBRANCH  27  28
ENDBRANCH  21  24
ENDBRANCH  20  21
ENDBRANCH  19  20
ENDBRANCH  18  19
TORSDOF 8
ENDMDL
MODEL 4
REMARK VINA RESULT:      -5.2     16.283     17.370
REMARK  Name = 
REMARK  8 active torsions:
REMARK  status: ('A' for Active; 'I' for Inactive)
REMARK    1  A    between atoms: C_2  and  C_4
REMARK    2  A    between atoms: C_6  and  C_7
REMARK    3  A    between atoms: C_7  and  C_8
REMARK    4  A    between atoms: C_18  and  C_19
REMARK    5  A    between atoms: C_19  and  N_20
REMARK    6  A    between atoms: N_20  and  S_21
REMARK    7  A    between atoms: S_21  and  C_24
REMARK    8  A    between atoms: C_27  and  N_28
REMARK                            x       y       z     vdW  Elec       q    Type
REMARK                         _______ _______ _______ _____ _____    ______ ____
ROOT
ATOM      4  C   UNL     1      -5.910  -9.170  10.742  0.00  0.00    +0.006 C 
ATOM      5  C   UNL     1      -6.629  -9.022  10.365  0.00  0.00    +0.005 C 
ATOM      6  C   UNL     1      -7.303  -9.446  10.580  0.00  0.00    +0.027 C 
ATOM     15  C   UNL     1      -7.257 -10.018  11.173  0.00  0.00    -0.048 C 
ATOM     16  C   UNL     1      -7.932 -10.442  11.389  0.00  0.00    +0.026 C 
ATOM     17  C   UNL     1      -6.538 -10.165  11.550  0.00  0.00    -0.033 C 
ATOM     18  C   UNL     1      -5.865  -9.741  11.334  0.00  0.00    +0.041 C 
ENDROOT
BRANCH   4   2
ATOM      1  C   UNL     1      -4.704  -9.065   9.984  0.00  0.00    +0.000 C 
ATOM      2  C   UNL     1      -5.236  -8.745  10.526  0.00  0.00    +0.000 C 
ATOM      3  C   UNL     1      -5.095  -8.001  10.852  0.00  0.00    +0.000 C 
ENDBRANCH   4   2
BRANCH   6   7
ATOM      7  C   UNL     1      -8.021  -9.298  10.203  0.00  0.00    +0.089 C 
BRANCH   7   8
ATOM      8  C   UNL     1      -8.050  -9.225   9.382  0.00  0.00    +0.226 C 
ATOM      9  O   UNL     1      -7.574  -9.706   8.909  0.00  0.00    -0.275 OA
ATOM     10  N   UNL     1      -8.553  -8.672   9.034  0.00  0.00    -0.280 N 
ATOM     11  C   UNL     1      -9.057  -8.156   9.433  0.00  0.00    +0.093 C 
ATOM     12  C   UNL     1      -9.455  -7.703   8.871  0.00  0.00    +0.023 C 
ATOM     13  C   UNL     1      -9.197  -7.939   8.124  0.00  0.00    +0.023 C 
ATOM     14  C   UNL     1      -8.639  -8.538   8.224  0.00  0.00    +0.093 C 
ENDBRANCH   7   8
ENDBRANCH   6   7
BRANCH  18  19
ATOM     19  C   UNL     1      -5.146  -9.889  11.712  0.00  0.00    +0.120 C 
BRANCH  19  20
ATOM     20  N   UNL     1      -5.124 -10.360  12.389  0.00  0.00    -0.077 NA
BRANCH  20  21
ATOM     21  S   UNL     1      -4.421 -10.444  12.810  0.00  0.00    +0.077 S 
ATOM     22  O   UNL     1      -4.063 -10.776  12.145  0.00  0.00    -0.152 OA
ATOM     23  O   UNL     1      -4.780 -10.112  13.476  0.00  0.00    -0.152 OA
BRANCH  21  24
ATOM     24  C   UNL     1      -3.716 -10.528  13.232  0.00  0.00    +0.124 A 
ATOM     25  C   UNL     1      -2.992 -10.469  12.841  0.00  0.00    +0.021 A 
ATOM     26  C   UNL     1      -2.288 -10.553  13.262  0.00  0.00    +0.018 A 
ATOM     27  C   UNL     1      -2.308 -10.697  14.075  0.00  0.00    +0.073 A 
ATOM     32  C   UNL     1      -3.032 -10.756  14.465  0.00  0.00    +0.018 A 
ATOM     33  C   UNL     1      -3.737 -10.672  14.043  0.00  0.00    +0.021 A 
BRANCH  27  28
ATOM     28  N   UNL     1      -1.605 -10.781  14.496  0.00  0.00    -0.179 NA
ATOM     29  C   UNL     1      -1.591 -10.641  15.309  0.00  0.00    +0.246 C 
ATOM     30  C   UNL     1      -0.887 -10.726  15.731  0.00  0.00    +0.097 C 
ATOM     31  O   UNL     1      -2.282 -10.417  15.700  0.00  0.00    -0.273 OA
ENDBRANCH  27  28
ENDBRANCH  21  24
ENDBRANCH  20  21
ENDBRANCH  19  20
ENDBRANCH  18  19
TORSDOF 8
ENDMDL
MODEL 5
REMARK VINA RESULT:      -4.7     14.686     15.481
REMARK  Name = 
REMARK  8 active torsions:
REMARK  status: ('A' for Active; 'I' for Inactive)
REMARK    1  A    between atoms: C_2  and  C_4
REMARK    2  A    between atoms: C_6  and  C_7
REMARK    3  A    between atoms: C_7  and  C_8
REMARK    4  A    between atoms: C_18  and  C_19
REMARK    5  A    between atoms: C_19  and  N_20
REMARK    6  A    between atoms: N_20  and  S_21
REMARK    7  A    between atoms: S_21  and  C_24
REMARK    8  A    between atoms: C_27  and  N_28
REMARK                            x       y       z     vdW  Elec       q    Type
REMARK                         _______ _______ _______ _____ _____    ______ ____
ROOT
ATOM      4  C   UNL     1      -6.216 -10.239  14.495  0.00  0.00    +0.006 C 
ATOM      5  C   UNL     1      -6.703 -10.229  15.161  0.00  0.00    +0.005 C 
ATOM      6  C   UNL     1      -6.376 -10.324  15.912  0.00  0.00    +0.027 C 
ATOM     15  C   UNL     1      -5.562 -10.428  15.997  0.00  0.00    -0.048 C 
ATOM     16  C   UNL     1      -5.234 -10.522  16.749  0.00  0.00    +0.026 C 
ATOM     17  C   UNL     1      -5.075 -10.437  15.330  0.00  0.00    -0.033 C 
ATOM     18  C   UNL     1      -5.403 -10.343  14.580  0.00  0.00    +0.041 C 
ENDROOT
BRANCH   4   2
ATOM      1  C   UNL     1      -6.441  -9.435  13.335  0.00  0.00    +0.000 C 
ATOM      2  C   UNL     1      -6.545 -10.144  13.743  0.00  0.00    +0.000 C 
ATOM      3  C   UNL     1      -6.976 -10.757  13.401  0.00  0.00    +0.000 C 
ENDBRANCH   4   2
BRANCH   6   7
ATOM      7  C   UNL     1      -6.862 -10.314  16.579  0.00  0.00    +0.089 C 
BRANCH   7   8
ATOM      8  C   UNL     1      -7.311  -9.644  16.753  0.00  0.00    +0.226 C 
ATOM      9  O   UNL     1      -7.040  -8.897  16.529  0.00  0.00    -0.275 OA
ATOM     10  N   UNL     1      -8.029  -9.720  17.151  0.00  0.00    -0.280 N 
ATOM     11  C   UNL     1      -8.368 -10.426  17.408  0.00  0.00    +0.093 C 
ATOM     12  C   UNL     1      -9.083 -10.245  17.778  0.00  0.00    +0.023 C 
ATOM     13  C   UNL     1      -9.185  -9.427  17.750  0.00  0.00    +0.023 C 
ATOM     14  C   UNL     1      -8.533  -9.102  17.362  0.00  0.00    +0.093 C 
ENDBRANCH   7   8
ENDBRANCH   6   7
BRANCH  18  19
ATOM     19  C   UNL     1      -4.917 -10.352  13.913  0.00  0.00    +0.120 C 
BRANCH  19  20
ATOM     20  N   UNL     1      -4.212 -10.781  13.922  0.00  0.00    -0.077 NA
BRANCH  20  21
ATOM     21  S   UNL     1      -3.608 -10.593  13.395  0.00  0.00    +0.077 S 
ATOM     22  O   UNL     1      -4.101 -10.781  12.762  0.00  0.00    -0.152 OA
ATOM     23  O   UNL     1      -3.113 -10.405  14.030  0.00  0.00    -0.152 OA
BRANCH  21  24
ATOM     24  C   UNL     1      -3.001 -10.404  12.867  0.00  0.00    +0.124 A 
ATOM     25  C   UNL     1      -2.255 -10.199  13.152  0.00  0.00    +0.021 A 
ATOM     26  C   UNL     1      -1.649 -10.011  12.624  0.00  0.00    +0.018 A 
ATOM     27  C   UNL     1      -1.791 -10.027  11.811  0.00  0.00    +0.073 A 
ATOM     32  C   UNL     1      -2.538 -10.231  11.527  0.00  0.00    +0.018 A 
ATOM     33  C   UNL     1      -3.143 -10.420  12.055  0.00  0.00    +0.021 A 
BRANCH  27  28
ATOM     28  N   UNL     1      -1.186  -9.838  11.284  0.00  0.00    -0.179 NA
ATOM     29  C   UNL     1      -0.711  -9.178  11.419  0.00  0.00    +0.246 C 
ATOM     30  C   UNL     1      -0.106  -8.989  10.892  0.00  0.00    +0.097 C 
ATOM     31  O   UNL     1      -0.842  -8.706  12.083  0.00  0.00    -0.273 OA
ENDBRANCH  27  28
ENDBRANCH  21  24
ENDBRANCH  20  21
ENDBRANCH  19  20
ENDBRANCH  18  19
TORSDOF 8
ENDMDL
