MODEL 1
REMARK VINA RESULT:     -11.8      0.000      0.000
REMARK  Name = 
REMARK  4 active torsions:
REMARK  status: ('A' for Active; 'I' for Inactive)
REMARK    1  A    between atoms: C_2  and  C_5
REMARK    2  A    between atoms: C_8  and  O_9
REMARK    3  A    between atoms: O_9  and  C_10
REMARK    4  A    between atoms: C_17  and  C_19
REMARK                            x       y       z     vdW  Elec       q    Type
REMARK                         _______ _______ _______ _____ _____    ______ ____
ROOT
ATOM     10  C   UNL     1      -2.913   0.958  24.639  0.00  0.00    +0.217 C 
ATOM     11  C   UNL     1      -2.255   0.755  24.184  0.00  0.00    +0.187 C 
ATOM     12  O   UNL     1      -1.927   1.159  23.544  0.00  0.00    -0.348 OA
ATOM     13  C   UNL     1      -2.175   1.867  23.200  0.00  0.00    +0.164 C 
ATOM     14  C   UNL     1      -2.813   2.344  23.413  0.00  0.00    +0.126 C 
ATOM     15  N   UNL     1      -3.360   2.233  24.020  0.00  0.00    -0.270 N 
ATOM     16  C   UNL     1      -3.404   1.616  24.565  0.00  0.00    +0.140 C 
ATOM     17  C   UNL     1      -3.940   2.816  24.091  0.00  0.00    +0.252 C 
ATOM     18  O   UNL     1      -3.946   3.457  23.573  0.00  0.00    -0.270 OA
ENDROOT
BRANCH  17  19
ATOM     19  C   UNL     1      -4.514   2.757  24.681  0.00  0.00    +0.092 A 
ATOM     20  C   UNL     1      -4.380   3.097  25.421  0.00  0.00    +0.107 A 
ATOM     21  N   UNL     1      -4.954   3.038  26.012  0.00  0.00    -0.222 NA
ATOM     22  C   UNL     1      -5.660   2.639  25.862  0.00  0.00    +0.199 A 
ATOM     23  N   UNL     1      -5.794   2.299  25.122  0.00  0.00    -0.222 NA
ATOM     24  C   UNL     1      -5.220   2.359  24.532  0.00  0.00    +0.107 A 
ENDBRANCH  17  19
BRANCH  10   9
ATOM      9  O   UNL     1      -3.103   0.434  25.246  0.00  0.00    -0.460 OA
BRANCH   9   8
ATOM      5  C   UNL     1      -3.515  -1.953  24.740  0.00  0.00    +0.091 A 
ATOM      6  C   UNL     1      -2.818  -1.726  25.117  0.00  0.00    +0.010 A 
ATOM      7  C   UNL     1      -2.680  -0.931  25.286  0.00  0.00    +0.058 A 
ATOM      8  C   UNL     1      -3.240  -0.362  25.078  0.00  0.00    +0.225 A 
ATOM     25  N   UNL     1      -3.938  -0.590  24.700  0.00  0.00    -0.210 NA
ATOM     26  C   UNL     1      -4.076  -1.384  24.532  0.00  0.00    +0.106 A 
BRANCH   5   2
ATOM      1  F   UNL     1      -3.790  -3.545  24.402  0.00  0.00    -0.166 F 
ATOM      2  C   UNL     1      -3.652  -2.749  24.571  0.00  0.00    +0.420 C 
ATOM      3  F   UNL     1      -3.710  -2.569  23.768  0.00  0.00    -0.166 F 
ATOM      4  F   UNL     1      -3.594  -2.930  25.374  0.00  0.00    -0.166 F 
ENDBRANCH   5   2
ENDBRANCH   9   8
ENDBRANCH  10   9
TORSDOF 4
ENDMDL
MODEL 2
REMARK VINA RESULT:     -11.5      1.512      2.482
REMARK  Name = 
REMARK  4 active torsions:
REMARK  status: ('A' for Active; 'I' for Inactive)
REMARK    1  A    between atoms: C_2  and  C_5
REMARK    2  A    between atoms: C_8  and  O_9
REMARK    3  A    between atoms: O_9  and  C_10
REMARK    4  A    between atoms: C_17  and  C_19
REMARK                            x       y       z     vdW  Elec       q    Type
REMARK                         _______ _______ _______ _____ _____    ______ ____
ROOT
ATOM     10  C   UNL     1      -3.971   1.616  24.624  0.00  0.00    +0.217 C 
ATOM     11  C   UNL     1      -4.778   1.446  24.662  0.00  0.00    +0.187 C 
ATOM     12  O   UNL     1      -5.381   1.888  25.009  0.00  0.00    -0.348 OA
ATOM     13  C   UNL     1      -5.328   2.611  25.404  0.00  0.00    +0.164 C 
ATOM     14  C   UNL     1      -4.658   3.068  25.549  0.00  0.00    +0.126 C 
ATOM     15  N   UNL     1      -3.875   2.917  25.336  0.00  0.00    -0.270 N 
ATOM     16  C   UNL     1      -3.570   2.271  24.924  0.00  0.00    +0.140 C 
ATOM     17  C   UNL     1      -3.325   3.489  25.565  0.00  0.00    +0.252 C 
ATOM     18  O   UNL     1      -3.573   4.157  25.979  0.00  0.00    -0.270 OA
ENDROOT
BRANCH  17  19
ATOM     19  C   UNL     1      -2.528   3.391  25.378  0.00  0.00    +0.092 A 
ATOM     20  C   UNL     1      -2.012   3.065  25.935  0.00  0.00    +0.107 A 
ATOM     21  N   UNL     1      -1.213   2.967  25.748  0.00  0.00    -0.222 NA
ATOM     22  C   UNL     1      -0.932   3.194  25.006  0.00  0.00    +0.199 A 
ATOM     23  N   UNL     1      -1.447   3.519  24.451  0.00  0.00    -0.222 NA
ATOM     24  C   UNL     1      -2.246   3.618  24.638  0.00  0.00    +0.107 A 
ENDBRANCH  17  19
BRANCH  10   9
ATOM      9  O   UNL     1      -3.505   1.058  24.235  0.00  0.00    -0.460 OA
BRANCH   9   8
ATOM      5  C   UNL     1      -3.570  -1.315  24.938  0.00  0.00    +0.091 A 
ATOM      6  C   UNL     1      -3.997  -1.068  24.277  0.00  0.00    +0.010 A 
ATOM      7  C   UNL     1      -3.976  -0.278  24.043  0.00  0.00    +0.058 A 
ATOM      8  C   UNL     1      -3.527   0.267  24.469  0.00  0.00    +0.225 A 
ATOM     25  N   UNL     1      -3.099   0.020  25.131  0.00  0.00    -0.210 NA
ATOM     26  C   UNL     1      -3.121  -0.770  25.365  0.00  0.00    +0.106 A 
BRANCH   5   2
ATOM      1  F   UNL     1      -3.613  -2.896  25.406  0.00  0.00    -0.166 F 
ATOM      2  C   UNL     1      -3.592  -2.106  25.172  0.00  0.00    +0.420 C 
ATOM      3  F   UNL     1      -3.613  -1.871  25.962  0.00  0.00    -0.166 F 
ATOM      4  F   UNL     1      -3.570  -2.340  24.381  0.00  0.00    -0.166 F 
ENDBRANCH   5   2
ENDBRANCH   9   8
ENDBRANCH  10   9
TORSDOF 4
ENDMDL
MODEL 3
REMARK VINA RESULT:     -11.2      1.306      1.747
REMARK  Name = 
REMARK  4 active torsions:
REMARK  status: ('A' for Active; 'I' for Inactive)
REMARK    1  A    between atoms: C_2  and  C_5
REMARK    2  A    between atoms: C_8  and  O_9
REMARK    3  A    between atoms: O_9  and  C_10
REMARK    4  A    between atoms: C_17  and  C_19
REMARK                            x       y       z     vdW  Elec       q    Type
REMARK                         _______ _______ _______ _____ _____    ______ ____
ROOT
ATOM     10  C   UNL     1      -2.152   0.663  25.102  0.00  0.00    +0.217 C 
ATOM     11  C   UNL     1      -1.527   0.126  25.064  0.00  0.00    +0.187 C 
ATOM     12  O   UNL     1      -0.752   0.255  24.813  0.00  0.00    -0.348 OA
ATOM     13  C   UNL     1      -0.410   0.954  24.539  0.00  0.00    +0.164 C 
ATOM     14  C   UNL     1      -0.760   1.696  24.448  0.00  0.00    +0.126 C 
ATOM     15  N   UNL     1      -1.537   1.922  24.608  0.00  0.00    -0.270 N 
ATOM     16  C   UNL     1      -2.156   1.462  24.899  0.00  0.00    +0.140 C 
ATOM     17  C   UNL     1      -1.718   2.713  24.457  0.00  0.00    +0.252 C 
ATOM     18  O   UNL     1      -1.138   3.220  24.164  0.00  0.00    -0.270 OA
ENDROOT
BRANCH  17  19
ATOM     19  C   UNL     1      -2.480   2.995  24.598  0.00  0.00    +0.092 A 
ATOM     20  C   UNL     1      -3.039   2.995  23.991  0.00  0.00    +0.107 A 
ATOM     21  N   UNL     1      -3.802   3.277  24.133  0.00  0.00    -0.222 NA
ATOM     22  C   UNL     1      -4.004   3.560  24.881  0.00  0.00    +0.199 A 
ATOM     23  N   UNL     1      -3.446   3.560  25.488  0.00  0.00    -0.222 NA
ATOM     24  C   UNL     1      -2.683   3.278  25.346  0.00  0.00    +0.107 A 
ENDBRANCH  17  19
BRANCH  10   9
ATOM      9  O   UNL     1      -2.867   0.360  25.380  0.00  0.00    -0.460 OA
BRANCH   9   8
ATOM      5  C   UNL     1      -3.861  -1.642  24.318  0.00  0.00    +0.091 A 
ATOM      6  C   UNL     1      -3.532  -1.695  25.073  0.00  0.00    +0.010 A 
ATOM      7  C   UNL     1      -3.201  -1.029  25.426  0.00  0.00    +0.058 A 
ATOM      8  C   UNL     1      -3.198  -0.307  25.026  0.00  0.00    +0.225 A 
ATOM     25  N   UNL     1      -3.528  -0.254  24.271  0.00  0.00    -0.210 NA
ATOM     26  C   UNL     1      -3.858  -0.921  23.917  0.00  0.00    +0.106 A 
BRANCH   5   2
ATOM      1  F   UNL     1      -4.524  -2.977  23.610  0.00  0.00    -0.166 F 
ATOM      2  C   UNL     1      -4.192  -2.310  23.964  0.00  0.00    +0.420 C 
ATOM      3  F   UNL     1      -3.479  -2.714  24.059  0.00  0.00    -0.166 F 
ATOM      4  F   UNL     1      -4.906  -1.906  23.870  0.00  0.00    -0.166 F 
ENDBRANCH   5   2
ENDBRANCH   9   8
ENDBRANCH  10   9
TORSDOF 4
ENDMDL
