MODEL 1
REMARK VINA RESULT:     -16.2      0.000      0.000
REMARK  Name = 
REMARK  5 active torsions:
REMARK  status: ('A' for Active; 'I' for Inactive)
REMARK    1  A    between atoms: O_2  and  C_3
REMARK    2  A    between atoms: C_6  and  N_7
REMARK    3  A    between atoms: C_19  and  N_20
REMARK    4  A    between atoms: C_21  and  C_23
REMARK    5  A    between atoms: C_23  and  C_24
REMARK                            x       y       z     vdW  Elec       q    Type
REMARK                         _______ _______ _______ _____ _____    ______ ____
ROOT
ATOM      7  N   UNL     1      -3.319   2.308  24.769  0.00  0.00    -0.162 NA
ATOM      8  C   UNL     1      -3.246   3.127  24.851  0.00  0.00    +0.327 C 
ATOM      9  O   UNL     1      -2.528   3.495  24.685  0.00  0.00    -0.250 OA
ATOM     10  N   UNL     1      -3.893   3.576  25.099  0.00  0.00    -0.262 N 
ATOM     11  C   UNL     1      -4.336   4.250  25.316  0.00  0.00    +0.097 C 
ATOM     12  C   UNL     1      -5.203   3.821  25.518  0.00  0.00    +0.043 C 
ATOM     13  C   UNL     1      -5.967   3.625  25.720  0.00  0.00    +0.011 C 
ATOM     14  C   UNL     1      -5.387   3.294  25.506  0.00  0.00    +0.058 C 
ATOM     15  C   UNL     1      -4.556   3.724  25.314  0.00  0.00    +0.101 C 
ATOM     16  C   UNL     1      -5.067   2.456  25.305  0.00  0.00    +0.041 A 
ATOM     17  C   UNL     1      -5.309   1.668  25.277  0.00  0.00    +0.014 A 
ATOM     18  C   UNL     1      -4.777   1.082  25.046  0.00  0.00    +0.023 A 
ATOM     19  C   UNL     1      -4.003   1.283  24.842  0.00  0.00    +0.129 A 
ATOM     30  C   UNL     1      -3.761   2.071  24.870  0.00  0.00    +0.276 A 
ATOM     31  O   UNL     1      -3.038   1.768  24.617  0.00  0.00    -0.266 OA
ATOM     32  N   UNL     1      -4.293   2.658  25.102  0.00  0.00    -0.298 N 
ATOM     33  C   UNL     1      -4.860   2.949  25.306  0.00  0.00    +0.110 C 
ENDROOT
BRANCH   7   6
ATOM      3  C   UNL     1      -1.379   0.963  24.027  0.00  0.00    +0.139 A 
ATOM      4  C   UNL     1      -1.498   1.107  24.830  0.00  0.00    +0.038 A 
ATOM      5  C   UNL     1      -2.145   1.556  25.078  0.00  0.00    +0.020 A 
ATOM      6  C   UNL     1      -2.673   1.860  24.521  0.00  0.00    +0.075 A 
ATOM     34  C   UNL     1      -2.554   1.716  23.718  0.00  0.00    +0.020 A 
ATOM     35  C   UNL     1      -1.908   1.268  23.470  0.00  0.00    +0.038 A 
BRANCH   3   2
ATOM      1  C   UNL     1       0.031   0.819  23.848  0.00  0.00    +0.252 C 
ATOM      2  O   UNL     1      -0.732   0.515  23.779  0.00  0.00    -0.471 OA
ENDBRANCH   3   2
ENDBRANCH   7   6
BRANCH  19  20
ATOM     20  N   UNL     1      -3.472   0.696  24.611  0.00  0.00    -0.174 NA
ATOM     21  C   UNL     1      -3.711  -0.093  24.593  0.00  0.00    +0.250 C 
ATOM     22  O   UNL     1      -4.482  -0.296  24.807  0.00  0.00    -0.273 OA
BRANCH  21  23
ATOM     23  C   UNL     1      -3.179  -0.680  24.361  0.00  0.00    +0.113 C 
BRANCH  23  24
ATOM     24  C   UNL     1      -3.407  -1.473  24.377  0.00  0.00    -0.013 A 
ATOM     25  C   UNL     1      -3.155  -1.962  24.991  0.00  0.00    -0.004 A 
ATOM     26  C   UNL     1      -3.383  -2.754  25.007  0.00  0.00    -0.000 A 
ATOM     27  C   UNL     1      -3.863  -3.058  24.408  0.00  0.00    -0.000 A 
ATOM     28  C   UNL     1      -4.114  -2.568  23.793  0.00  0.00    -0.000 A 
ATOM     29  C   UNL     1      -3.886  -1.776  23.777  0.00  0.00    -0.004 A 
ENDBRANCH  23  24
ENDBRANCH  21  23
ENDBRANCH  19  20
TORSDOF 5
ENDMDL
MODEL 2
REMARK VINA RESULT:     -15.9      1.408      3.001
REMARK  Name = 
REMARK  5 active torsions:
REMARK  status: ('A' for Active; 'I' for Inactive)
REMARK    1  A    between atoms: O_2  and  C_3
REMARK    2  A    between atoms: C_6  and  N_7
REMARK    3  A    between atoms: C_19  and  N_20
REMARK    4  A    between atoms: C_21  and  C_23
REMARK    5  A    between atoms: C_23  and  C_24
REMARK                            x       y       z     vdW  Elec       q    Type
REMARK                         _______ _______ _______ _____ _____    ______ ____
ROOT
ATOM      7  N   UNL     1      -3.080   3.016  24.977  0.00  0.00    -0.162 NA
ATOM      8  C   UNL     1      -2.989   3.835  25.023  0.00  0.00    +0.327 C 
ATOM      9  O   UNL     1      -3.652   4.325  25.011  0.00  0.00    -0.250 OA
ATOM     10  N   UNL     1      -2.234   4.164  25.082  0.00  0.00    -0.262 N 
ATOM     11  C   UNL     1      -1.643   4.751  25.145  0.00  0.00    +0.097 C 
ATOM     12  C   UNL     1      -0.840   4.175  25.161  0.00  0.00    +0.043 C 
ATOM     13  C   UNL     1      -0.094   3.849  25.186  0.00  0.00    +0.011 C 
ATOM     14  C   UNL     1      -0.758   3.624  25.138  0.00  0.00    +0.058 C 
ATOM     15  C   UNL     1      -1.524   4.194  25.124  0.00  0.00    +0.101 C 
ATOM     16  C   UNL     1      -1.255   2.855  25.071  0.00  0.00    +0.041 A 
ATOM     17  C   UNL     1      -1.166   2.036  25.034  0.00  0.00    +0.014 A 
ATOM     18  C   UNL     1      -1.831   1.551  24.972  0.00  0.00    +0.023 A 
ATOM     19  C   UNL     1      -2.585   1.885  24.947  0.00  0.00    +0.129 A 
ATOM     30  C   UNL     1      -2.674   2.705  24.984  0.00  0.00    +0.276 A 
ATOM     31  O   UNL     1      -3.478   2.533  24.930  0.00  0.00    -0.266 OA
ATOM     32  N   UNL     1      -2.009   3.189  25.046  0.00  0.00    -0.298 N 
ATOM     33  C   UNL     1      -1.368   3.377  25.091  0.00  0.00    +0.110 C 
ENDROOT
BRANCH   7   6
ATOM      3  C   UNL     1      -5.343   2.031  24.802  0.00  0.00    +0.139 A 
ATOM      4  C   UNL     1      -5.012   2.172  25.543  0.00  0.00    +0.038 A 
ATOM      5  C   UNL     1      -4.257   2.500  25.602  0.00  0.00    +0.020 A 
ATOM      6  C   UNL     1      -3.834   2.688  24.918  0.00  0.00    +0.075 A 
ATOM     34  C   UNL     1      -4.166   2.546  24.177  0.00  0.00    +0.020 A 
ATOM     35  C   UNL     1      -4.921   2.218  24.118  0.00  0.00    +0.038 A 
BRANCH   3   2
ATOM      1  C   UNL     1      -6.701   1.963  25.242  0.00  0.00    +0.252 C 
ATOM      2  O   UNL     1      -6.098   1.702  24.743  0.00  0.00    -0.471 OA
ENDBRANCH   3   2
ENDBRANCH   7   6
BRANCH  19  20
ATOM     20  N   UNL     1      -3.248   1.400  24.885  0.00  0.00    -0.174 NA
ATOM     21  C   UNL     1      -3.160   0.581  24.853  0.00  0.00    +0.250 C 
ATOM     22  O   UNL     1      -2.406   0.246  24.883  0.00  0.00    -0.273 OA
BRANCH  21  23
ATOM     23  C   UNL     1      -3.825   0.095  24.791  0.00  0.00    +0.113 C 
BRANCH  23  24
ATOM     24  C   UNL     1      -3.738  -0.725  24.786  0.00  0.00    -0.013 A 
ATOM     25  C   UNL     1      -3.835  -1.145  24.083  0.00  0.00    -0.004 A 
ATOM     26  C   UNL     1      -3.748  -1.966  24.079  0.00  0.00    -0.000 A 
ATOM     27  C   UNL     1      -3.564  -2.365  24.777  0.00  0.00    -0.000 A 
ATOM     28  C   UNL     1      -3.467  -1.944  25.480  0.00  0.00    -0.000 A 
ATOM     29  C   UNL     1      -3.554  -1.124  25.485  0.00  0.00    -0.004 A 
ENDBRANCH  23  24
ENDBRANCH  21  23
ENDBRANCH  19  20
TORSDOF 5
ENDMDL
MODEL 3
REMARK VINA RESULT:     -15.5      1.259      4.385
REMARK  Name = 
REMARK  5 active torsions:
REMARK  status: ('A' for Active; 'I' for Inactive)
REMARK    1  A    between atoms: O_2  and  C_3
REMARK    2  A    between atoms: C_6  and  N_7
REMARK    3  A    between atoms: C_19  and  N_20
REMARK    4  A    between atoms: C_21  and  C_23
REMARK    5  A    between atoms: C_23  and  C_24
REMARK                            x       y       z     vdW  Elec       q    Type
REMARK                         _______ _______ _______ _____ _____    ______ ____
ROOT
ATOM      7  N   UNL     1      -1.945  -0.553  24.697  0.00  0.00    -0.162 NA
ATOM      8  C   UNL     1      -1.547  -1.276  24.684  0.00  0.00    +0.327 C 
ATOM      9  O   UNL     1      -0.727  -1.297  24.771  0.00  0.00    -0.250 OA
ATOM     10  N   UNL     1      -1.970  -1.978  24.583  0.00  0.00    -0.262 N 
ATOM     11  C   UNL     1      -2.111  -2.797  24.504  0.00  0.00    +0.097 C 
ATOM     12  C   UNL     1      -3.094  -2.786  24.398  0.00  0.00    +0.043 C 
ATOM     13  C   UNL     1      -3.886  -2.945  24.300  0.00  0.00    +0.011 C 
ATOM     14  C   UNL     1      -3.478  -2.382  24.388  0.00  0.00    +0.058 C 
ATOM     15  C   UNL     1      -2.528  -2.409  24.489  0.00  0.00    +0.101 C 
ATOM     16  C   UNL     1      -3.517  -1.466  24.455  0.00  0.00    +0.041 A 
ATOM     17  C   UNL     1      -4.061  -0.846  24.444  0.00  0.00    +0.014 A 
ATOM     18  C   UNL     1      -3.801  -0.068  24.533  0.00  0.00    +0.023 A 
ATOM     19  C   UNL     1      -2.998   0.090  24.632  0.00  0.00    +0.129 A 
ATOM     30  C   UNL     1      -2.454  -0.530  24.643  0.00  0.00    +0.276 A 
ATOM     31  O   UNL     1      -1.901   0.072  24.750  0.00  0.00    -0.266 OA
ATOM     32  N   UNL     1      -2.714  -1.308  24.555  0.00  0.00    -0.298 N 
ATOM     33  C   UNL     1      -3.125  -1.829  24.469  0.00  0.00    +0.110 C 
ENDROOT
BRANCH   7   6
ATOM      3  C   UNL     1      -0.678   1.551  25.000  0.00  0.00    +0.139 A 
ATOM      4  C   UNL     1      -0.957   1.140  25.658  0.00  0.00    +0.038 A 
ATOM      5  C   UNL     1      -1.380   0.438  25.557  0.00  0.00    +0.020 A 
ATOM      6  C   UNL     1      -1.523   0.148  24.797  0.00  0.00    +0.075 A 
ATOM     34  C   UNL     1      -1.243   0.560  24.140  0.00  0.00    +0.020 A 
ATOM     35  C   UNL     1      -0.821   1.261  24.240  0.00  0.00    +0.038 A 
BRANCH   3   2
ATOM      1  C   UNL     1       0.184   2.374  25.788  0.00  0.00    +0.252 C 
ATOM      2  O   UNL     1      -0.255   2.253  25.101  0.00  0.00    -0.471 OA
ENDBRANCH   3   2
ENDBRANCH   7   6
BRANCH  19  20
ATOM     20  N   UNL     1      -2.739   0.868  24.721  0.00  0.00    -0.174 NA
ATOM     21  C   UNL     1      -3.282   1.488  24.703  0.00  0.00    +0.250 C 
ATOM     22  O   UNL     1      -4.085   1.331  24.597  0.00  0.00    -0.273 OA
BRANCH  21  23
ATOM     23  C   UNL     1      -3.022   2.267  24.792  0.00  0.00    +0.113 C 
BRANCH  23  24
ATOM     24  C   UNL     1      -3.570   2.881  24.841  0.00  0.00    -0.013 A 
ATOM     25  C   UNL     1      -3.795   3.288  24.159  0.00  0.00    -0.004 A 
ATOM     26  C   UNL     1      -4.343   3.903  24.208  0.00  0.00    -0.000 A 
ATOM     27  C   UNL     1      -4.666   4.111  24.938  0.00  0.00    -0.000 A 
ATOM     28  C   UNL     1      -4.441   3.704  25.619  0.00  0.00    -0.000 A 
ATOM     29  C   UNL     1      -3.893   3.089  25.571  0.00  0.00    -0.004 A 
ENDBRANCH  23  24
ENDBRANCH  21  23
ENDBRANCH  19  20
TORSDOF 5
ENDMDL
MODEL 4
REMARK VINA RESULT:     -14.4      1.463      4.910
REMARK  Name = 
REMARK  5 active torsions:
REMARK  status: ('A' for Active; 'I' for Inactive)
REMARK    1  A    between atoms: O_2  and  C_3
REMARK    2  A    between atoms: C_6  and  N_7
REMARK    3  A    between atoms: C_19  and  N_20
REMARK    4  A    between atoms: C_21  and  C_23
REMARK    5  A    between atoms: C_23  and  C_24
REMARK                            x       y       z     vdW  Elec       q    Type
REMARK                         _______ _______ _______ _____ _____    ______ ____
ROOT
ATOM      7  N   UNL     1      -3.300  -0.379  24.601  0.00  0.00    -0.162 NA
ATOM      8  C   UNL     1      -3.640  -1.120  24.470  0.00  0.00    +0.327 C 
ATOM      9  O   UNL     1      -4.452  -1.184  24.339  0.00  0.00    -0.250 OA
ATOM     10  N   UNL     1      -3.168  -1.797  24.472  0.00  0.00    -0.262 N 
ATOM     11  C   UNL     1      -2.965  -2.606  24.418  0.00  0.00    +0.097 C 
ATOM     12  C   UNL     1      -1.991  -2.543  24.574  0.00  0.00    +0.043 C 
ATOM     13  C   UNL     1      -1.193  -2.660  24.685  0.00  0.00    +0.011 C 
ATOM     14  C   UNL     1      -1.641  -2.120  24.672  0.00  0.00    +0.058 C 
ATOM     15  C   UNL     1      -2.581  -2.197  24.520  0.00  0.00    +0.101 C 
ATOM     16  C   UNL     1      -1.671  -1.206  24.764  0.00  0.00    +0.041 A 
ATOM     17  C   UNL     1      -1.179  -0.561  24.908  0.00  0.00    +0.014 A 
ATOM     18  C   UNL     1      -1.496   0.200  24.940  0.00  0.00    +0.023 A 
ATOM     19  C   UNL     1      -2.305   0.316  24.827  0.00  0.00    +0.129 A 
ATOM     30  C   UNL     1      -2.798  -0.330  24.683  0.00  0.00    +0.276 A 
ATOM     31  O   UNL     1      -3.392   0.240  24.652  0.00  0.00    -0.266 OA
ATOM     32  N   UNL     1      -2.481  -1.091  24.652  0.00  0.00    -0.298 N 
ATOM     33  C   UNL     1      -2.033  -1.588  24.668  0.00  0.00    +0.110 C 
ENDROOT
BRANCH   7   6
ATOM      3  C   UNL     1      -4.718   1.649  24.598  0.00  0.00    +0.139 A 
ATOM      4  C   UNL     1      -4.618   1.217  25.294  0.00  0.00    +0.038 A 
ATOM      5  C   UNL     1      -4.145   0.540  25.294  0.00  0.00    +0.020 A 
ATOM      6  C   UNL     1      -3.772   0.297  24.599  0.00  0.00    +0.075 A 
ATOM     34  C   UNL     1      -3.873   0.729  23.905  0.00  0.00    +0.020 A 
ATOM     35  C   UNL     1      -4.345   1.405  23.903  0.00  0.00    +0.038 A 
BRANCH   3   2
ATOM      1  C   UNL     1      -5.919   2.320  24.985  0.00  0.00    +0.252 C 
ATOM      2  O   UNL     1      -5.191   2.325  24.598  0.00  0.00    -0.471 OA
ENDBRANCH   3   2
ENDBRANCH   7   6
BRANCH  19  20
ATOM     20  N   UNL     1      -2.621   1.077  24.859  0.00  0.00    -0.174 NA
ATOM     21  C   UNL     1      -2.128   1.723  25.001  0.00  0.00    +0.250 C 
ATOM     22  O   UNL     1      -1.319   1.608  25.111  0.00  0.00    -0.273 OA
BRANCH  21  23
ATOM     23  C   UNL     1      -2.445   2.485  25.032  0.00  0.00    +0.113 C 
BRANCH  23  24
ATOM     24  C   UNL     1      -1.944   3.139  25.068  0.00  0.00    -0.013 A 
ATOM     25  C   UNL     1      -1.947   3.625  25.734  0.00  0.00    -0.004 A 
ATOM     26  C   UNL     1      -1.446   4.279  25.769  0.00  0.00    -0.000 A 
ATOM     27  C   UNL     1      -0.942   4.447  25.138  0.00  0.00    -0.000 A 
ATOM     28  C   UNL     1      -0.938   3.960  24.472  0.00  0.00    -0.000 A 
ATOM     29  C   UNL     1      -1.439   3.306  24.437  0.00  0.00    -0.004 A 
ENDBRANCH  23  24
ENDBRANCH  21  23
ENDBRANCH  19  20
TORSDOF 5
ENDMDL
