MODEL 1
REMARK VINA RESULT:     -12.8      0.000      0.000
REMARK  Name = 
REMARK  5 active torsions:
REMARK  status: ('A' for Active; 'I' for Inactive)
REMARK    1  A    between atoms: C_2  and  C_4
REMARK    2  A    between atoms: C_4  and  O_5
REMARK    3  A    between atoms: O_5  and  C_6
REMARK    4  A    between atoms: C_6  and  C_7
REMARK    5  A    between atoms: C_16  and  C_23
REMARK                            x       y       z     vdW  Elec       q    Type
REMARK                         _______ _______ _______ _____ _____    ______ ____
ROOT
ATOM      7  C   UNL     1      -3.151   2.042  24.425  0.00  0.00    +0.256 C 
ATOM      8  O   UNL     1      -3.899   1.724  24.566  0.00  0.00    -0.272 OA
ATOM      9  N   UNL     1      -2.498   1.542  24.347  0.00  0.00    -0.277 N 
ATOM     10  C   UNL     1      -1.704   1.309  24.231  0.00  0.00    +0.095 C 
ATOM     11  C   UNL     1      -1.806   0.329  24.304  0.00  0.00    +0.043 C 
ATOM     12  C   UNL     1      -1.722  -0.480  24.337  0.00  0.00    +0.011 C 
ATOM     13  C   UNL     1      -2.240  -0.009  24.395  0.00  0.00    +0.058 C 
ATOM     14  C   UNL     1      -2.125   0.936  24.321  0.00  0.00    +0.099 C 
ATOM     15  C   UNL     1      -3.145   0.052  24.539  0.00  0.00    +0.041 A 
ATOM     16  C   UNL     1      -3.806  -0.422  24.675  0.00  0.00    +0.012 A 
ATOM     17  C   UNL     1      -4.548  -0.076  24.776  0.00  0.00    +0.006 A 
ATOM     18  C   UNL     1      -4.629   0.744  24.742  0.00  0.00    +0.061 A 
ATOM     19  C   UNL     1      -3.969   1.219  24.607  0.00  0.00    +0.261 A 
ATOM     20  O   UNL     1      -4.296   1.976  24.616  0.00  0.00    -0.267 OA
ATOM     21  N   UNL     1      -3.227   0.873  24.505  0.00  0.00    -0.299 N 
ATOM     22  C   UNL     1      -2.752   0.404  24.455  0.00  0.00    +0.110 C 
ENDROOT
BRANCH  16  23
ATOM     23  C   UNL     1      -3.725  -1.243  24.709  0.00  0.00    +0.001 A 
ATOM     24  C   UNL     1      -3.492  -1.605  25.412  0.00  0.00    +0.000 A 
ATOM     25  C   UNL     1      -3.411  -2.426  25.447  0.00  0.00    +0.000 A 
ATOM     26  C   UNL     1      -3.562  -2.884  24.777  0.00  0.00    +0.000 A 
ATOM     27  C   UNL     1      -3.795  -2.521  24.074  0.00  0.00    +0.000 A 
ATOM     28  C   UNL     1      -3.876  -1.701  24.040  0.00  0.00    +0.000 A 
ENDBRANCH  16  23
BRANCH   7   6
ATOM      6  C   UNL     1      -3.054   2.858  24.362  0.00  0.00    +0.228 C 
BRANCH   6   5
ATOM      5  O   UNL     1      -2.822   3.298  25.021  0.00  0.00    -0.333 OA
BRANCH   5   4
ATOM      4  C   UNL     1      -2.724   4.115  24.957  0.00  0.00    +0.257 C 
BRANCH   4   2
ATOM      1  O   UNL     1      -1.655   4.949  25.410  0.00  0.00    -0.243 OA
ATOM      2  C   UNL     1      -2.353   4.534  25.563  0.00  0.00    +0.394 C 
ATOM      3  O   UNL     1      -2.677   4.538  26.322  0.00  0.00    -0.243 OA
ENDBRANCH   4   2
ENDBRANCH   5   4
ENDBRANCH   6   5
ENDBRANCH   7   6
TORSDOF 5
ENDMDL
MODEL 2
REMARK VINA RESULT:     -12.4      0.657      1.549
REMARK  Name = 
REMARK  5 active torsions:
REMARK  status: ('A' for Active; 'I' for Inactive)
REMARK    1  A    between atoms: C_2  and  C_4
REMARK    2  A    between atoms: C_4  and  O_5
REMARK    3  A    between atoms: O_5  and  C_6
REMARK    4  A    between atoms: C_6  and  C_7
REMARK    5  A    between atoms: C_16  and  C_23
REMARK                            x       y       z     vdW  Elec       q    Type
REMARK                         _______ _______ _______ _____ _____    ______ ____
ROOT
ATOM      7  C   UNL     1      -2.835   2.077  24.335  0.00  0.00    +0.256 C 
ATOM      8  O   UNL     1      -2.199   1.558  24.251  0.00  0.00    -0.272 OA
ATOM      9  N   UNL     1      -3.586   1.783  24.511  0.00  0.00    -0.277 N 
ATOM     10  C   UNL     1      -4.405   1.787  24.676  0.00  0.00    +0.095 C 
ATOM     11  C   UNL     1      -4.556   0.817  24.789  0.00  0.00    +0.043 C 
ATOM     12  C   UNL     1      -4.841   0.063  24.910  0.00  0.00    +0.011 C 
ATOM     13  C   UNL     1      -4.226   0.368  24.760  0.00  0.00    +0.058 C 
ATOM     14  C   UNL     1      -4.097   1.308  24.654  0.00  0.00    +0.099 C 
ATOM     15  C   UNL     1      -3.344   0.169  24.599  0.00  0.00    +0.041 A 
ATOM     16  C   UNL     1      -2.831  -0.476  24.550  0.00  0.00    +0.012 A 
ATOM     17  C   UNL     1      -2.033  -0.355  24.379  0.00  0.00    +0.006 A 
ATOM     18  C   UNL     1      -1.748   0.409  24.257  0.00  0.00    +0.061 A 
ATOM     19  C   UNL     1      -2.260   1.053  24.306  0.00  0.00    +0.261 A 
ATOM     20  O   UNL     1      -1.756   1.687  24.150  0.00  0.00    -0.267 OA
ATOM     21  N   UNL     1      -3.058   0.933  24.477  0.00  0.00    -0.299 N 
ATOM     22  C   UNL     1      -3.632   0.619  24.619  0.00  0.00    +0.110 C 
ENDROOT
BRANCH  16  23
ATOM     23  C   UNL     1      -3.116  -1.240  24.673  0.00  0.00    +0.001 A 
ATOM     24  C   UNL     1      -3.083  -1.577  25.424  0.00  0.00    +0.000 A 
ATOM     25  C   UNL     1      -3.369  -2.342  25.547  0.00  0.00    +0.000 A 
ATOM     26  C   UNL     1      -3.687  -2.769  24.917  0.00  0.00    +0.000 A 
ATOM     27  C   UNL     1      -3.720  -2.432  24.165  0.00  0.00    +0.000 A 
ATOM     28  C   UNL     1      -3.435  -1.667  24.043  0.00  0.00    +0.000 A 
ENDBRANCH  16  23
BRANCH   7   6
ATOM      6  C   UNL     1      -2.721   2.889  24.243  0.00  0.00    +0.228 C 
BRANCH   6   5
ATOM      5  O   UNL     1      -2.474   3.345  24.885  0.00  0.00    -0.333 OA
BRANCH   5   4
ATOM      4  C   UNL     1      -2.408   4.165  24.807  0.00  0.00    +0.257 C 
BRANCH   4   2
ATOM      1  O   UNL     1      -1.467   5.112  25.316  0.00  0.00    -0.243 OA
ATOM      2  C   UNL     1      -2.117   4.616  25.433  0.00  0.00    +0.394 C 
ATOM      3  O   UNL     1      -2.474   4.571  26.176  0.00  0.00    -0.243 OA
ENDBRANCH   4   2
ENDBRANCH   5   4
ENDBRANCH   6   5
ENDBRANCH   7   6
TORSDOF 5
ENDMDL
MODEL 3
REMARK VINA RESULT:     -11.8      1.887      4.752
REMARK  Name = 
REMARK  5 active torsions:
REMARK  status: ('A' for Active; 'I' for Inactive)
REMARK    1  A    between atoms: C_2  and  C_4
REMARK    2  A    between atoms: C_4  and  O_5
REMARK    3  A    between atoms: O_5  and  C_6
REMARK    4  A    between atoms: C_6  and  C_7
REMARK    5  A    between atoms: C_16  and  C_23
REMARK                            x       y       z     vdW  Elec       q    Type
REMARK                         _______ _______ _______ _____ _____    ______ ____
ROOT
ATOM      7  C   UNL     1      -1.857   0.170  24.576  0.00  0.00    +0.256 C 
ATOM      8  O   UNL     1      -1.325   0.451  25.142  0.00  0.00    -0.272 OA
ATOM      9  N   UNL     1      -2.318   0.700  24.143  0.00  0.00    -0.277 N 
ATOM     10  C   UNL     1      -2.880   0.970  23.587  0.00  0.00    +0.095 C 
ATOM     11  C   UNL     1      -2.805   1.944  23.735  0.00  0.00    +0.043 C 
ATOM     12  C   UNL     1      -2.862   2.757  23.736  0.00  0.00    +0.011 C 
ATOM     13  C   UNL     1      -2.497   2.262  24.074  0.00  0.00    +0.058 C 
ATOM     14  C   UNL     1      -2.580   1.323  23.919  0.00  0.00    +0.099 C 
ATOM     15  C   UNL     1      -1.855   2.157  24.724  0.00  0.00    +0.041 A 
ATOM     16  C   UNL     1      -1.386   2.599  25.238  0.00  0.00    +0.012 A 
ATOM     17  C   UNL     1      -0.861   2.218  25.748  0.00  0.00    +0.006 A 
ATOM     18  C   UNL     1      -0.805   1.395  25.744  0.00  0.00    +0.061 A 
ATOM     19  C   UNL     1      -1.275   0.953  25.230  0.00  0.00    +0.261 A 
ATOM     20  O   UNL     1      -1.045   0.181  25.409  0.00  0.00    -0.267 OA
ATOM     21  N   UNL     1      -1.800   1.334  24.720  0.00  0.00    -0.299 N 
ATOM     22  C   UNL     1      -2.135   1.824  24.413  0.00  0.00    +0.110 C 
ENDROOT
BRANCH  16  23
ATOM     23  C   UNL     1      -1.441   3.423  25.242  0.00  0.00    +0.001 A 
ATOM     24  C   UNL     1      -0.912   3.874  24.799  0.00  0.00    +0.000 A 
ATOM     25  C   UNL     1      -0.967   4.697  24.803  0.00  0.00    +0.000 A 
ATOM     26  C   UNL     1      -1.552   5.069  25.250  0.00  0.00    +0.000 A 
ATOM     27  C   UNL     1      -2.082   4.618  25.693  0.00  0.00    +0.000 A 
ATOM     28  C   UNL     1      -2.026   3.795  25.689  0.00  0.00    +0.000 A 
ENDBRANCH  16  23
BRANCH   7   6
ATOM      6  C   UNL     1      -1.927  -0.641  24.444  0.00  0.00    +0.228 C 
BRANCH   6   5
ATOM      5  O   UNL     1      -2.520  -1.071  24.825  0.00  0.00    -0.333 OA
BRANCH   5   4
ATOM      4  C   UNL     1      -2.576  -1.887  24.711  0.00  0.00    +0.257 C 
BRANCH   4   2
ATOM      1  O   UNL     1      -3.623  -2.810  24.404  0.00  0.00    -0.243 OA
ATOM      2  C   UNL     1      -3.262  -2.287  24.932  0.00  0.00    +0.394 C 
ATOM      3  O   UNL     1      -3.589  -2.166  25.681  0.00  0.00    -0.243 OA
ENDBRANCH   4   2
ENDBRANCH   5   4
ENDBRANCH   6   5
ENDBRANCH   7   6
TORSDOF 5
ENDMDL
