MODEL 1
REMARK VINA RESULT:     -12.4      0.000      0.000
REMARK  Name = 
REMARK  4 active torsions:
REMARK  status: ('A' for Active; 'I' for Inactive)
REMARK    1  A    between atoms: C_1  and  N_2
REMARK    2  A    between atoms: C_1  and  C_22
REMARK    3  A    between atoms: C_7  and  C_8
REMARK    4  A    between atoms: C_10  and  C_13
REMARK                            x       y       z     vdW  Elec       q    Type
REMARK                         _______ _______ _______ _____ _____    ______ ____
ROOT
ATOM      2  N   UNL     1      -2.532  -0.070  24.439  0.00  0.00    -0.257 NA
ATOM      3  C   UNL     1      -1.884  -0.578  24.480  0.00  0.00    +0.121 C 
ATOM      4  C   UNL     1      -1.125  -0.292  24.332  0.00  0.00    +0.090 A 
ATOM      5  C   UNL     1      -1.014   0.503  24.142  0.00  0.00    +0.077 A 
ATOM      6  C   UNL     1      -1.662   1.012  24.100  0.00  0.00    +0.073 C 
ATOM      7  C   UNL     1      -2.421   0.725  24.249  0.00  0.00    +0.144 C 
ATOM     19  N   UNL     1      -0.207   0.627  24.024  0.00  0.00    -0.227 NA
ATOM     20  C   UNL     1       0.181  -0.092  24.141  0.00  0.00    +0.198 A 
ATOM     21  N   UNL     1      -0.387  -0.659  24.331  0.00  0.00    -0.226 NA
ENDROOT
BRANCH   7   8
ATOM      8  C   UNL     1      -3.069   1.234  24.207  0.00  0.00    +0.251 A 
ATOM      9  N   UNL     1      -3.410   1.638  24.840  0.00  0.00    -0.190 NA
ATOM     10  C   UNL     1      -4.042   2.083  24.549  0.00  0.00    +0.203 A 
ATOM     11  N   UNL     1      -4.090   1.953  23.736  0.00  0.00    -0.056 NA
ATOM     12  O   UNL     1      -3.489   1.429  23.524  0.00  0.00    -0.336 OA
BRANCH  10  13
ATOM     13  C   UNL     1      -4.537   2.571  24.993  0.00  0.00    +0.042 A 
ATOM     14  C   UNL     1      -5.254   2.280  25.279  0.00  0.00    +0.024 A 
ATOM     15  C   UNL     1      -5.748   2.769  25.724  0.00  0.00    +0.099 A 
ATOM     16  N   UNL     1      -5.526   3.547  25.882  0.00  0.00    -0.242 NA
ATOM     17  C   UNL     1      -4.809   3.838  25.595  0.00  0.00    +0.099 A 
ATOM     18  C   UNL     1      -4.314   3.350  25.151  0.00  0.00    +0.024 A 
ENDBRANCH  10  13
ENDBRANCH   7   8
BRANCH   2   1
ATOM      1  C   UNL     1      -3.291  -0.356  24.587  0.00  0.00    +0.100 C 
BRANCH   1  22
ATOM     22  C   UNL     1      -3.422  -1.169  24.641  0.00  0.00    -0.006 A 
ATOM     23  C   UNL     1      -3.671  -1.592  23.977  0.00  0.00    -0.003 A 
ATOM     24  C   UNL     1      -3.802  -2.405  24.031  0.00  0.00    -0.000 A 
ATOM     25  C   UNL     1      -3.684  -2.794  24.749  0.00  0.00    -0.000 A 
ATOM     26  C   UNL     1      -3.435  -2.372  25.412  0.00  0.00    -0.000 A 
ATOM     27  C   UNL     1      -3.304  -1.559  25.358  0.00  0.00    -0.003 A 
ENDBRANCH   1  22
ENDBRANCH   2   1
TORSDOF 4
ENDMDL
MODEL 2
REMARK VINA RESULT:     -12.2      1.513      4.704
REMARK  Name = 
REMARK  4 active torsions:
REMARK  status: ('A' for Active; 'I' for Inactive)
REMARK    1  A    between atoms: C_1  and  N_2
REMARK    2  A    between atoms: C_1  and  C_22
REMARK    3  A    between atoms: C_7  and  C_8
REMARK    4  A    between atoms: C_10  and  C_13
REMARK                            x       y       z     vdW  Elec       q    Type
REMARK                         _______ _______ _______ _____ _____    ______ ____
ROOT
ATOM      2  N   UNL     1      -3.363   2.200  24.859  0.00  0.00    -0.257 NA
ATOM      3  C   UNL     1      -3.517   2.944  25.177  0.00  0.00    +0.121 C 
ATOM      4  C   UNL     1      -4.294   3.179  25.323  0.00  0.00    +0.090 A 
ATOM      5  C   UNL     1      -4.918   2.668  25.151  0.00  0.00    +0.077 A 
ATOM      6  C   UNL     1      -4.764   1.921  24.832  0.00  0.00    +0.073 C 
ATOM      7  C   UNL     1      -3.987   1.688  24.687  0.00  0.00    +0.144 C 
ATOM     19  N   UNL     1      -5.622   3.047  25.352  0.00  0.00    -0.227 NA
ATOM     20  C   UNL     1      -5.434   3.793  25.649  0.00  0.00    +0.198 A 
ATOM     21  N   UNL     1      -4.613   3.874  25.630  0.00  0.00    -0.226 NA
ENDROOT
BRANCH   7   8
ATOM      8  C   UNL     1      -3.834   0.943  24.368  0.00  0.00    +0.251 A 
ATOM      9  N   UNL     1      -3.902   0.222  24.764  0.00  0.00    -0.190 NA
ATOM     10  C   UNL     1      -3.696  -0.379  24.238  0.00  0.00    +0.203 A 
ATOM     11  N   UNL     1      -3.500  -0.031  23.517  0.00  0.00    -0.056 NA
ATOM     12  O   UNL     1      -3.585   0.787  23.597  0.00  0.00    -0.336 OA
BRANCH  10  13
ATOM     13  C   UNL     1      -3.688  -1.187  24.405  0.00  0.00    +0.042 A 
ATOM     14  C   UNL     1      -3.299  -1.466  25.077  0.00  0.00    +0.024 A 
ATOM     15  C   UNL     1      -3.291  -2.274  25.243  0.00  0.00    +0.099 A 
ATOM     16  N   UNL     1      -3.671  -2.803  24.737  0.00  0.00    -0.242 NA
ATOM     17  C   UNL     1      -4.060  -2.524  24.065  0.00  0.00    +0.099 A 
ATOM     18  C   UNL     1      -4.068  -1.716  23.899  0.00  0.00    +0.024 A 
ENDBRANCH  10  13
ENDBRANCH   7   8
BRANCH   2   1
ATOM      1  C   UNL     1      -2.586   1.966  24.713  0.00  0.00    +0.100 C 
BRANCH   1  22
ATOM     22  C   UNL     1      -1.960   2.454  24.936  0.00  0.00    -0.006 A 
ATOM     23  C   UNL     1      -1.620   2.374  25.684  0.00  0.00    -0.003 A 
ATOM     24  C   UNL     1      -0.993   2.863  25.907  0.00  0.00    -0.000 A 
ATOM     25  C   UNL     1      -0.707   3.431  25.381  0.00  0.00    -0.000 A 
ATOM     26  C   UNL     1      -1.046   3.511  24.634  0.00  0.00    -0.000 A 
ATOM     27  C   UNL     1      -1.672   3.022  24.411  0.00  0.00    -0.003 A 
ENDBRANCH   1  22
ENDBRANCH   2   1
TORSDOF 4
ENDMDL
MODEL 3
REMARK VINA RESULT:     -11.8      1.478      3.716
REMARK  Name = 
REMARK  4 active torsions:
REMARK  status: ('A' for Active; 'I' for Inactive)
REMARK    1  A    between atoms: C_1  and  N_2
REMARK    2  A    between atoms: C_1  and  C_22
REMARK    3  A    between atoms: C_7  and  C_8
REMARK    4  A    between atoms: C_10  and  C_13
REMARK                            x       y       z     vdW  Elec       q    Type
REMARK                         _______ _______ _______ _____ _____    ______ ____
ROOT
ATOM      2  N   UNL     1      -3.971   1.011  24.619  0.00  0.00    -0.257 NA
ATOM      3  C   UNL     1      -4.755   0.808  24.770  0.00  0.00    +0.121 C 
ATOM      4  C   UNL     1      -5.297   1.389  24.995  0.00  0.00    +0.090 A 
ATOM      5  C   UNL     1      -5.052   2.173  25.069  0.00  0.00    +0.077 A 
ATOM      6  C   UNL     1      -4.267   2.377  24.918  0.00  0.00    +0.073 C 
ATOM      7  C   UNL     1      -3.726   1.796  24.693  0.00  0.00    +0.144 C 
ATOM     19  N   UNL     1      -5.704   2.623  25.298  0.00  0.00    -0.227 NA
ATOM     20  C   UNL     1      -6.352   2.117  25.366  0.00  0.00    +0.198 A 
ATOM     21  N   UNL     1      -6.099   1.354  25.178  0.00  0.00    -0.226 NA
ENDROOT
BRANCH   7   8
ATOM      8  C   UNL     1      -2.941   2.000  24.542  0.00  0.00    +0.251 A 
ATOM      9  N   UNL     1      -2.324   1.991  25.088  0.00  0.00    -0.190 NA
ATOM     10  C   UNL     1      -1.637   2.235  24.702  0.00  0.00    +0.203 A 
ATOM     11  N   UNL     1      -1.830   2.394  23.916  0.00  0.00    -0.056 NA
ATOM     12  O   UNL     1      -2.637   2.249  23.817  0.00  0.00    -0.336 OA
BRANCH  10  13
ATOM     13  C   UNL     1      -0.888   2.306  25.042  0.00  0.00    +0.042 A 
ATOM     14  C   UNL     1      -0.799   2.692  25.765  0.00  0.00    +0.024 A 
ATOM     15  C   UNL     1      -0.050   2.762  26.105  0.00  0.00    +0.099 A 
ATOM     16  N   UNL     1       0.608   2.448  25.721  0.00  0.00    -0.242 NA
ATOM     17  C   UNL     1       0.519   2.062  24.997  0.00  0.00    +0.099 A 
ATOM     18  C   UNL     1      -0.229   1.991  24.657  0.00  0.00    +0.024 A 
ENDBRANCH  10  13
ENDBRANCH   7   8
BRANCH   2   1
ATOM      1  C   UNL     1      -3.430   0.431  24.394  0.00  0.00    +0.100 C 
BRANCH   1  22
ATOM     22  C   UNL     1      -3.631  -0.367  24.459  0.00  0.00    -0.006 A 
ATOM     23  C   UNL     1      -3.483  -0.774  25.161  0.00  0.00    -0.003 A 
ATOM     24  C   UNL     1      -3.684  -1.572  25.226  0.00  0.00    -0.000 A 
ATOM     25  C   UNL     1      -4.033  -1.962  24.587  0.00  0.00    -0.000 A 
ATOM     26  C   UNL     1      -4.180  -1.555  23.886  0.00  0.00    -0.000 A 
ATOM     27  C   UNL     1      -3.979  -0.758  23.821  0.00  0.00    -0.003 A 
ENDBRANCH   1  22
ENDBRANCH   2   1
TORSDOF 4
ENDMDL
MODEL 4
REMARK VINA RESULT:     -11.5      1.485      4.041
REMARK  Name = 
REMARK  4 active torsions:
REMARK  status: ('A' for Active; 'I' for Inactive)
REMARK    1  A    between atoms: C_1  and  N_2
REMARK    2  A    between atoms: C_1  and  C_22
REMARK    3  A    between atoms: C_7  and  C_8
REMARK    4  A    between atoms: C_10  and  C_13
REMARK                            x       y       z     vdW  Elec       q    Type
REMARK                         _______ _______ _______ _____ _____    ______ ____
ROOT
ATOM      2  N   UNL     1      -2.157   1.554  24.752  0.00  0.00    -0.257 NA
ATOM      3  C   UNL     1      -1.692   2.210  24.571  0.00  0.00    +0.121 C 
ATOM      4  C   UNL     1      -0.873   2.132  24.506  0.00  0.00    +0.090 A 
ATOM      5  C   UNL     1      -0.519   1.396  24.622  0.00  0.00    +0.077 A 
ATOM      6  C   UNL     1      -0.984   0.738  24.803  0.00  0.00    +0.073 C 
ATOM      7  C   UNL     1      -1.803   0.818  24.868  0.00  0.00    +0.144 C 
ATOM     19  N   UNL     1       0.294   1.485  24.522  0.00  0.00    -0.227 NA
ATOM     20  C   UNL     1       0.444   2.276  24.345  0.00  0.00    +0.198 A 
ATOM     21  N   UNL     1      -0.278   2.675  24.335  0.00  0.00    -0.226 NA
ENDROOT
BRANCH   7   8
ATOM      8  C   UNL     1      -2.267   0.160  25.050  0.00  0.00    +0.251 A 
ATOM      9  N   UNL     1      -2.546  -0.400  24.513  0.00  0.00    -0.190 NA
ATOM     10  C   UNL     1      -2.986  -0.959  24.932  0.00  0.00    +0.203 A 
ATOM     11  N   UNL     1      -2.978  -0.744  25.728  0.00  0.00    -0.056 NA
ATOM     12  O   UNL     1      -2.534  -0.052  25.801  0.00  0.00    -0.336 OA
BRANCH  10  13
ATOM     13  C   UNL     1      -3.365  -1.617  24.610  0.00  0.00    +0.042 A 
ATOM     14  C   UNL     1      -4.004  -1.516  24.098  0.00  0.00    +0.024 A 
ATOM     15  C   UNL     1      -4.383  -2.175  23.777  0.00  0.00    +0.099 A 
ATOM     16  N   UNL     1      -4.124  -2.934  23.968  0.00  0.00    -0.242 NA
ATOM     17  C   UNL     1      -3.485  -3.035  24.480  0.00  0.00    +0.099 A 
ATOM     18  C   UNL     1      -3.106  -2.377  24.802  0.00  0.00    +0.024 A 
ENDBRANCH  10  13
ENDBRANCH   7   8
BRANCH   2   1
ATOM      1  C   UNL     1      -2.975   1.633  24.817  0.00  0.00    +0.100 C 
BRANCH   1  22
ATOM     22  C   UNL     1      -3.335   2.353  24.637  0.00  0.00    -0.006 A 
ATOM     23  C   UNL     1      -3.577   2.511  23.863  0.00  0.00    -0.003 A 
ATOM     24  C   UNL     1      -3.938   3.231  23.683  0.00  0.00    -0.000 A 
ATOM     25  C   UNL     1      -4.056   3.792  24.276  0.00  0.00    -0.000 A 
ATOM     26  C   UNL     1      -3.814   3.635  25.048  0.00  0.00    -0.000 A 
ATOM     27  C   UNL     1      -3.454   2.915  25.229  0.00  0.00    -0.003 A 
ENDBRANCH   1  22
ENDBRANCH   2   1
TORSDOF 4
ENDMDL
