MODEL 1
REMARK VINA RESULT:     -11.3      0.000      0.000
REMARK  Name = 
REMARK  6 active torsions:
REMARK  status: ('A' for Active; 'I' for Inactive)
REMARK    1  A    between atoms: O_2  and  C_3
REMARK    2  A    between atoms: C_9  and  C_10
REMARK    3  A    between atoms: C_10  and  C_11
REMARK    4  A    between atoms: C_16  and  C_17
REMARK    5  A    between atoms: C_17  and  C_18
REMARK    6  A    between atoms: N_23  and  C_24
REMARK                            x       y       z     vdW  Elec       q    Type
REMARK                         _______ _______ _______ _____ _____    ______ ____
ROOT
ATOM     11  C   UNL     1      -3.693   2.311  25.214  0.00  0.00    +0.026 C 
ATOM     12  C   UNL     1      -2.874   2.364  25.290  0.00  0.00    +0.095 C 
ATOM     13  N   UNL     1      -2.520   3.094  25.445  0.00  0.00    -0.263 N 
ATOM     14  C   UNL     1      -2.987   3.769  25.525  0.00  0.00    +0.095 C 
ATOM     15  C   UNL     1      -3.806   3.716  25.449  0.00  0.00    +0.022 C 
ATOM     16  C   UNL     1      -4.160   2.987  25.294  0.00  0.00    +0.015 C 
ATOM     21  C   UNL     1      -1.701   3.147  25.521  0.00  0.00    +0.323 C 
ATOM     22  O   UNL     1      -1.348   3.875  25.676  0.00  0.00    -0.251 OA
ATOM     23  N   UNL     1      -1.235   2.470  25.441  0.00  0.00    -0.190 NA
ENDROOT
BRANCH  23  24
ATOM     24  C   UNL     1      -0.415   2.524  25.517  0.00  0.00    +0.097 C 
ATOM     25  C   UNL     1       0.057   2.605  24.844  0.00  0.00    +0.023 C 
ATOM     26  C   UNL     1      -0.066   2.496  26.264  0.00  0.00    +0.023 C 
ENDBRANCH  23  24
BRANCH  11  10
ATOM     10  C   UNL     1      -4.047   1.582  25.059  0.00  0.00    +0.047 C 
BRANCH  10   9
ATOM      3  C   UNL     1      -3.783  -1.348  24.617  0.00  0.00    +0.138 A 
ATOM      4  C   UNL     1      -3.518  -0.987  23.924  0.00  0.00    +0.033 A 
ATOM      5  C   UNL     1      -3.518  -0.164  23.861  0.00  0.00    -0.016 A 
ATOM      6  C   UNL     1      -3.783   0.298  24.492  0.00  0.00    +0.009 A 
ATOM      7  C   UNL     1      -4.047  -0.063  25.185  0.00  0.00    +0.004 A 
ATOM      8  C   UNL     1      -4.048  -0.886  25.248  0.00  0.00    +0.037 A 
ATOM      9  C   UNL     1      -3.782   1.120  24.429  0.00  0.00    +0.053 C 
ATOM     27  N   UNL     1      -3.518   1.481  23.736  0.00  0.00    -0.274 NA
ATOM     28  C   UNL     1      -3.253   1.018  23.105  0.00  0.00    +0.130 C 
ATOM     29  C   UNL     1      -3.253   0.196  23.168  0.00  0.00    +0.053 C 
BRANCH   3   2
ATOM      1  C   UNL     1      -3.354  -2.538  25.281  0.00  0.00    +0.252 C 
ATOM      2  O   UNL     1      -3.783  -2.170  24.680  0.00  0.00    -0.471 OA
ENDBRANCH   3   2
ENDBRANCH  10   9
ENDBRANCH  11  10
BRANCH  16  17
ATOM     17  C   UNL     1      -4.980   2.934  25.218  0.00  0.00    +0.114 C 
BRANCH  17  18
ATOM     18  C   UNL     1      -5.468   3.405  25.686  0.00  0.00    +0.365 C 
ATOM     19  O   UNL     1      -5.703   4.150  25.420  0.00  0.00    -0.246 OA
ATOM     20  O   UNL     1      -5.723   3.131  26.423  0.00  0.00    -0.246 OA
ENDBRANCH  17  18
ENDBRANCH  16  17
TORSDOF 6
ENDMDL
MODEL 2
REMARK VINA RESULT:     -11.2      1.338      3.795
REMARK  Name = 
REMARK  6 active torsions:
REMARK  status: ('A' for Active; 'I' for Inactive)
REMARK    1  A    between atoms: O_2  and  C_3
REMARK    2  A    between atoms: C_9  and  C_10
REMARK    3  A    between atoms: C_10  and  C_11
REMARK    4  A    between atoms: C_16  and  C_17
REMARK    5  A    between atoms: C_17  and  C_18
REMARK    6  A    between atoms: N_23  and  C_24
REMARK                            x       y       z     vdW  Elec       q    Type
REMARK                         _______ _______ _______ _____ _____    ______ ____
ROOT
ATOM     11  C   UNL     1      -3.030  -0.148  24.825  0.00  0.00    +0.026 C 
ATOM     12  C   UNL     1      -2.377   0.328  24.984  0.00  0.00    +0.095 C 
ATOM     13  N   UNL     1      -1.633  -0.013  25.092  0.00  0.00    -0.263 N 
ATOM     14  C   UNL     1      -1.544  -0.831  25.041  0.00  0.00    +0.095 C 
ATOM     15  C   UNL     1      -2.197  -1.308  24.883  0.00  0.00    +0.022 C 
ATOM     16  C   UNL     1      -2.941  -0.968  24.775  0.00  0.00    +0.015 C 
ATOM     21  C   UNL     1      -0.979   0.464  25.251  0.00  0.00    +0.323 C 
ATOM     22  O   UNL     1      -0.237   0.123  25.359  0.00  0.00    -0.251 OA
ATOM     23  N   UNL     1      -1.069   1.283  25.301  0.00  0.00    -0.190 NA
ENDROOT
BRANCH  23  24
ATOM     24  C   UNL     1      -0.415   1.760  25.460  0.00  0.00    +0.097 C 
ATOM     25  C   UNL     1       0.121   1.939  24.858  0.00  0.00    +0.023 C 
ATOM     26  C   UNL     1      -0.297   2.060  26.219  0.00  0.00    +0.023 C 
ENDBRANCH  23  24
BRANCH  11  10
ATOM     10  C   UNL     1      -3.774   0.192  24.717  0.00  0.00    +0.047 C 
BRANCH  10   9
ATOM      3  C   UNL     1      -5.336   2.684  25.169  0.00  0.00    +0.138 A 
ATOM      4  C   UNL     1      -4.911   2.802  24.471  0.00  0.00    +0.033 A 
ATOM      5  C   UNL     1      -4.414   2.210  24.183  0.00  0.00    -0.016 A 
ATOM      6  C   UNL     1      -4.342   1.497  24.594  0.00  0.00    +0.009 A 
ATOM      7  C   UNL     1      -4.767   1.378  25.291  0.00  0.00    +0.004 A 
ATOM      8  C   UNL     1      -5.264   1.971  25.579  0.00  0.00    +0.037 A 
ATOM      9  C   UNL     1      -3.846   0.904  24.307  0.00  0.00    +0.053 C 
ATOM     27  N   UNL     1      -3.422   1.023  23.610  0.00  0.00    -0.274 NA
ATOM     28  C   UNL     1      -3.494   1.737  23.199  0.00  0.00    +0.130 C 
ATOM     29  C   UNL     1      -3.990   2.329  23.487  0.00  0.00    +0.053 C 
BRANCH   3   2
ATOM      1  C   UNL     1      -5.519   4.006  25.675  0.00  0.00    +0.252 C 
ATOM      2  O   UNL     1      -5.832   3.276  25.456  0.00  0.00    -0.471 OA
ENDBRANCH   3   2
ENDBRANCH  10   9
ENDBRANCH  11  10
BRANCH  16  17
ATOM     17  C   UNL     1      -3.595  -1.445  24.616  0.00  0.00    +0.114 C 
BRANCH  17  18
ATOM     18  C   UNL     1      -3.529  -2.265  24.671  0.00  0.00    +0.365 C 
ATOM     19  O   UNL     1      -3.584  -2.635  25.406  0.00  0.00    -0.246 OA
ATOM     20  O   UNL     1      -3.410  -2.716  23.990  0.00  0.00    -0.246 OA
ENDBRANCH  17  18
ENDBRANCH  16  17
TORSDOF 6
ENDMDL
MODEL 3
REMARK VINA RESULT:     -11.0      1.622      4.443
REMARK  Name = 
REMARK  6 active torsions:
REMARK  status: ('A' for Active; 'I' for Inactive)
REMARK    1  A    between atoms: O_2  and  C_3
REMARK    2  A    between atoms: C_9  and  C_10
REMARK    3  A    between atoms: C_10  and  C_11
REMARK    4  A    between atoms: C_16  and  C_17
REMARK    5  A    between atoms: C_17  and  C_18
REMARK    6  A    between atoms: N_23  and  C_24
REMARK                            x       y       z     vdW  Elec       q    Type
REMARK                         _______ _______ _______ _____ _____    ______ ____
ROOT
ATOM     11  C   UNL     1      -1.609   1.338  24.683  0.00  0.00    +0.026 C 
ATOM     12  C   UNL     1      -2.055   0.646  24.720  0.00  0.00    +0.095 C 
ATOM     13  N   UNL     1      -1.683  -0.089  24.667  0.00  0.00    -0.263 N 
ATOM     14  C   UNL     1      -0.864  -0.130  24.578  0.00  0.00    +0.095 C 
ATOM     15  C   UNL     1      -0.418   0.562  24.541  0.00  0.00    +0.022 C 
ATOM     16  C   UNL     1      -0.790   1.296  24.593  0.00  0.00    +0.015 C 
ATOM     21  C   UNL     1      -2.129  -0.782  24.704  0.00  0.00    +0.323 C 
ATOM     22  O   UNL     1      -1.757  -1.515  24.651  0.00  0.00    -0.251 OA
ATOM     23  N   UNL     1      -2.949  -0.740  24.794  0.00  0.00    -0.190 NA
ENDROOT
BRANCH  23  24
ATOM     24  C   UNL     1      -3.395  -1.432  24.831  0.00  0.00    +0.097 C 
ATOM     25  C   UNL     1      -3.433  -1.862  25.535  0.00  0.00    +0.023 C 
ATOM     26  C   UNL     1      -3.804  -1.696  24.165  0.00  0.00    +0.023 C 
ENDBRANCH  23  24
BRANCH  11  10
ATOM     10  C   UNL     1      -1.981   2.072  24.736  0.00  0.00    +0.047 C 
BRANCH  10   9
ATOM      3  C   UNL     1      -4.581   3.482  25.059  0.00  0.00    +0.138 A 
ATOM      4  C   UNL     1      -4.536   3.264  24.265  0.00  0.00    +0.033 A 
ATOM      5  C   UNL     1      -3.875   2.857  23.985  0.00  0.00    -0.016 A 
ATOM      6  C   UNL     1      -3.258   2.668  24.500  0.00  0.00    +0.009 A 
ATOM      7  C   UNL     1      -3.303   2.886  25.295  0.00  0.00    +0.004 A 
ATOM      8  C   UNL     1      -3.964   3.293  25.575  0.00  0.00    +0.037 A 
ATOM      9  C   UNL     1      -2.598   2.261  24.221  0.00  0.00    +0.053 C 
ATOM     27  N   UNL     1      -2.553   2.043  23.427  0.00  0.00    -0.274 NA
ATOM     28  C   UNL     1      -3.170   2.232  22.912  0.00  0.00    +0.130 C 
ATOM     29  C   UNL     1      -3.830   2.638  23.191  0.00  0.00    +0.053 C 
BRANCH   3   2
ATOM      1  C   UNL     1      -5.823   3.489  25.763  0.00  0.00    +0.252 C 
ATOM      2  O   UNL     1      -5.241   3.889  25.339  0.00  0.00    -0.471 OA
ENDBRANCH   3   2
ENDBRANCH  10   9
ENDBRANCH  11  10
BRANCH  16  17
ATOM     17  C   UNL     1      -0.343   1.989  24.557  0.00  0.00    +0.114 C 
BRANCH  17  18
ATOM     18  C   UNL     1       0.459   1.973  24.747  0.00  0.00    +0.365 C 
ATOM     19  O   UNL     1       1.018   1.796  24.167  0.00  0.00    -0.246 OA
ATOM     20  O   UNL     1       0.702   2.134  25.520  0.00  0.00    -0.246 OA
ENDBRANCH  17  18
ENDBRANCH  16  17
TORSDOF 6
ENDMDL
MODEL 4
REMARK VINA RESULT:     -10.7      1.380      4.224
REMARK  Name = 
REMARK  6 active torsions:
REMARK  status: ('A' for Active; 'I' for Inactive)
REMARK    1  A    between atoms: O_2  and  C_3
REMARK    2  A    between atoms: C_9  and  C_10
REMARK    3  A    between atoms: C_10  and  C_11
REMARK    4  A    between atoms: C_16  and  C_17
REMARK    5  A    between atoms: C_17  and  C_18
REMARK    6  A    between atoms: N_23  and  C_24
REMARK                            x       y       z     vdW  Elec       q    Type
REMARK                         _______ _______ _______ _____ _____    ______ ____
ROOT
ATOM     11  C   UNL     1      -3.347   0.268  24.685  0.00  0.00    +0.026 C 
ATOM     12  C   UNL     1      -3.766   0.954  24.868  0.00  0.00    +0.095 C 
ATOM     13  N   UNL     1      -4.591   0.947  24.867  0.00  0.00    -0.263 N 
ATOM     14  C   UNL     1      -4.997   0.253  24.682  0.00  0.00    +0.095 C 
ATOM     15  C   UNL     1      -4.579  -0.433  24.499  0.00  0.00    +0.022 C 
ATOM     16  C   UNL     1      -3.754  -0.426  24.500  0.00  0.00    +0.015 C 
ATOM     21  C   UNL     1      -5.010   1.634  25.051  0.00  0.00    +0.323 C 
ATOM     22  O   UNL     1      -5.834   1.626  25.049  0.00  0.00    -0.251 OA
ATOM     23  N   UNL     1      -4.603   2.327  25.236  0.00  0.00    -0.190 NA
ENDROOT
BRANCH  23  24
ATOM     24  C   UNL     1      -5.022   3.014  25.419  0.00  0.00    +0.097 C 
ATOM     25  C   UNL     1      -5.534   3.025  26.067  0.00  0.00    +0.023 C 
ATOM     26  C   UNL     1      -4.929   3.691  24.957  0.00  0.00    +0.023 C 
ENDBRANCH  23  24
BRANCH  11  10
ATOM     10  C   UNL     1      -2.523   0.275  24.686  0.00  0.00    +0.047 C 
BRANCH  10   9
ATOM      3  C   UNL     1      -0.183   1.966  25.406  0.00  0.00    +0.138 A 
ATOM      4  C   UNL     1      -0.418   2.208  24.653  0.00  0.00    +0.033 A 
ATOM      5  C   UNL     1      -1.061   1.846  24.284  0.00  0.00    -0.016 A 
ATOM      6  C   UNL     1      -1.471   1.241  24.669  0.00  0.00    +0.009 A 
ATOM      7  C   UNL     1      -1.236   0.999  25.423  0.00  0.00    +0.004 A 
ATOM      8  C   UNL     1      -0.592   1.360  25.791  0.00  0.00    +0.037 A 
ATOM      9  C   UNL     1      -2.114   0.879  24.301  0.00  0.00    +0.053 C 
ATOM     27  N   UNL     1      -2.348   1.121  23.549  0.00  0.00    -0.274 NA
ATOM     28  C   UNL     1      -1.939   1.726  23.164  0.00  0.00    +0.130 C 
ATOM     29  C   UNL     1      -1.296   2.088  23.532  0.00  0.00    +0.053 C 
BRANCH   3   2
ATOM      1  C   UNL     1       0.377   2.648  26.529  0.00  0.00    +0.252 C 
ATOM      2  O   UNL     1       0.460   2.327  25.774  0.00  0.00    -0.471 OA
ENDBRANCH   3   2
ENDBRANCH  10   9
ENDBRANCH  11  10
BRANCH  16  17
ATOM     17  C   UNL     1      -3.335  -1.113  24.316  0.00  0.00    +0.114 C 
BRANCH  17  18
ATOM     18  C   UNL     1      -3.710  -1.846  24.353  0.00  0.00    +0.365 C 
ATOM     19  O   UNL     1      -4.112  -2.139  23.695  0.00  0.00    -0.246 OA
ATOM     20  O   UNL     1      -3.682  -2.289  25.050  0.00  0.00    -0.246 OA
ENDBRANCH  17  18
ENDBRANCH  16  17
TORSDOF 6
ENDMDL
MODEL 5
REMARK VINA RESULT:     -10.2      1.119      3.029
REMARK  Name = 
REMARK  6 active torsions:
REMARK  status: ('A' for Active; 'I' for Inactive)
REMARK    1  A    between atoms: O_2  and  C_3
REMARK    2  A    between atoms: C_9  and  C_10
REMARK    3  A    between atoms: C_10  and  C_11
REMARK    4  A    between atoms: C_16  and  C_17
REMARK    5  A    between atoms: C_17  and  C_18
REMARK    6  A    between atoms: N_23  and  C_24
REMARK                            x       y       z     vdW  Elec       q    Type
REMARK                         _______ _______ _______ _____ _____    ______ ____
ROOT
ATOM     11  C   UNL     1      -2.012   1.766  25.202  0.00  0.00    +0.026 C 
ATOM     12  C   UNL     1      -2.737   2.148  25.290  0.00  0.00    +0.095 C 
ATOM     13  N   UNL     1      -2.761   2.961  25.433  0.00  0.00    -0.263 N 
ATOM     14  C   UNL     1      -2.059   3.390  25.488  0.00  0.00    +0.095 C 
ATOM     15  C   UNL     1      -1.334   3.009  25.400  0.00  0.00    +0.022 C 
ATOM     16  C   UNL     1      -1.309   2.197  25.257  0.00  0.00    +0.015 C 
ATOM     21  C   UNL     1      -3.487   3.343  25.521  0.00  0.00    +0.323 C 
ATOM     22  O   UNL     1      -3.510   4.154  25.664  0.00  0.00    -0.251 OA
ATOM     23  N   UNL     1      -4.188   2.912  25.466  0.00  0.00    -0.190 NA
ENDROOT
BRANCH  23  24
ATOM     24  C   UNL     1      -4.914   3.294  25.554  0.00  0.00    +0.097 C 
ATOM     25  C   UNL     1      -5.121   3.911  25.045  0.00  0.00    +0.023 C 
ATOM     26  C   UNL     1      -5.434   3.060  26.150  0.00  0.00    +0.023 C 
ENDBRANCH  23  24
BRANCH  11  10
ATOM     10  C   UNL     1      -1.987   0.955  25.058  0.00  0.00    +0.047 C 
BRANCH  10   9
ATOM      3  C   UNL     1      -3.501  -1.606  25.005  0.00  0.00    +0.138 A 
ATOM      4  C   UNL     1      -3.700  -1.208  24.311  0.00  0.00    +0.033 A 
ATOM      5  C   UNL     1      -3.371  -0.468  24.150  0.00  0.00    -0.016 A 
ATOM      6  C   UNL     1      -2.843  -0.126  24.685  0.00  0.00    +0.009 A 
ATOM      7  C   UNL     1      -2.644  -0.525  25.379  0.00  0.00    +0.004 A 
ATOM      8  C   UNL     1      -2.972  -1.264  25.540  0.00  0.00    +0.037 A 
ATOM      9  C   UNL     1      -2.515   0.613  24.524  0.00  0.00    +0.053 C 
ATOM     27  N   UNL     1      -2.714   1.011  23.830  0.00  0.00    -0.274 NA
ATOM     28  C   UNL     1      -3.242   0.669  23.295  0.00  0.00    +0.130 C 
ATOM     29  C   UNL     1      -3.570  -0.070  23.456  0.00  0.00    +0.053 C 
BRANCH   3   2
ATOM      1  C   UNL     1      -3.441  -3.031  24.923  0.00  0.00    +0.252 C 
ATOM      2  O   UNL     1      -3.829  -2.345  25.166  0.00  0.00    -0.471 OA
ENDBRANCH   3   2
ENDBRANCH  10   9
ENDBRANCH  11  10
BRANCH  16  17
ATOM     17  C   UNL     1      -0.583   1.815  25.169  0.00  0.00    +0.114 C 
BRANCH  17  18
ATOM     18  C   UNL     1       0.117   2.249  25.200  0.00  0.00    +0.365 C 
ATOM     19  O   UNL     1       0.478   2.400  25.926  0.00  0.00    -0.246 OA
ATOM     20  O   UNL     1       0.459   2.532  24.503  0.00  0.00    -0.246 OA
ENDBRANCH  17  18
ENDBRANCH  16  17
TORSDOF 6
ENDMDL
MODEL 6
REMARK VINA RESULT:     -10.1      1.509      3.866
REMARK  Name = 
REMARK  6 active torsions:
REMARK  status: ('A' for Active; 'I' for Inactive)
REMARK    1  A    between atoms: O_2  and  C_3
REMARK    2  A    between atoms: C_9  and  C_10
REMARK    3  A    between atoms: C_10  and  C_11
REMARK    4  A    between atoms: C_16  and  C_17
REMARK    5  A    between atoms: C_17  and  C_18
REMARK    6  A    between atoms: N_23  and  C_24
REMARK                            x       y       z     vdW  Elec       q    Type
REMARK                         _______ _______ _______ _____ _____    ______ ____
ROOT
ATOM     11  C   UNL     1      -3.836   1.335  24.897  0.00  0.00    +0.026 C 
ATOM     12  C   UNL     1      -3.313   0.703  24.981  0.00  0.00    +0.095 C 
ATOM     13  N   UNL     1      -3.603  -0.059  25.107  0.00  0.00    -0.263 N 
ATOM     14  C   UNL     1      -4.416  -0.189  25.148  0.00  0.00    +0.095 C 
ATOM     15  C   UNL     1      -4.939   0.442  25.063  0.00  0.00    +0.022 C 
ATOM     16  C   UNL     1      -4.650   1.204  24.938  0.00  0.00    +0.015 C 
ATOM     21  C   UNL     1      -3.079  -0.691  25.191  0.00  0.00    +0.323 C 
ATOM     22  O   UNL     1      -3.369  -1.453  25.316  0.00  0.00    -0.251 OA
ATOM     23  N   UNL     1      -2.265  -0.560  25.150  0.00  0.00    -0.190 NA
ENDROOT
BRANCH  23  24
ATOM     24  C   UNL     1      -1.742  -1.192  25.234  0.00  0.00    +0.097 C 
ATOM     25  C   UNL     1      -1.263  -1.245  25.904  0.00  0.00    +0.023 C 
ATOM     26  C   UNL     1      -1.696  -1.772  24.649  0.00  0.00    +0.023 C 
ENDBRANCH  23  24
BRANCH  11  10
ATOM     10  C   UNL     1      -3.547   2.097  24.772  0.00  0.00    +0.047 C 
BRANCH  10   9
ATOM      3  C   UNL     1      -1.126   3.826  24.822  0.00  0.00    +0.138 A 
ATOM      4  C   UNL     1      -1.099   3.414  24.108  0.00  0.00    +0.033 A 
ATOM      5  C   UNL     1      -1.697   2.879  23.916  0.00  0.00    -0.016 A 
ATOM      6  C   UNL     1      -2.323   2.755  24.440  0.00  0.00    +0.009 A 
ATOM      7  C   UNL     1      -2.350   3.167  25.154  0.00  0.00    +0.004 A 
ATOM      8  C   UNL     1      -1.753   3.703  25.346  0.00  0.00    +0.037 A 
ATOM      9  C   UNL     1      -2.921   2.220  24.248  0.00  0.00    +0.053 C 
ATOM     27  N   UNL     1      -2.893   1.809  23.535  0.00  0.00    -0.274 NA
ATOM     28  C   UNL     1      -2.266   1.932  23.011  0.00  0.00    +0.130 C 
ATOM     29  C   UNL     1      -1.669   2.467  23.202  0.00  0.00    +0.053 C 
BRANCH   3   2
ATOM      1  C   UNL     1      -0.666   5.172  24.954  0.00  0.00    +0.252 C 
ATOM      2  O   UNL     1      -0.529   4.361  25.013  0.00  0.00    -0.471 OA
ENDBRANCH   3   2
ENDBRANCH  10   9
ENDBRANCH  11  10
BRANCH  16  17
ATOM     17  C   UNL     1      -5.174   1.836  24.854  0.00  0.00    +0.114 C 
BRANCH  17  18
ATOM     18  C   UNL     1      -5.928   1.793  25.183  0.00  0.00    +0.365 C 
ATOM     19  O   UNL     1      -6.041   1.957  25.983  0.00  0.00    -0.246 OA
ATOM     20  O   UNL     1      -6.573   1.584  24.710  0.00  0.00    -0.246 OA
ENDBRANCH  17  18
ENDBRANCH  16  17
TORSDOF 6
ENDMDL
MODEL 7
REMARK VINA RESULT:      -9.7      1.796      3.315
REMARK  Name = 
REMARK  6 active torsions:
REMARK  status: ('A' for Active; 'I' for Inactive)
REMARK    1  A    between atoms: O_2  and  C_3
REMARK    2  A    between atoms: C_9  and  C_10
REMARK    3  A    between atoms: C_10  and  C_11
REMARK    4  A    between atoms: C_16  and  C_17
REMARK    5  A    between atoms: C_17  and  C_18
REMARK    6  A    between atoms: N_23  and  C_24
REMARK                            x       y       z     vdW  Elec       q    Type
REMARK                         _______ _______ _______ _____ _____    ______ ____
ROOT
ATOM     11  C   UNL     1      -2.261   3.070  25.250  0.00  0.00    +0.026 C 
ATOM     12  C   UNL     1      -3.048   2.830  25.279  0.00  0.00    +0.095 C 
ATOM     13  N   UNL     1      -3.651   3.393  25.315  0.00  0.00    -0.263 N 
ATOM     14  C   UNL     1      -3.464   4.196  25.323  0.00  0.00    +0.095 C 
ATOM     15  C   UNL     1      -2.676   4.437  25.294  0.00  0.00    +0.022 C 
ATOM     16  C   UNL     1      -2.074   3.874  25.258  0.00  0.00    +0.015 C 
ATOM     21  C   UNL     1      -4.440   3.152  25.343  0.00  0.00    +0.323 C 
ATOM     22  O   UNL     1      -5.041   3.715  25.379  0.00  0.00    -0.251 OA
ATOM     23  N   UNL     1      -4.625   2.348  25.335  0.00  0.00    -0.190 NA
ENDROOT
BRANCH  23  24
ATOM     24  C   UNL     1      -5.414   2.108  25.363  0.00  0.00    +0.097 C 
ATOM     25  C   UNL     1      -5.822   2.113  26.081  0.00  0.00    +0.023 C 
ATOM     26  C   UNL     1      -5.796   1.862  24.675  0.00  0.00    +0.023 C 
ENDBRANCH  23  24
BRANCH  11  10
ATOM     10  C   UNL     1      -1.658   2.508  25.214  0.00  0.00    +0.047 C 
BRANCH  10   9
ATOM      3  C   UNL     1      -0.879  -0.361  25.098  0.00  0.00    +0.138 A 
ATOM      4  C   UNL     1      -1.141  -0.164  24.341  0.00  0.00    +0.033 A 
ATOM      5  C   UNL     1      -1.402   0.603  24.180  0.00  0.00    -0.016 A 
ATOM      6  C   UNL     1      -1.400   1.173  24.778  0.00  0.00    +0.009 A 
ATOM      7  C   UNL     1      -1.138   0.975  25.535  0.00  0.00    +0.004 A 
ATOM      8  C   UNL     1      -0.878   0.209  25.696  0.00  0.00    +0.037 A 
ATOM      9  C   UNL     1      -1.660   1.938  24.617  0.00  0.00    +0.053 C 
ATOM     27  N   UNL     1      -1.922   2.135  23.861  0.00  0.00    -0.274 NA
ATOM     28  C   UNL     1      -1.923   1.565  23.263  0.00  0.00    +0.130 C 
ATOM     29  C   UNL     1      -1.663   0.800  23.423  0.00  0.00    +0.053 C 
BRANCH   3   2
ATOM      1  C   UNL     1      -1.147  -1.759  25.218  0.00  0.00    +0.252 C 
ATOM      2  O   UNL     1      -0.620  -1.127  25.258  0.00  0.00    -0.471 OA
ENDBRANCH   3   2
ENDBRANCH  10   9
ENDBRANCH  11  10
BRANCH  16  17
ATOM     17  C   UNL     1      -1.285   4.115  25.230  0.00  0.00    +0.114 C 
BRANCH  17  18
ATOM     18  C   UNL     1      -1.097   4.886  25.006  0.00  0.00    +0.365 C 
ATOM     19  O   UNL     1      -1.397   5.525  25.433  0.00  0.00    -0.246 OA
ATOM     20  O   UNL     1      -0.608   5.019  24.354  0.00  0.00    -0.246 OA
ENDBRANCH  17  18
ENDBRANCH  16  17
TORSDOF 6
ENDMDL
