MODEL 1
REMARK VINA RESULT:     -12.7      0.000      0.000
REMARK  Name = 
REMARK  2 active torsions:
REMARK  status: ('A' for Active; 'I' for Inactive)
REMARK    1  A    between atoms: C_7  and  C_9
REMARK    2  A    between atoms: N_12  and  C_14
REMARK                            x       y       z     vdW  Elec       q    Type
REMARK                         _______ _______ _______ _____ _____    ______ ____
ROOT
ATOM      9  C   UNL     1      -3.655   1.415  24.862  0.00  0.00    +0.094 C 
ATOM     10  C   UNL     1      -4.470   1.350  24.754  0.00  0.00    +0.028 C 
ATOM     11  C   UNL     1      -4.653   0.550  24.666  0.00  0.00    +0.073 C 
ATOM     12  N   UNL     1      -3.951   0.121  24.721  0.00  0.00    -0.274 NA
ATOM     13  C   UNL     1      -3.334   0.656  24.842  0.00  0.00    +0.081 C 
ENDROOT
BRANCH   9   7
ATOM      1  C   UNL     1      -0.886   4.725  24.956  0.00  0.00    +0.031 C 
ATOM      2  C   UNL     1      -1.555   4.264  25.095  0.00  0.00    -0.020 A 
ATOM      3  C   UNL     1      -1.613   3.511  24.766  0.00  0.00    +0.018 A 
ATOM      4  C   UNL     1      -2.282   3.049  24.905  0.00  0.00    +0.118 A 
ATOM      5  C   UNL     1      -2.894   3.342  25.375  0.00  0.00    +0.164 A 
ATOM      6  O   UNL     1      -3.482   2.766  25.416  0.00  0.00    -0.438 OA
ATOM      7  C   UNL     1      -3.235   2.117  24.972  0.00  0.00    +0.207 A 
ATOM      8  N   UNL     1      -2.493   2.292  24.657  0.00  0.00    -0.212 NA
ATOM     20  C   UNL     1      -2.836   4.096  25.705  0.00  0.00    +0.039 A 
ATOM     21  C   UNL     1      -2.166   4.557  25.565  0.00  0.00    -0.001 A 
ENDBRANCH   9   7
BRANCH  12  14
ATOM     14  C   UNL     1      -3.878  -0.699  24.664  0.00  0.00    +0.058 C 
ATOM     15  C   UNL     1      -3.576  -1.131  25.299  0.00  0.00    +0.016 C 
ATOM     16  C   UNL     1      -3.503  -1.950  25.243  0.00  0.00    +0.001 C 
ATOM     17  C   UNL     1      -3.731  -2.338  24.552  0.00  0.00    +0.000 C 
ATOM     18  C   UNL     1      -4.032  -1.908  23.917  0.00  0.00    +0.001 C 
ATOM     19  C   UNL     1      -4.106  -1.087  23.973  0.00  0.00    +0.016 C 
ENDBRANCH  12  14
TORSDOF 2
ENDMDL
MODEL 2
REMARK VINA RESULT:     -12.5      0.770      4.851
REMARK  Name = 
REMARK  2 active torsions:
REMARK  status: ('A' for Active; 'I' for Inactive)
REMARK    1  A    between atoms: C_7  and  C_9
REMARK    2  A    between atoms: N_12  and  C_14
REMARK                            x       y       z     vdW  Elec       q    Type
REMARK                         _______ _______ _______ _____ _____    ______ ____
ROOT
ATOM      9  C   UNL     1      -3.554   1.408  24.699  0.00  0.00    +0.094 C 
ATOM     10  C   UNL     1      -4.143   1.918  24.429  0.00  0.00    +0.028 C 
ATOM     11  C   UNL     1      -3.874   2.693  24.521  0.00  0.00    +0.073 C 
ATOM     12  N   UNL     1      -3.117   2.661  24.849  0.00  0.00    -0.274 NA
ATOM     13  C   UNL     1      -2.920   1.867  24.959  0.00  0.00    +0.081 C 
ENDROOT
BRANCH   9   7
ATOM      1  C   UNL     1      -4.018  -2.820  23.964  0.00  0.00    +0.031 C 
ATOM      2  C   UNL     1      -3.851  -2.109  24.345  0.00  0.00    -0.020 A 
ATOM      3  C   UNL     1      -3.953  -1.393  23.949  0.00  0.00    +0.018 A 
ATOM      4  C   UNL     1      -3.785  -0.681  24.330  0.00  0.00    +0.118 A 
ATOM      5  C   UNL     1      -3.515  -0.685  25.110  0.00  0.00    +0.164 A 
ATOM      6  O   UNL     1      -3.396   0.096  25.343  0.00  0.00    -0.438 OA
ATOM      7  C   UNL     1      -3.592   0.584  24.707  0.00  0.00    +0.207 A 
ATOM      8  N   UNL     1      -3.832   0.103  24.082  0.00  0.00    -0.212 NA
ATOM     20  C   UNL     1      -3.413  -1.402  25.508  0.00  0.00    +0.039 A 
ATOM     21  C   UNL     1      -3.581  -2.113  25.125  0.00  0.00    -0.001 A 
ENDBRANCH   9   7
BRANCH  12  14
ATOM     14  C   UNL     1      -2.642   3.309  25.035  0.00  0.00    +0.058 C 
ATOM     15  C   UNL     1      -2.906   3.873  25.576  0.00  0.00    +0.016 C 
ATOM     16  C   UNL     1      -2.431   4.521  25.762  0.00  0.00    +0.001 C 
ATOM     17  C   UNL     1      -1.691   4.605  25.407  0.00  0.00    +0.000 C 
ATOM     18  C   UNL     1      -1.426   4.042  24.867  0.00  0.00    +0.001 C 
ATOM     19  C   UNL     1      -1.901   3.394  24.680  0.00  0.00    +0.016 C 
ENDBRANCH  12  14
TORSDOF 2
ENDMDL
MODEL 3
REMARK VINA RESULT:      -9.4      2.383      3.670
REMARK  Name = 
REMARK  2 active torsions:
REMARK  status: ('A' for Active; 'I' for Inactive)
REMARK    1  A    between atoms: C_7  and  C_9
REMARK    2  A    between atoms: N_12  and  C_14
REMARK                            x       y       z     vdW  Elec       q    Type
REMARK                         _______ _______ _______ _____ _____    ______ ____
ROOT
ATOM      9  C   UNL     1      -2.226   0.740  24.885  0.00  0.00    +0.094 C 
ATOM     10  C   UNL     1      -1.906   0.249  25.465  0.00  0.00    +0.028 C 
ATOM     11  C   UNL     1      -1.155   0.014  25.216  0.00  0.00    +0.073 C 
ATOM     12  N   UNL     1      -1.011   0.362  24.481  0.00  0.00    -0.274 NA
ATOM     13  C   UNL     1      -1.673   0.810  24.277  0.00  0.00    +0.081 C 
ENDROOT
BRANCH   9   7
ATOM      1  C   UNL     1      -6.400   1.838  24.978  0.00  0.00    +0.031 C 
ATOM      2  C   UNL     1      -5.578   1.899  24.973  0.00  0.00    -0.020 A 
ATOM      3  C   UNL     1      -5.114   1.218  24.936  0.00  0.00    +0.018 A 
ATOM      4  C   UNL     1      -4.291   1.278  24.931  0.00  0.00    +0.118 A 
ATOM      5  C   UNL     1      -3.932   2.020  24.963  0.00  0.00    +0.164 A 
ATOM      6  O   UNL     1      -3.115   1.909  24.950  0.00  0.00    -0.438 OA
ATOM      7  C   UNL     1      -2.969   1.098  24.910  0.00  0.00    +0.207 A 
ATOM      8  N   UNL     1      -3.696   0.709  24.898  0.00  0.00    -0.212 NA
ATOM     20  C   UNL     1      -4.396   2.702  25.000  0.00  0.00    +0.039 A 
ATOM     21  C   UNL     1      -5.218   2.641  25.005  0.00  0.00    -0.001 A 
ENDBRANCH   9   7
BRANCH  12  14
ATOM     14  C   UNL     1      -0.326   0.276  24.030  0.00  0.00    +0.058 C 
ATOM     15  C   UNL     1       0.144   0.934  23.865  0.00  0.00    +0.016 C 
ATOM     16  C   UNL     1       0.829   0.848  23.414  0.00  0.00    +0.001 C 
ATOM     17  C   UNL     1       1.044   0.106  23.127  0.00  0.00    +0.000 C 
ATOM     18  C   UNL     1       0.575  -0.552  23.290  0.00  0.00    +0.001 C 
ATOM     19  C   UNL     1      -0.111  -0.467  23.742  0.00  0.00    +0.016 C 
ENDBRANCH  12  14
TORSDOF 2
ENDMDL
