MODEL 1
REMARK VINA RESULT:      -9.9      0.000      0.000
REMARK  Name = 
REMARK  7 active torsions:
REMARK  status: ('A' for Active; 'I' for Inactive)
REMARK    1  A    between atoms: O_2  and  C_3
REMARK    2  A    between atoms: C_4  and  C_9
REMARK    3  A    between atoms: C_11  and  C_16
REMARK    4  A    between atoms: C_23  and  C_24
REMARK    5  A    between atoms: C_24  and  N_25
REMARK    6  A    between atoms: C_26  and  C_28
REMARK    7  A    between atoms: C_33  and  C_34
REMARK                            x       y       z     vdW  Elec       q    Type
REMARK                         _______ _______ _______ _____ _____    ______ ____
ROOT
ATOM     16  C   UNL     1      -0.374  -0.555  24.223  0.00  0.00    +0.056 C 
ATOM     17  C   UNL     1       0.054  -1.151  23.963  0.00  0.00    +0.078 C 
ATOM     18  N   UNL     1       0.181  -0.351  23.800  0.00  0.00    -0.272 NA
ATOM     19  C   UNL     1      -0.567   0.189  24.298  0.00  0.00    +0.072 C 
ATOM     20  C   UNL     1      -0.849   0.757  24.454  0.00  0.00    +0.018 C 
ATOM     21  C   UNL     1      -0.243   0.227  24.058  0.00  0.00    +0.010 C 
ATOM     22  C   UNL     1       0.368   0.632  23.576  0.00  0.00    +0.018 C 
ATOM     23  C   UNL     1       0.813   0.077  23.300  0.00  0.00    +0.079 C 
ENDROOT
BRANCH  16  11
ATOM      9  C   UNL     1      -2.338  -1.258  24.869  0.00  0.00    +0.087 A 
ATOM     10  C   UNL     1      -1.696  -1.077  24.384  0.00  0.00    +0.034 A 
ATOM     11  C   UNL     1      -1.018  -0.736  24.708  0.00  0.00    +0.063 A 
ATOM     12  N   UNL     1      -0.983  -0.575  25.516  0.00  0.00    -0.235 NA
ATOM     13  C   UNL     1      -1.625  -0.755  26.000  0.00  0.00    +0.139 A 
ATOM     14  C   UNL     1      -1.591  -0.594  26.809  0.00  0.00    +0.074 C 
ATOM     15  N   UNL     1      -2.303  -1.096  25.677  0.00  0.00    -0.231 NA
BRANCH   9   4
ATOM      3  C   UNL     1      -3.672  -1.130  24.373  0.00  0.00    +0.140 A 
ATOM      4  C   UNL     1      -3.016  -1.600  24.545  0.00  0.00    +0.052 A 
ATOM      5  C   UNL     1      -3.037  -2.410  24.393  0.00  0.00    +0.005 A 
ATOM      6  C   UNL     1      -3.714  -2.752  24.069  0.00  0.00    +0.000 A 
ATOM      7  C   UNL     1      -4.371  -2.282  23.897  0.00  0.00    +0.003 A 
ATOM      8  C   UNL     1      -4.350  -1.472  24.049  0.00  0.00    +0.037 A 
BRANCH   3   2
ATOM      1  C   UNL     1      -4.322   0.142  24.393  0.00  0.00    +0.252 C 
ATOM      2  O   UNL     1      -3.651  -0.320  24.524  0.00  0.00    -0.471 OA
ENDBRANCH   3   2
ENDBRANCH   9   4
ENDBRANCH  16  11
BRANCH  23  24
ATOM     24  C   UNL     1       1.476  -0.057  22.829  0.00  0.00    +0.131 C 
BRANCH  24  25
ATOM     25  N   UNL     1       2.220  -0.139  23.175  0.00  0.00    -0.200 NA
ATOM     26  C   UNL     1       2.896  -0.147  22.703  0.00  0.00    +0.265 C 
ATOM     27  O   UNL     1       2.829  -0.072  21.884  0.00  0.00    -0.268 OA
BRANCH  26  28
ATOM     28  C   UNL     1       3.640  -0.229  23.049  0.00  0.00    +0.061 A 
ATOM     29  C   UNL     1       3.833  -0.922  23.454  0.00  0.00    +0.005 A 
ATOM     30  C   UNL     1       4.577  -1.005  23.801  0.00  0.00    +0.000 A 
ATOM     31  C   UNL     1       5.129  -0.394  23.743  0.00  0.00    +0.000 A 
ATOM     32  C   UNL     1       4.936   0.299  23.338  0.00  0.00    +0.007 A 
ATOM     33  C   UNL     1       4.193   0.381  22.992  0.00  0.00    +0.084 A 
BRANCH  33  34
ATOM     34  C   UNL     1       4.000   1.074  22.588  0.00  0.00    +0.388 C 
ATOM     35  O   UNL     1       3.700   1.723  23.000  0.00  0.00    -0.241 OA
ATOM     36  O   UNL     1       4.108   1.119  21.771  0.00  0.00    -0.241 OA
ENDBRANCH  33  34
ENDBRANCH  26  28
ENDBRANCH  24  25
ENDBRANCH  23  24
TORSDOF 7
ENDMDL
MODEL 2
REMARK VINA RESULT:      -9.8      3.082      5.897
REMARK  Name = 
REMARK  7 active torsions:
REMARK  status: ('A' for Active; 'I' for Inactive)
REMARK    1  A    between atoms: O_2  and  C_3
REMARK    2  A    between atoms: C_4  and  C_9
REMARK    3  A    between atoms: C_11  and  C_16
REMARK    4  A    between atoms: C_23  and  C_24
REMARK    5  A    between atoms: C_24  and  N_25
REMARK    6  A    between atoms: C_26  and  C_28
REMARK    7  A    between atoms: C_33  and  C_34
REMARK                            x       y       z     vdW  Elec       q    Type
REMARK                         _______ _______ _______ _____ _____    ______ ____
ROOT
ATOM     16  C   UNL     1      -0.659   1.122  25.308  0.00  0.00    +0.056 C 
ATOM     17  C   UNL     1      -1.219   0.699  25.645  0.00  0.00    +0.078 C 
ATOM     18  N   UNL     1      -0.774   0.481  24.985  0.00  0.00    -0.272 NA
ATOM     19  C   UNL     1      -0.110   1.268  24.786  0.00  0.00    +0.072 C 
ATOM     20  C   UNL     1       0.369   1.530  24.427  0.00  0.00    +0.018 C 
ATOM     21  C   UNL     1      -0.227   0.902  24.660  0.00  0.00    +0.010 C 
ATOM     22  C   UNL     1      -0.240   0.179  24.163  0.00  0.00    +0.018 C 
ATOM     23  C   UNL     1      -0.781  -0.267  24.463  0.00  0.00    +0.079 C 
ENDROOT
BRANCH  16  11
ATOM      9  C   UNL     1      -0.693   3.274  25.677  0.00  0.00    +0.087 A 
ATOM     10  C   UNL     1      -0.860   2.538  25.345  0.00  0.00    +0.034 A 
ATOM     11  C   UNL     1      -0.492   1.860  25.640  0.00  0.00    +0.063 A 
ATOM     12  N   UNL     1       0.042   1.919  26.266  0.00  0.00    -0.235 NA
ATOM     13  C   UNL     1       0.209   2.656  26.597  0.00  0.00    +0.139 A 
ATOM     14  C   UNL     1       0.743   2.716  27.223  0.00  0.00    +0.074 C 
ATOM     15  N   UNL     1      -0.158   3.333  26.303  0.00  0.00    -0.231 NA
BRANCH   9   4
ATOM      3  C   UNL     1      -1.823   4.147  25.628  0.00  0.00    +0.140 A 
ATOM      4  C   UNL     1      -1.060   3.952  25.382  0.00  0.00    +0.052 A 
ATOM      5  C   UNL     1      -0.664   4.433  24.842  0.00  0.00    +0.005 A 
ATOM      6  C   UNL     1      -1.032   5.111  24.547  0.00  0.00    +0.000 A 
ATOM      7  C   UNL     1      -1.795   5.306  24.793  0.00  0.00    +0.003 A 
ATOM      8  C   UNL     1      -2.191   4.825  25.333  0.00  0.00    +0.037 A 
BRANCH   3   2
ATOM      1  C   UNL     1      -2.983   3.859  26.411  0.00  0.00    +0.252 C 
ATOM      2  O   UNL     1      -2.219   3.666  26.168  0.00  0.00    -0.471 OA
ENDBRANCH   3   2
ENDBRANCH   9   4
ENDBRANCH  16  11
BRANCH  23  24
ATOM     24  C   UNL     1      -1.154  -0.997  24.371  0.00  0.00    +0.131 C 
BRANCH  24  25
ATOM     25  N   UNL     1      -1.970  -1.033  24.258  0.00  0.00    -0.200 NA
ATOM     26  C   UNL     1      -2.346  -1.764  24.197  0.00  0.00    +0.265 C 
ATOM     27  O   UNL     1      -1.906  -2.460  24.247  0.00  0.00    -0.268 OA
BRANCH  26  28
ATOM     28  C   UNL     1      -3.162  -1.800  24.085  0.00  0.00    +0.061 A 
ATOM     29  C   UNL     1      -3.508  -1.416  23.441  0.00  0.00    +0.005 A 
ATOM     30  C   UNL     1      -4.324  -1.452  23.329  0.00  0.00    +0.000 A 
ATOM     31  C   UNL     1      -4.796  -1.872  23.860  0.00  0.00    +0.000 A 
ATOM     32  C   UNL     1      -4.450  -2.256  24.504  0.00  0.00    +0.007 A 
ATOM     33  C   UNL     1      -3.634  -2.220  24.616  0.00  0.00    +0.084 A 
BRANCH  33  34
ATOM     34  C   UNL     1      -3.289  -2.604  25.259  0.00  0.00    +0.388 C 
ATOM     35  O   UNL     1      -3.244  -2.225  25.991  0.00  0.00    -0.241 OA
ATOM     36  O   UNL     1      -2.988  -3.367  25.171  0.00  0.00    -0.241 OA
ENDBRANCH  33  34
ENDBRANCH  26  28
ENDBRANCH  24  25
ENDBRANCH  23  24
TORSDOF 7
ENDMDL
MODEL 3
REMARK VINA RESULT:      -9.7      2.912      4.414
REMARK  Name = 
REMARK  7 active torsions:
REMARK  status: ('A' for Active; 'I' for Inactive)
REMARK    1  A    between atoms: O_2  and  C_3
REMARK    2  A    between atoms: C_4  and  C_9
REMARK    3  A    between atoms: C_11  and  C_16
REMARK    4  A    between atoms: C_23  and  C_24
REMARK    5  A    between atoms: C_24  and  N_25
REMARK    6  A    between atoms: C_26  and  C_28
REMARK    7  A    between atoms: C_33  and  C_34
REMARK                            x       y       z     vdW  Elec       q    Type
REMARK                         _______ _______ _______ _____ _____    ______ ____
ROOT
ATOM     16  C   UNL     1      -0.683  -0.003  24.939  0.00  0.00    +0.056 C 
ATOM     17  C   UNL     1      -0.854   0.427  25.564  0.00  0.00    +0.078 C 
ATOM     18  N   UNL     1      -0.500   0.697  24.869  0.00  0.00    -0.272 NA
ATOM     19  C   UNL     1      -0.408  -0.128  24.228  0.00  0.00    +0.072 C 
ATOM     20  C   UNL     1      -0.223  -0.386  23.657  0.00  0.00    +0.018 C 
ATOM     21  C   UNL     1      -0.335   0.269  24.260  0.00  0.00    +0.010 C 
ATOM     22  C   UNL     1      -0.058   1.066  24.020  0.00  0.00    +0.018 C 
ATOM     23  C   UNL     1      -0.209   1.523  24.613  0.00  0.00    +0.079 C 
ENDROOT
BRANCH  16  11
ATOM      9  C   UNL     1      -1.821  -1.861  24.797  0.00  0.00    +0.087 A 
ATOM     10  C   UNL     1      -1.632  -1.059  24.766  0.00  0.00    +0.034 A 
ATOM     11  C   UNL     1      -0.873  -0.807  24.969  0.00  0.00    +0.063 A 
ATOM     12  N   UNL     1      -0.304  -1.356  25.202  0.00  0.00    -0.235 NA
ATOM     13  C   UNL     1      -0.493  -2.158  25.233  0.00  0.00    +0.139 A 
ATOM     14  C   UNL     1       0.076  -2.708  25.466  0.00  0.00    +0.074 C 
ATOM     15  N   UNL     1      -1.252  -2.411  25.031  0.00  0.00    -0.231 NA
BRANCH   9   4
ATOM      3  C   UNL     1      -3.218  -1.942  25.089  0.00  0.00    +0.140 A 
ATOM      4  C   UNL     1      -2.580  -2.114  24.594  0.00  0.00    +0.052 A 
ATOM      5  C   UNL     1      -2.701  -2.537  23.897  0.00  0.00    +0.005 A 
ATOM      6  C   UNL     1      -3.460  -2.790  23.694  0.00  0.00    +0.000 A 
ATOM      7  C   UNL     1      -4.098  -2.618  24.189  0.00  0.00    +0.003 A 
ATOM      8  C   UNL     1      -3.977  -2.195  24.887  0.00  0.00    +0.037 A 
BRANCH   3   2
ATOM      1  C   UNL     1      -3.739  -1.316  26.263  0.00  0.00    +0.252 C 
ATOM      2  O   UNL     1      -3.097  -1.519  25.787  0.00  0.00    -0.471 OA
ENDBRANCH   3   2
ENDBRANCH   9   4
ENDBRANCH  16  11
BRANCH  23  24
ATOM     24  C   UNL     1      -0.147   2.304  24.869  0.00  0.00    +0.131 C 
BRANCH  24  25
ATOM     25  N   UNL     1      -0.826   2.759  24.977  0.00  0.00    -0.200 NA
ATOM     26  C   UNL     1      -0.783   3.474  25.386  0.00  0.00    +0.265 C 
ATOM     27  O   UNL     1      -0.060   3.734  25.688  0.00  0.00    -0.268 OA
BRANCH  26  28
ATOM     28  C   UNL     1      -1.462   3.929  25.493  0.00  0.00    +0.061 A 
ATOM     29  C   UNL     1      -2.089   3.635  25.942  0.00  0.00    +0.005 A 
ATOM     30  C   UNL     1      -2.769   4.091  26.049  0.00  0.00    +0.000 A 
ATOM     31  C   UNL     1      -2.821   4.840  25.708  0.00  0.00    +0.000 A 
ATOM     32  C   UNL     1      -2.194   5.134  25.259  0.00  0.00    +0.007 A 
ATOM     33  C   UNL     1      -1.515   4.679  25.152  0.00  0.00    +0.084 A 
BRANCH  33  34
ATOM     34  C   UNL     1      -0.888   4.973  24.703  0.00  0.00    +0.388 C 
ATOM     35  O   UNL     1      -0.822   4.773  23.905  0.00  0.00    -0.241 OA
ATOM     36  O   UNL     1      -0.327   5.467  25.052  0.00  0.00    -0.241 OA
ENDBRANCH  33  34
ENDBRANCH  26  28
ENDBRANCH  24  25
ENDBRANCH  23  24
TORSDOF 7
ENDMDL
MODEL 4
REMARK VINA RESULT:      -9.6      3.802      6.202
REMARK  Name = 
REMARK  7 active torsions:
REMARK  status: ('A' for Active; 'I' for Inactive)
REMARK    1  A    between atoms: O_2  and  C_3
REMARK    2  A    between atoms: C_4  and  C_9
REMARK    3  A    between atoms: C_11  and  C_16
REMARK    4  A    between atoms: C_23  and  C_24
REMARK    5  A    between atoms: C_24  and  N_25
REMARK    6  A    between atoms: C_26  and  C_28
REMARK    7  A    between atoms: C_33  and  C_34
REMARK                            x       y       z     vdW  Elec       q    Type
REMARK                         _______ _______ _______ _____ _____    ______ ____
ROOT
ATOM     16  C   UNL     1      -3.507   2.072  24.999  0.00  0.00    +0.056 C 
ATOM     17  C   UNL     1      -3.218   1.443  25.356  0.00  0.00    +0.078 C 
ATOM     18  N   UNL     1      -3.705   1.445  24.690  0.00  0.00    -0.272 NA
ATOM     19  C   UNL     1      -3.916   2.446  24.463  0.00  0.00    +0.072 C 
ATOM     20  C   UNL     1      -4.210   2.894  24.088  0.00  0.00    +0.018 C 
ATOM     21  C   UNL     1      -3.984   2.065  24.346  0.00  0.00    +0.010 C 
ATOM     22  C   UNL     1      -4.309   1.409  23.862  0.00  0.00    +0.018 C 
ATOM     23  C   UNL     1      -4.046   0.768  24.182  0.00  0.00    +0.079 C 
ENDROOT
BRANCH  16  11
ATOM      9  C   UNL     1      -2.409   3.915  25.404  0.00  0.00    +0.087 A 
ATOM     10  C   UNL     1      -2.606   3.179  25.090  0.00  0.00    +0.034 A 
ATOM     11  C   UNL     1      -3.309   2.809  25.314  0.00  0.00    +0.063 A 
ATOM     12  N   UNL     1      -3.814   3.176  25.853  0.00  0.00    -0.235 NA
ATOM     13  C   UNL     1      -3.617   3.912  26.167  0.00  0.00    +0.139 A 
ATOM     14  C   UNL     1      -4.121   4.280  26.706  0.00  0.00    +0.074 C 
ATOM     15  N   UNL     1      -2.914   4.282  25.943  0.00  0.00    -0.231 NA
BRANCH   9   4
ATOM      3  C   UNL     1      -0.980   3.960  25.400  0.00  0.00    +0.140 A 
ATOM      4  C   UNL     1      -1.706   4.285  25.179  0.00  0.00    +0.052 A 
ATOM      5  C   UNL     1      -1.729   4.979  24.734  0.00  0.00    +0.005 A 
ATOM      6  C   UNL     1      -1.026   5.348  24.510  0.00  0.00    +0.000 A 
ATOM      7  C   UNL     1      -0.301   5.023  24.730  0.00  0.00    +0.003 A 
ATOM      8  C   UNL     1      -0.278   4.329  25.176  0.00  0.00    +0.037 A 
BRANCH   3   2
ATOM      1  C   UNL     1      -0.232   2.940  26.066  0.00  0.00    +0.252 C 
ATOM      2  O   UNL     1      -0.957   3.266  25.846  0.00  0.00    -0.471 OA
ENDBRANCH   3   2
ENDBRANCH   9   4
ENDBRANCH  16  11
BRANCH  23  24
ATOM     24  C   UNL     1      -4.062  -0.053  24.110  0.00  0.00    +0.131 C 
BRANCH  24  25
ATOM     25  N   UNL     1      -3.385  -0.495  24.275  0.00  0.00    -0.200 NA
ATOM     26  C   UNL     1      -3.350  -1.291  24.058  0.00  0.00    +0.265 C 
ATOM     27  O   UNL     1      -3.991  -1.644  23.678  0.00  0.00    -0.268 OA
BRANCH  26  28
ATOM     28  C   UNL     1      -2.673  -1.733  24.223  0.00  0.00    +0.061 A 
ATOM     29  C   UNL     1      -1.939  -1.486  23.938  0.00  0.00    +0.005 A 
ATOM     30  C   UNL     1      -1.262  -1.928  24.102  0.00  0.00    +0.000 A 
ATOM     31  C   UNL     1      -1.319  -2.617  24.552  0.00  0.00    +0.000 A 
ATOM     32  C   UNL     1      -2.053  -2.864  24.837  0.00  0.00    +0.007 A 
ATOM     33  C   UNL     1      -2.729  -2.422  24.673  0.00  0.00    +0.084 A 
BRANCH  33  34
ATOM     34  C   UNL     1      -3.463  -2.669  24.958  0.00  0.00    +0.388 C 
ATOM     35  O   UNL     1      -3.940  -3.161  24.499  0.00  0.00    -0.241 OA
ATOM     36  O   UNL     1      -3.720  -2.424  25.703  0.00  0.00    -0.241 OA
ENDBRANCH  33  34
ENDBRANCH  26  28
ENDBRANCH  24  25
ENDBRANCH  23  24
TORSDOF 7
ENDMDL
MODEL 5
REMARK VINA RESULT:      -9.5      1.769      2.798
REMARK  Name = 
REMARK  7 active torsions:
REMARK  status: ('A' for Active; 'I' for Inactive)
REMARK    1  A    between atoms: O_2  and  C_3
REMARK    2  A    between atoms: C_4  and  C_9
REMARK    3  A    between atoms: C_11  and  C_16
REMARK    4  A    between atoms: C_23  and  C_24
REMARK    5  A    between atoms: C_24  and  N_25
REMARK    6  A    between atoms: C_26  and  C_28
REMARK    7  A    between atoms: C_33  and  C_34
REMARK                            x       y       z     vdW  Elec       q    Type
REMARK                         _______ _______ _______ _____ _____    ______ ____
ROOT
ATOM     16  C   UNL     1      -0.743   0.598  23.904  0.00  0.00    +0.056 C 
ATOM     17  C   UNL     1      -0.484   0.968  23.270  0.00  0.00    +0.078 C 
ATOM     18  N   UNL     1      -0.107   0.345  23.659  0.00  0.00    -0.272 NA
ATOM     19  C   UNL     1      -0.713   0.075  24.471  0.00  0.00    +0.072 C 
ATOM     20  C   UNL     1      -0.829  -0.301  24.993  0.00  0.00    +0.018 C 
ATOM     21  C   UNL     1      -0.367  -0.013  24.280  0.00  0.00    +0.010 C 
ATOM     22  C   UNL     1       0.389  -0.427  24.117  0.00  0.00    +0.018 C 
ATOM     23  C   UNL     1       0.678  -0.091  23.495  0.00  0.00    +0.079 C 
ENDROOT
BRANCH  16  11
ATOM      9  C   UNL     1      -2.259   1.872  24.824  0.00  0.00    +0.087 A 
ATOM     10  C   UNL     1      -1.540   1.621  24.507  0.00  0.00    +0.034 A 
ATOM     11  C   UNL     1      -1.463   0.850  24.222  0.00  0.00    +0.063 A 
ATOM     12  N   UNL     1      -2.103   0.332  24.253  0.00  0.00    -0.235 NA
ATOM     13  C   UNL     1      -2.821   0.584  24.570  0.00  0.00    +0.139 A 
ATOM     14  C   UNL     1      -3.463   0.066  24.602  0.00  0.00    +0.074 C 
ATOM     15  N   UNL     1      -2.900   1.354  24.855  0.00  0.00    -0.231 NA
BRANCH   9   4
ATOM      3  C   UNL     1      -2.789   3.193  24.692  0.00  0.00    +0.140 A 
ATOM      4  C   UNL     1      -2.337   2.643  25.109  0.00  0.00    +0.052 A 
ATOM      5  C   UNL     1      -1.962   2.862  25.810  0.00  0.00    +0.005 A 
ATOM      6  C   UNL     1      -2.040   3.633  26.095  0.00  0.00    +0.000 A 
ATOM      7  C   UNL     1      -2.492   4.183  25.679  0.00  0.00    +0.003 A 
ATOM      8  C   UNL     1      -2.867   3.963  24.977  0.00  0.00    +0.037 A 
BRANCH   3   2
ATOM      1  C   UNL     1      -3.640   3.514  23.590  0.00  0.00    +0.252 C 
ATOM      2  O   UNL     1      -3.163   2.973  23.991  0.00  0.00    -0.471 OA
ENDBRANCH   3   2
ENDBRANCH   9   4
ENDBRANCH  16  11
BRANCH  23  24
ATOM     24  C   UNL     1       1.321  -0.110  22.979  0.00  0.00    +0.131 C 
BRANCH  24  25
ATOM     25  N   UNL     1       2.086  -0.196  23.276  0.00  0.00    -0.200 NA
ATOM     26  C   UNL     1       2.732  -0.166  22.764  0.00  0.00    +0.265 C 
ATOM     27  O   UNL     1       2.613  -0.051  21.956  0.00  0.00    -0.268 OA
BRANCH  26  28
ATOM     28  C   UNL     1       3.497  -0.252  23.061  0.00  0.00    +0.061 A 
ATOM     29  C   UNL     1       3.717  -0.952  23.440  0.00  0.00    +0.005 A 
ATOM     30  C   UNL     1       4.482  -1.037  23.736  0.00  0.00    +0.000 A 
ATOM     31  C   UNL     1       5.027  -0.424  23.654  0.00  0.00    +0.000 A 
ATOM     32  C   UNL     1       4.807   0.275  23.275  0.00  0.00    +0.007 A 
ATOM     33  C   UNL     1       4.043   0.361  22.979  0.00  0.00    +0.084 A 
BRANCH  33  34
ATOM     34  C   UNL     1       3.823   1.061  22.600  0.00  0.00    +0.388 C 
ATOM     35  O   UNL     1       3.925   1.138  21.785  0.00  0.00    -0.241 OA
ATOM     36  O   UNL     1       3.502   1.683  23.036  0.00  0.00    -0.241 OA
ENDBRANCH  33  34
ENDBRANCH  26  28
ENDBRANCH  24  25
ENDBRANCH  23  24
TORSDOF 7
ENDMDL
MODEL 6
REMARK VINA RESULT:      -8.7      3.368      5.626
REMARK  Name = 
REMARK  7 active torsions:
REMARK  status: ('A' for Active; 'I' for Inactive)
REMARK    1  A    between atoms: O_2  and  C_3
REMARK    2  A    between atoms: C_4  and  C_9
REMARK    3  A    between atoms: C_11  and  C_16
REMARK    4  A    between atoms: C_23  and  C_24
REMARK    5  A    between atoms: C_24  and  N_25
REMARK    6  A    between atoms: C_26  and  C_28
REMARK    7  A    between atoms: C_33  and  C_34
REMARK                            x       y       z     vdW  Elec       q    Type
REMARK                         _______ _______ _______ _____ _____    ______ ____
ROOT
ATOM     16  C   UNL     1      -1.381   1.796  24.808  0.00  0.00    +0.056 C 
ATOM     17  C   UNL     1      -1.541   1.366  25.436  0.00  0.00    +0.078 C 
ATOM     18  N   UNL     1      -1.213   1.093  24.729  0.00  0.00    -0.272 NA
ATOM     19  C   UNL     1      -1.126   1.919  24.090  0.00  0.00    +0.072 C 
ATOM     20  C   UNL     1      -0.953   2.177  23.515  0.00  0.00    +0.018 C 
ATOM     21  C   UNL     1      -1.059   1.521  24.117  0.00  0.00    +0.010 C 
ATOM     22  C   UNL     1      -0.805   0.720  23.865  0.00  0.00    +0.018 C 
ATOM     23  C   UNL     1      -0.947   0.263  24.460  0.00  0.00    +0.079 C 
ENDROOT
BRANCH  16  11
ATOM      9  C   UNL     1      -2.513   3.661  24.907  0.00  0.00    +0.087 A 
ATOM     10  C   UNL     1      -2.340   2.855  24.866  0.00  0.00    +0.034 A 
ATOM     11  C   UNL     1      -1.555   2.603  24.848  0.00  0.00    +0.063 A 
ATOM     12  N   UNL     1      -0.943   3.155  24.870  0.00  0.00    -0.235 NA
ATOM     13  C   UNL     1      -1.116   3.960  24.910  0.00  0.00    +0.139 A 
ATOM     14  C   UNL     1      -0.505   4.514  24.933  0.00  0.00    +0.074 C 
ATOM     15  N   UNL     1      -1.901   4.213  24.929  0.00  0.00    -0.231 NA
BRANCH   9   4
ATOM      3  C   UNL     1      -3.665   4.068  25.648  0.00  0.00    +0.140 A 
ATOM      4  C   UNL     1      -3.299   3.913  24.925  0.00  0.00    +0.052 A 
ATOM      5  C   UNL     1      -3.717   4.010  24.221  0.00  0.00    +0.005 A 
ATOM      6  C   UNL     1      -4.502   4.262  24.239  0.00  0.00    +0.000 A 
ATOM      7  C   UNL     1      -4.869   4.418  24.962  0.00  0.00    +0.003 A 
ATOM      8  C   UNL     1      -4.450   4.321  25.666  0.00  0.00    +0.037 A 
BRANCH   3   2
ATOM      1  C   UNL     1      -3.610   4.137  27.074  0.00  0.00    +0.252 C 
ATOM      2  O   UNL     1      -3.247   3.972  26.352  0.00  0.00    -0.471 OA
ENDBRANCH   3   2
ENDBRANCH   9   4
ENDBRANCH  16  11
BRANCH  23  24
ATOM     24  C   UNL     1      -0.891  -0.520  24.711  0.00  0.00    +0.131 C 
BRANCH  24  25
ATOM     25  N   UNL     1      -1.455  -1.072  24.471  0.00  0.00    -0.200 NA
ATOM     26  C   UNL     1      -1.719  -1.648  24.999  0.00  0.00    +0.265 C 
ATOM     27  O   UNL     1      -1.420  -1.672  25.767  0.00  0.00    -0.268 OA
BRANCH  26  28
ATOM     28  C   UNL     1      -2.284  -2.199  24.759  0.00  0.00    +0.061 A 
ATOM     29  C   UNL     1      -2.083  -2.784  24.213  0.00  0.00    +0.005 A 
ATOM     30  C   UNL     1      -2.648  -3.336  23.973  0.00  0.00    +0.000 A 
ATOM     31  C   UNL     1      -3.413  -3.303  24.279  0.00  0.00    +0.000 A 
ATOM     32  C   UNL     1      -3.614  -2.718  24.825  0.00  0.00    +0.007 A 
ATOM     33  C   UNL     1      -3.050  -2.167  25.065  0.00  0.00    +0.084 A 
BRANCH  33  34
ATOM     34  C   UNL     1      -3.251  -1.582  25.612  0.00  0.00    +0.388 C 
ATOM     35  O   UNL     1      -3.691  -0.927  25.372  0.00  0.00    -0.241 OA
ATOM     36  O   UNL     1      -3.011  -1.652  26.398  0.00  0.00    -0.241 OA
ENDBRANCH  33  34
ENDBRANCH  26  28
ENDBRANCH  24  25
ENDBRANCH  23  24
TORSDOF 7
ENDMDL
