MODEL 1
REMARK VINA RESULT:      -9.9      0.000      0.000
REMARK  Name = 
REMARK  5 active torsions:
REMARK  status: ('A' for Active; 'I' for Inactive)
REMARK    1  A    between atoms: C_2  and  N_4
REMARK    2  A    between atoms: N_7  and  C_8
REMARK    3  A    between atoms: C_8  and  C_9
REMARK    4  A    between atoms: C_11  and  C_12
REMARK    5  A    between atoms: C_12  and  C_13
REMARK                            x       y       z     vdW  Elec       q    Type
REMARK                         _______ _______ _______ _____ _____    ______ ____
ROOT
ATOM      9  C   UNL     1      -4.288   2.447  25.191  0.00  0.00    +0.170 C 
ATOM     10  O   UNL     1      -4.033   1.689  24.987  0.00  0.00    -0.351 OA
ATOM     11  C   UNL     1      -4.700   1.226  24.844  0.00  0.00    +0.157 C 
ATOM     20  C   UNL     1      -5.367   1.697  24.960  0.00  0.00    +0.212 C 
ATOM     21  O   UNL     1      -6.152   1.455  24.876  0.00  0.00    -0.218 OA
ATOM     22  C   UNL     1      -5.113   2.452  25.174  0.00  0.00    +0.213 C 
ATOM     23  O   UNL     1      -5.598   3.098  25.342  0.00  0.00    -0.218 OA
ENDROOT
BRANCH   9   8
ATOM      8  C   UNL     1      -3.804   3.088  25.379  0.00  0.00    +0.149 C 
BRANCH   8   7
ATOM      4  N   UNL     1      -1.871   3.891  24.756  0.00  0.00    -0.189 NA
ATOM      5  C   UNL     1      -2.534   3.724  25.218  0.00  0.00    +0.339 C 
ATOM      6  O   UNL     1      -2.591   4.029  25.982  0.00  0.00    -0.249 OA
ATOM      7  N   UNL     1      -3.140   3.254  24.916  0.00  0.00    -0.185 NA
BRANCH   4   2
ATOM      1  C   UNL     1      -0.590   4.010  25.378  0.00  0.00    +0.023 C 
ATOM      2  C   UNL     1      -1.265   4.361  25.057  0.00  0.00    +0.097 C 
ATOM      3  C   UNL     1      -1.333   5.183  25.039  0.00  0.00    +0.023 C 
ENDBRANCH   4   2
ENDBRANCH   8   7
ENDBRANCH   9   8
BRANCH  11  12
ATOM     12  C   UNL     1      -4.699   0.431  24.625  0.00  0.00    +0.117 C 
BRANCH  12  13
ATOM     13  C   UNL     1      -4.221  -0.108  25.026  0.00  0.00    +0.228 C 
ATOM     14  O   UNL     1      -3.883   0.099  25.750  0.00  0.00    -0.275 OA
ATOM     15  N   UNL     1      -4.081  -0.855  24.704  0.00  0.00    -0.279 N 
ATOM     16  C   UNL     1      -3.617  -1.449  25.041  0.00  0.00    +0.093 C 
ATOM     17  C   UNL     1      -3.630  -2.100  24.534  0.00  0.00    +0.023 C 
ATOM     18  C   UNL     1      -4.101  -1.908  23.885  0.00  0.00    +0.023 C 
ATOM     19  C   UNL     1      -4.380  -1.139  23.990  0.00  0.00    +0.093 C 
ENDBRANCH  12  13
ENDBRANCH  11  12
TORSDOF 5
ENDMDL
MODEL 2
REMARK VINA RESULT:      -9.5      0.888      4.596
REMARK  Name = 
REMARK  5 active torsions:
REMARK  status: ('A' for Active; 'I' for Inactive)
REMARK    1  A    between atoms: C_2  and  N_4
REMARK    2  A    between atoms: N_7  and  C_8
REMARK    3  A    between atoms: C_8  and  C_9
REMARK    4  A    between atoms: C_11  and  C_12
REMARK    5  A    between atoms: C_12  and  C_13
REMARK                            x       y       z     vdW  Elec       q    Type
REMARK                         _______ _______ _______ _____ _____    ______ ____
ROOT
ATOM      9  C   UNL     1      -4.687   1.303  24.956  0.00  0.00    +0.170 C 
ATOM     10  O   UNL     1      -4.045   1.820  24.998  0.00  0.00    -0.351 OA
ATOM     11  C   UNL     1      -4.336   2.577  25.149  0.00  0.00    +0.157 C 
ATOM     20  C   UNL     1      -5.158   2.528  25.201  0.00  0.00    +0.212 C 
ATOM     21  O   UNL     1      -5.672   3.157  25.346  0.00  0.00    -0.218 OA
ATOM     22  C   UNL     1      -5.376   1.742  25.081  0.00  0.00    +0.213 C 
ATOM     23  O   UNL     1      -6.145   1.445  25.086  0.00  0.00    -0.218 OA
ENDROOT
BRANCH   9   8
ATOM      8  C   UNL     1      -4.649   0.492  24.814  0.00  0.00    +0.149 C 
BRANCH   8   7
ATOM      4  N   UNL     1      -3.295  -1.167  25.235  0.00  0.00    -0.189 NA
ATOM      5  C   UNL     1      -3.883  -0.712  24.877  0.00  0.00    +0.339 C 
ATOM      6  O   UNL     1      -4.292  -1.007  24.225  0.00  0.00    -0.249 OA
ATOM      7  N   UNL     1      -4.061   0.037  25.171  0.00  0.00    -0.185 NA
BRANCH   4   2
ATOM      1  C   UNL     1      -2.496  -2.013  24.405  0.00  0.00    +0.023 C 
ATOM      2  C   UNL     1      -3.116  -1.916  24.941  0.00  0.00    +0.097 C 
ATOM      3  C   UNL     1      -3.558  -2.570  25.182  0.00  0.00    +0.023 C 
ENDBRANCH   4   2
ENDBRANCH   8   7
ENDBRANCH   9   8
BRANCH  11  12
ATOM     12  C   UNL     1      -3.883   3.261  25.234  0.00  0.00    +0.117 C 
BRANCH  12  13
ATOM     13  C   UNL     1      -3.237   3.394  24.739  0.00  0.00    +0.228 C 
ATOM     14  O   UNL     1      -3.235   3.086  23.973  0.00  0.00    -0.275 OA
ATOM     15  N   UNL     1      -2.594   3.833  25.009  0.00  0.00    -0.279 N 
ATOM     16  C   UNL     1      -1.912   4.010  24.578  0.00  0.00    +0.093 C 
ATOM     17  C   UNL     1      -1.416   4.460  25.060  0.00  0.00    +0.023 C 
ATOM     18  C   UNL     1      -1.790   4.561  25.787  0.00  0.00    +0.023 C 
ATOM     19  C   UNL     1      -2.518   4.174  25.756  0.00  0.00    +0.093 C 
ENDBRANCH  12  13
ENDBRANCH  11  12
TORSDOF 5
ENDMDL
MODEL 3
REMARK VINA RESULT:      -8.9      2.433      3.296
REMARK  Name = 
REMARK  5 active torsions:
REMARK  status: ('A' for Active; 'I' for Inactive)
REMARK    1  A    between atoms: C_2  and  N_4
REMARK    2  A    between atoms: N_7  and  C_8
REMARK    3  A    between atoms: C_8  and  C_9
REMARK    4  A    between atoms: C_11  and  C_12
REMARK    5  A    between atoms: C_12  and  C_13
REMARK                            x       y       z     vdW  Elec       q    Type
REMARK                         _______ _______ _______ _____ _____    ______ ____
ROOT
ATOM      9  C   UNL     1      -0.679   1.044  24.784  0.00  0.00    +0.170 C 
ATOM     10  O   UNL     1      -1.229   0.450  24.944  0.00  0.00    -0.351 OA
ATOM     11  C   UNL     1      -0.983  -0.237  24.558  0.00  0.00    +0.157 C 
ATOM     20  C   UNL     1      -0.281  -0.067  24.160  0.00  0.00    +0.212 C 
ATOM     21  O   UNL     1       0.157  -0.596  23.703  0.00  0.00    -0.218 OA
ATOM     22  C   UNL     1      -0.093   0.724  24.299  0.00  0.00    +0.213 C 
ATOM     23  O   UNL     1       0.566   1.125  24.005  0.00  0.00    -0.218 OA
ENDROOT
BRANCH   9   8
ATOM      8  C   UNL     1      -0.710   1.820  25.059  0.00  0.00    +0.149 C 
BRANCH   8   7
ATOM      4  N   UNL     1      -2.113   3.493  25.085  0.00  0.00    -0.189 NA
ATOM      5  C   UNL     1      -1.468   3.013  25.270  0.00  0.00    +0.339 C 
ATOM      6  O   UNL     1      -0.934   3.249  25.854  0.00  0.00    -0.249 OA
ATOM      7  N   UNL     1      -1.356   2.300  24.874  0.00  0.00    -0.185 NA
BRANCH   4   2
ATOM      1  C   UNL     1      -1.785   4.871  25.270  0.00  0.00    +0.023 C 
ATOM      2  C   UNL     1      -2.225   4.206  25.482  0.00  0.00    +0.097 C 
ATOM      3  C   UNL     1      -2.779   4.256  26.092  0.00  0.00    +0.023 C 
ENDBRANCH   4   2
ENDBRANCH   8   7
ENDBRANCH   9   8
BRANCH  11  12
ATOM     12  C   UNL     1      -1.371  -0.964  24.570  0.00  0.00    +0.117 C 
BRANCH  12  13
ATOM     13  C   UNL     1      -1.917  -1.132  25.164  0.00  0.00    +0.228 C 
ATOM     14  O   UNL     1      -1.835  -0.786  25.909  0.00  0.00    -0.275 OA
ATOM     15  N   UNL     1      -2.545  -1.645  25.015  0.00  0.00    -0.279 N 
ATOM     16  C   UNL     1      -3.132  -1.864  25.553  0.00  0.00    +0.093 C 
ATOM     17  C   UNL     1      -3.646  -2.384  25.171  0.00  0.00    +0.023 C 
ATOM     18  C   UNL     1      -3.378  -2.487  24.398  0.00  0.00    +0.023 C 
ATOM     19  C   UNL     1      -2.698  -2.030  24.301  0.00  0.00    +0.093 C 
ENDBRANCH  12  13
ENDBRANCH  11  12
TORSDOF 5
ENDMDL
MODEL 4
REMARK VINA RESULT:      -8.7      2.276      5.451
REMARK  Name = 
REMARK  5 active torsions:
REMARK  status: ('A' for Active; 'I' for Inactive)
REMARK    1  A    between atoms: C_2  and  N_4
REMARK    2  A    between atoms: N_7  and  C_8
REMARK    3  A    between atoms: C_8  and  C_9
REMARK    4  A    between atoms: C_11  and  C_12
REMARK    5  A    between atoms: C_12  and  C_13
REMARK                            x       y       z     vdW  Elec       q    Type
REMARK                         _______ _______ _______ _____ _____    ______ ____
ROOT
ATOM      9  C   UNL     1      -1.046   0.406  24.468  0.00  0.00    +0.170 C 
ATOM     10  O   UNL     1      -1.456   1.079  24.713  0.00  0.00    -0.351 OA
ATOM     11  C   UNL     1      -0.949   1.726  24.645  0.00  0.00    +0.157 C 
ATOM     20  C   UNL     1      -0.226   1.454  24.357  0.00  0.00    +0.212 C 
ATOM     21  O   UNL     1       0.441   1.916  24.206  0.00  0.00    -0.218 OA
ATOM     22  C   UNL     1      -0.285   0.638  24.247  0.00  0.00    +0.213 C 
ATOM     23  O   UNL     1       0.311   0.142  23.967  0.00  0.00    -0.218 OA
ENDROOT
BRANCH   9   8
ATOM      8  C   UNL     1      -1.343  -0.362  24.446  0.00  0.00    +0.149 C 
BRANCH   8   7
ATOM      4  N   UNL     1      -3.236  -1.406  24.751  0.00  0.00    -0.189 NA
ATOM      5  C   UNL     1      -2.447  -1.262  24.555  0.00  0.00    +0.339 C 
ATOM      6  O   UNL     1      -1.975  -1.876  24.271  0.00  0.00    -0.249 OA
ATOM      7  N   UNL     1      -2.132  -0.506  24.642  0.00  0.00    -0.185 NA
BRANCH   4   2
ATOM      1  C   UNL     1      -3.407  -2.739  25.236  0.00  0.00    +0.023 C 
ATOM      2  C   UNL     1      -3.552  -2.163  24.664  0.00  0.00    +0.097 C 
ATOM      3  C   UNL     1      -4.013  -2.343  24.005  0.00  0.00    +0.023 C 
ENDBRANCH   4   2
ENDBRANCH   8   7
ENDBRANCH   9   8
BRANCH  11  12
ATOM     12  C   UNL     1      -1.134   2.508  24.832  0.00  0.00    +0.117 C 
BRANCH  12  13
ATOM     13  C   UNL     1      -1.844   2.838  24.574  0.00  0.00    +0.228 C 
ATOM     14  O   UNL     1      -2.141   2.646  23.829  0.00  0.00    -0.275 OA
ATOM     15  N   UNL     1      -2.258   3.359  25.061  0.00  0.00    -0.279 N 
ATOM     16  C   UNL     1      -2.972   3.731  24.878  0.00  0.00    +0.093 C 
ATOM     17  C   UNL     1      -3.186   4.202  25.521  0.00  0.00    +0.023 C 
ATOM     18  C   UNL     1      -2.604   4.123  26.100  0.00  0.00    +0.023 C 
ATOM     19  C   UNL     1      -2.030   3.602  25.816  0.00  0.00    +0.093 C 
ENDBRANCH  12  13
ENDBRANCH  11  12
TORSDOF 5
ENDMDL
MODEL 5
REMARK VINA RESULT:      -8.5      2.059      4.418
REMARK  Name = 
REMARK  5 active torsions:
REMARK  status: ('A' for Active; 'I' for Inactive)
REMARK    1  A    between atoms: C_2  and  N_4
REMARK    2  A    between atoms: N_7  and  C_8
REMARK    3  A    between atoms: C_8  and  C_9
REMARK    4  A    between atoms: C_11  and  C_12
REMARK    5  A    between atoms: C_12  and  C_13
REMARK                            x       y       z     vdW  Elec       q    Type
REMARK                         _______ _______ _______ _____ _____    ______ ____
ROOT
ATOM      9  C   UNL     1      -1.411   2.049  25.074  0.00  0.00    +0.170 C 
ATOM     10  O   UNL     1      -2.234   2.113  25.049  0.00  0.00    -0.351 OA
ATOM     11  C   UNL     1      -2.431   2.910  25.131  0.00  0.00    +0.157 C 
ATOM     20  C   UNL     1      -1.730   3.339  25.207  0.00  0.00    +0.212 C 
ATOM     21  O   UNL     1      -1.671   4.157  25.301  0.00  0.00    -0.218 OA
ATOM     22  C   UNL     1      -1.100   2.808  25.172  0.00  0.00    +0.213 C 
ATOM     23  O   UNL     1      -0.300   3.000  25.225  0.00  0.00    -0.218 OA
ENDROOT
BRANCH   9   8
ATOM      8  C   UNL     1      -0.977   1.352  25.013  0.00  0.00    +0.149 C 
BRANCH   8   7
ATOM      4  N   UNL     1      -1.293  -0.775  25.391  0.00  0.00    -0.189 NA
ATOM      5  C   UNL     1      -1.001  -0.076  25.064  0.00  0.00    +0.339 C 
ATOM      6  O   UNL     1      -0.441  -0.107  24.459  0.00  0.00    -0.249 OA
ATOM      7  N   UNL     1      -1.269   0.653  25.340  0.00  0.00    -0.185 NA
BRANCH   4   2
ATOM      1  C   UNL     1      -1.475  -1.929  24.568  0.00  0.00    +0.023 C 
ATOM      2  C   UNL     1      -1.026  -1.504  25.114  0.00  0.00    +0.097 C 
ATOM      3  C   UNL     1      -0.308  -1.809  25.383  0.00  0.00    +0.023 C 
ENDBRANCH   4   2
ENDBRANCH   8   7
ENDBRANCH   9   8
BRANCH  11  12
ATOM     12  C   UNL     1      -3.194   3.222  25.135  0.00  0.00    +0.117 C 
BRANCH  12  13
ATOM     13  C   UNL     1      -3.793   2.855  24.704  0.00  0.00    +0.228 C 
ATOM     14  O   UNL     1      -3.642   2.576  23.942  0.00  0.00    -0.275 OA
ATOM     15  N   UNL     1      -4.544   2.766  25.033  0.00  0.00    -0.279 N 
ATOM     16  C   UNL     1      -5.195   2.412  24.669  0.00  0.00    +0.093 C 
ATOM     17  C   UNL     1      -5.830   2.443  25.196  0.00  0.00    +0.023 C 
ATOM     18  C   UNL     1      -5.571   2.816  25.884  0.00  0.00    +0.023 C 
ATOM     19  C   UNL     1      -4.777   3.016  25.784  0.00  0.00    +0.093 C 
ENDBRANCH  12  13
ENDBRANCH  11  12
TORSDOF 5
ENDMDL
