MODEL 1
REMARK VINA RESULT:     -12.5      0.000      0.000
REMARK  Name = 
REMARK  8 active torsions:
REMARK  status: ('A' for Active; 'I' for Inactive)
REMARK    1  A    between atoms: C_3  and  C_4
REMARK    2  A    between atoms: C_4  and  N_5
REMARK    3  A    between atoms: C_7  and  C_8
REMARK    4  A    between atoms: C_8  and  S_9
REMARK    5  A    between atoms: S_9  and  C_10
REMARK    6  A    between atoms: C_19  and  C_20
REMARK    7  A    between atoms: C_20  and  C_21
REMARK    8  A    between atoms: N_26  and  C_29
REMARK                            x       y       z     vdW  Elec       q    Type
REMARK                         _______ _______ _______ _____ _____    ______ ____
ROOT
ATOM      1  O   UNL     1      -1.374  -2.861  25.143  0.00  0.00    -0.218 OA
ATOM      2  C   UNL     1      -1.374  -2.041  25.058  0.00  0.00    +0.213 C 
ATOM      3  C   UNL     1      -2.039  -1.563  24.958  0.00  0.00    +0.172 C 
ATOM     18  O   UNL     1      -1.785  -0.781  24.896  0.00  0.00    -0.351 OA
ATOM     19  C   UNL     1      -0.962  -0.775  24.957  0.00  0.00    +0.157 C 
ATOM     36  C   UNL     1      -0.708  -1.553  25.057  0.00  0.00    +0.212 C 
ATOM     37  O   UNL     1       0.074  -1.801  25.142  0.00  0.00    -0.218 OA
ENDROOT
BRANCH   3   4
ATOM      4  C   UNL     1      -2.822  -1.823  24.926  0.00  0.00    +0.161 C 
BRANCH   4   5
ATOM      5  N   UNL     1      -3.423  -1.297  24.720  0.00  0.00    -0.228 N 
ATOM      6  C   UNL     1      -3.722  -0.692  25.194  0.00  0.00    +0.114 A 
ATOM      7  C   UNL     1      -4.315  -0.304  24.771  0.00  0.00    +0.112 A 
ATOM     16  N   UNL     1      -4.382  -0.670  24.035  0.00  0.00    -0.132 NA
ATOM     17  N   UNL     1      -3.832  -1.283  24.004  0.00  0.00    -0.064 NA
BRANCH   7   8
ATOM      8  C   UNL     1      -4.760   0.337  25.038  0.00  0.00    +0.111 C 
BRANCH   8   9
ATOM      9  S   UNL     1      -4.713   1.063  24.649  0.00  0.00    -0.107 S 
BRANCH   9  10
ATOM     10  C   UNL     1      -5.042   1.736  24.990  0.00  0.00    +0.026 A 
ATOM     11  C   UNL     1      -4.664   2.466  24.913  0.00  0.00    +0.006 A 
ATOM     12  C   UNL     1      -4.994   3.140  25.254  0.00  0.00    +0.001 A 
ATOM     13  C   UNL     1      -5.702   3.086  25.675  0.00  0.00    +0.000 A 
ATOM     14  C   UNL     1      -6.080   2.357  25.753  0.00  0.00    +0.001 A 
ATOM     15  C   UNL     1      -5.751   1.682  25.411  0.00  0.00    +0.006 A 
ENDBRANCH   9  10
ENDBRANCH   8   9
ENDBRANCH   7   8
ENDBRANCH   4   5
ENDBRANCH   3   4
BRANCH  19  20
ATOM     20  C   UNL     1      -0.478  -0.108  24.924  0.00  0.00    +0.117 C 
BRANCH  20  21
ATOM     21  C   UNL     1      -0.548   0.422  24.295  0.00  0.00    +0.228 C 
ATOM     22  O   UNL     1      -0.489   0.150  23.518  0.00  0.00    -0.275 OA
ATOM     23  N   UNL     1      -0.678   1.223  24.443  0.00  0.00    -0.276 N 
ATOM     24  C   UNL     1      -0.748   1.752  23.813  0.00  0.00    +0.115 C 
ATOM     25  C   UNL     1      -0.878   2.553  23.961  0.00  0.00    +0.112 C 
ATOM     26  N   UNL     1      -0.937   2.825  24.738  0.00  0.00    -0.304 N 
ATOM     27  C   UNL     1      -0.867   2.296  25.367  0.00  0.00    +0.112 C 
ATOM     28  C   UNL     1      -0.737   1.495  25.219  0.00  0.00    +0.115 C 
BRANCH  26  29
ATOM     29  C   UNL     1      -1.066   3.626  24.887  0.00  0.00    +0.048 A 
ATOM     30  C   UNL     1      -0.553   4.192  24.574  0.00  0.00    +0.017 A 
ATOM     31  C   UNL     1      -0.682   4.994  24.722  0.00  0.00    +0.031 A 
ATOM     32  C   UNL     1      -1.324   5.229  25.182  0.00  0.00    +0.140 A 
ATOM     33  F   UNL     1      -1.453   6.030  25.330  0.00  0.00    -0.204 F 
ATOM     34  C   UNL     1      -1.837   4.664  25.495  0.00  0.00    +0.031 A 
ATOM     35  C   UNL     1      -1.708   3.862  25.347  0.00  0.00    +0.017 A 
ENDBRANCH  26  29
ENDBRANCH  20  21
ENDBRANCH  19  20
TORSDOF 8
ENDMDL
MODEL 2
REMARK VINA RESULT:     -11.7      2.697      5.850
REMARK  Name = 
REMARK  8 active torsions:
REMARK  status: ('A' for Active; 'I' for Inactive)
REMARK    1  A    between atoms: C_3  and  C_4
REMARK    2  A    between atoms: C_4  and  N_5
REMARK    3  A    between atoms: C_7  and  C_8
REMARK    4  A    between atoms: C_8  and  S_9
REMARK    5  A    between atoms: S_9  and  C_10
REMARK    6  A    between atoms: C_19  and  C_20
REMARK    7  A    between atoms: C_20  and  C_21
REMARK    8  A    between atoms: N_26  and  C_29
REMARK                            x       y       z     vdW  Elec       q    Type
REMARK                         _______ _______ _______ _____ _____    ______ ____
ROOT
ATOM      1  O   UNL     1      -3.458   4.900  26.368  0.00  0.00    -0.218 OA
ATOM      2  C   UNL     1      -3.472   4.188  25.951  0.00  0.00    +0.213 C 
ATOM      3  C   UNL     1      -2.813   3.771  25.681  0.00  0.00    +0.172 C 
ATOM     18  O   UNL     1      -3.081   3.093  25.294  0.00  0.00    -0.351 OA
ATOM     19  C   UNL     1      -3.906   3.091  25.325  0.00  0.00    +0.157 C 
ATOM     36  C   UNL     1      -4.147   3.768  25.731  0.00  0.00    +0.212 C 
ATOM     37  O   UNL     1      -4.927   3.986  25.889  0.00  0.00    -0.218 OA
ENDROOT
BRANCH   3   4
ATOM      4  C   UNL     1      -2.025   3.994  25.781  0.00  0.00    +0.161 C 
BRANCH   4   5
ATOM      5  N   UNL     1      -1.427   3.581  25.389  0.00  0.00    -0.228 N 
ATOM      6  C   UNL     1      -1.208   2.798  25.528  0.00  0.00    +0.114 A 
ATOM      7  C   UNL     1      -0.589   2.610  25.016  0.00  0.00    +0.112 A 
ATOM     16  N   UNL     1      -0.426   3.278  24.560  0.00  0.00    -0.132 NA
ATOM     17  N   UNL     1      -0.944   3.877  24.791  0.00  0.00    -0.064 NA
BRANCH   7   8
ATOM      8  C   UNL     1      -0.202   1.884  24.968  0.00  0.00    +0.111 C 
BRANCH   8   9
ATOM      9  S   UNL     1      -0.202   1.463  24.258  0.00  0.00    -0.107 S 
BRANCH   9  10
ATOM     10  C   UNL     1      -0.174   0.639  24.267  0.00  0.00    +0.026 A 
ATOM     11  C   UNL     1      -0.408   0.225  24.942  0.00  0.00    +0.006 A 
ATOM     12  C   UNL     1      -0.380  -0.599  24.951  0.00  0.00    +0.001 A 
ATOM     13  C   UNL     1      -0.119  -1.011  24.285  0.00  0.00    +0.000 A 
ATOM     14  C   UNL     1       0.114  -0.597  23.611  0.00  0.00    +0.001 A 
ATOM     15  C   UNL     1       0.086   0.227  23.601  0.00  0.00    +0.006 A 
ENDBRANCH   9  10
ENDBRANCH   8   9
ENDBRANCH   7   8
ENDBRANCH   4   5
ENDBRANCH   3   4
BRANCH  19  20
ATOM     20  C   UNL     1      -4.401   2.515  25.006  0.00  0.00    +0.117 C 
BRANCH  20  21
ATOM     21  C   UNL     1      -4.170   2.100  24.331  0.00  0.00    +0.228 C 
ATOM     22  O   UNL     1      -4.004   2.507  23.633  0.00  0.00    -0.275 OA
ATOM     23  N   UNL     1      -4.106   1.278  24.355  0.00  0.00    -0.276 N 
ATOM     24  C   UNL     1      -3.875   0.863  23.680  0.00  0.00    +0.115 C 
ATOM     25  C   UNL     1      -3.810   0.041  23.704  0.00  0.00    +0.112 C 
ATOM     26  N   UNL     1      -3.977  -0.367  24.402  0.00  0.00    -0.304 N 
ATOM     27  C   UNL     1      -4.208   0.049  25.076  0.00  0.00    +0.112 C 
ATOM     28  C   UNL     1      -4.272   0.871  25.053  0.00  0.00    +0.115 C 
BRANCH  26  29
ATOM     29  C   UNL     1      -3.912  -1.189  24.426  0.00  0.00    +0.048 A 
ATOM     30  C   UNL     1      -4.101  -1.636  23.758  0.00  0.00    +0.017 A 
ATOM     31  C   UNL     1      -4.036  -2.459  23.782  0.00  0.00    +0.031 A 
ATOM     32  C   UNL     1      -3.784  -2.833  24.472  0.00  0.00    +0.140 A 
ATOM     33  F   UNL     1      -3.720  -3.655  24.495  0.00  0.00    -0.204 F 
ATOM     34  C   UNL     1      -3.596  -2.386  25.139  0.00  0.00    +0.031 A 
ATOM     35  C   UNL     1      -3.660  -1.563  25.116  0.00  0.00    +0.017 A 
ENDBRANCH  26  29
ENDBRANCH  20  21
ENDBRANCH  19  20
TORSDOF 8
ENDMDL
MODEL 3
REMARK VINA RESULT:     -11.7      1.425      3.771
REMARK  Name = 
REMARK  8 active torsions:
REMARK  status: ('A' for Active; 'I' for Inactive)
REMARK    1  A    between atoms: C_3  and  C_4
REMARK    2  A    between atoms: C_4  and  N_5
REMARK    3  A    between atoms: C_7  and  C_8
REMARK    4  A    between atoms: C_8  and  S_9
REMARK    5  A    between atoms: S_9  and  C_10
REMARK    6  A    between atoms: C_19  and  C_20
REMARK    7  A    between atoms: C_20  and  C_21
REMARK    8  A    between atoms: N_26  and  C_29
REMARK                            x       y       z     vdW  Elec       q    Type
REMARK                         _______ _______ _______ _____ _____    ______ ____
ROOT
ATOM      1  O   UNL     1      -1.289  -2.982  24.931  0.00  0.00    -0.218 OA
ATOM      2  C   UNL     1      -1.744  -2.299  24.843  0.00  0.00    +0.213 C 
ATOM      3  C   UNL     1      -1.456  -1.530  24.773  0.00  0.00    +0.172 C 
ATOM     18  O   UNL     1      -2.101  -1.021  24.696  0.00  0.00    -0.351 OA
ATOM     19  C   UNL     1      -2.789  -1.477  24.719  0.00  0.00    +0.157 C 
ATOM     36  C   UNL     1      -2.568  -2.267  24.809  0.00  0.00    +0.212 C 
ATOM     37  O   UNL     1      -3.081  -2.911  24.858  0.00  0.00    -0.218 OA
ENDROOT
BRANCH   3   4
ATOM      4  C   UNL     1      -0.661  -1.307  24.779  0.00  0.00    +0.161 C 
BRANCH   4   5
ATOM      5  N   UNL     1      -0.440  -0.557  24.515  0.00  0.00    -0.228 N 
ATOM      6  C   UNL     1      -0.521   0.148  24.935  0.00  0.00    +0.114 A 
ATOM      7  C   UNL     1      -0.231   0.761  24.465  0.00  0.00    +0.112 A 
ATOM     16  N   UNL     1       0.029   0.433  23.753  0.00  0.00    -0.132 NA
ATOM     17  N   UNL     1      -0.100  -0.380  23.784  0.00  0.00    -0.064 NA
BRANCH   7   8
ATOM      8  C   UNL     1      -0.205   1.559  24.670  0.00  0.00    +0.111 C 
BRANCH   8   9
ATOM      9  S   UNL     1      -0.753   2.085  24.348  0.00  0.00    -0.107 S 
BRANCH   9  10
ATOM     10  C   UNL     1      -0.845   2.837  24.674  0.00  0.00    +0.026 A 
ATOM     11  C   UNL     1      -0.580   3.501  24.261  0.00  0.00    +0.006 A 
ATOM     12  C   UNL     1      -0.671   4.252  24.587  0.00  0.00    +0.001 A 
ATOM     13  C   UNL     1      -1.027   4.342  25.326  0.00  0.00    +0.000 A 
ATOM     14  C   UNL     1      -1.291   3.678  25.739  0.00  0.00    +0.001 A 
ATOM     15  C   UNL     1      -1.201   2.926  25.413  0.00  0.00    +0.006 A 
ENDBRANCH   9  10
ENDBRANCH   8   9
ENDBRANCH   7   8
ENDBRANCH   4   5
ENDBRANCH   3   4
BRANCH  19  20
ATOM     20  C   UNL     1      -3.561  -1.193  24.661  0.00  0.00    +0.117 C 
BRANCH  20  21
ATOM     21  C   UNL     1      -3.747  -0.617  24.099  0.00  0.00    +0.228 C 
ATOM     22  O   UNL     1      -3.627  -0.770  23.296  0.00  0.00    -0.275 OA
ATOM     23  N   UNL     1      -4.053   0.109  24.339  0.00  0.00    -0.276 N 
ATOM     24  C   UNL     1      -4.240   0.685  23.778  0.00  0.00    +0.115 C 
ATOM     25  C   UNL     1      -4.546   1.412  24.018  0.00  0.00    +0.112 C 
ATOM     26  N   UNL     1      -4.666   1.564  24.821  0.00  0.00    -0.304 N 
ATOM     27  C   UNL     1      -4.479   0.989  25.382  0.00  0.00    +0.112 C 
ATOM     28  C   UNL     1      -4.173   0.262  25.141  0.00  0.00    +0.115 C 
BRANCH  26  29
ATOM     29  C   UNL     1      -4.972   2.291  25.061  0.00  0.00    +0.048 A 
ATOM     30  C   UNL     1      -5.656   2.318  25.523  0.00  0.00    +0.017 A 
ATOM     31  C   UNL     1      -5.963   3.045  25.765  0.00  0.00    +0.031 A 
ATOM     32  C   UNL     1      -5.586   3.745  25.544  0.00  0.00    +0.140 A 
ATOM     33  F   UNL     1      -5.892   4.472  25.785  0.00  0.00    -0.204 F 
ATOM     34  C   UNL     1      -4.903   3.718  25.082  0.00  0.00    +0.031 A 
ATOM     35  C   UNL     1      -4.596   2.991  24.841  0.00  0.00    +0.017 A 
ENDBRANCH  26  29
ENDBRANCH  20  21
ENDBRANCH  19  20
TORSDOF 8
ENDMDL
MODEL 4
REMARK VINA RESULT:     -11.4      2.260      4.756
REMARK  Name = 
REMARK  8 active torsions:
REMARK  status: ('A' for Active; 'I' for Inactive)
REMARK    1  A    between atoms: C_3  and  C_4
REMARK    2  A    between atoms: C_4  and  N_5
REMARK    3  A    between atoms: C_7  and  C_8
REMARK    4  A    between atoms: C_8  and  S_9
REMARK    5  A    between atoms: S_9  and  C_10
REMARK    6  A    between atoms: C_19  and  C_20
REMARK    7  A    between atoms: C_20  and  C_21
REMARK    8  A    between atoms: N_26  and  C_29
REMARK                            x       y       z     vdW  Elec       q    Type
REMARK                         _______ _______ _______ _____ _____    ______ ____
ROOT
ATOM      1  O   UNL     1       0.145   4.277  24.110  0.00  0.00    -0.218 OA
ATOM      2  C   UNL     1      -0.233   3.597  24.385  0.00  0.00    +0.213 C 
ATOM      3  C   UNL     1      -0.945   3.572  24.800  0.00  0.00    +0.172 C 
ATOM     18  O   UNL     1      -1.117   2.782  24.965  0.00  0.00    -0.351 OA
ATOM     19  C   UNL     1      -0.512   2.318  24.651  0.00  0.00    +0.157 C 
ATOM     36  C   UNL     1       0.035   2.822  24.292  0.00  0.00    +0.212 C 
ATOM     37  O   UNL     1       0.728   2.591  23.909  0.00  0.00    -0.218 OA
ENDROOT
BRANCH   3   4
ATOM      4  C   UNL     1      -1.405   4.223  25.014  0.00  0.00    +0.161 C 
BRANCH   4   5
ATOM      5  N   UNL     1      -2.139   4.110  25.373  0.00  0.00    -0.228 N 
ATOM      6  C   UNL     1      -2.815   3.809  25.009  0.00  0.00    +0.114 A 
ATOM      7  C   UNL     1      -3.421   3.791  25.569  0.00  0.00    +0.112 A 
ATOM     16  N   UNL     1      -3.118   4.081  26.280  0.00  0.00    -0.132 NA
ATOM     17  N   UNL     1      -2.327   4.278  26.158  0.00  0.00    -0.064 NA
BRANCH   7   8
ATOM      8  C   UNL     1      -4.192   3.530  25.441  0.00  0.00    +0.111 C 
BRANCH   8   9
ATOM      9  S   UNL     1      -4.470   2.858  25.832  0.00  0.00    -0.107 S 
BRANCH   9  10
ATOM     10  C   UNL     1      -5.133   2.459  25.547  0.00  0.00    +0.026 A 
ATOM     11  C   UNL     1      -5.887   2.677  25.800  0.00  0.00    +0.006 A 
ATOM     12  C   UNL     1      -6.550   2.278  25.515  0.00  0.00    +0.001 A 
ATOM     13  C   UNL     1      -6.459   1.660  24.976  0.00  0.00    +0.000 A 
ATOM     14  C   UNL     1      -5.705   1.442  24.722  0.00  0.00    +0.001 A 
ATOM     15  C   UNL     1      -5.042   1.841  25.007  0.00  0.00    +0.006 A 
ENDBRANCH   9  10
ENDBRANCH   8   9
ENDBRANCH   7   8
ENDBRANCH   4   5
ENDBRANCH   3   4
BRANCH  19  20
ATOM     20  C   UNL     1      -0.461   1.496  24.688  0.00  0.00    +0.117 C 
BRANCH  20  21
ATOM     21  C   UNL     1      -0.840   1.087  25.297  0.00  0.00    +0.228 C 
ATOM     22  O   UNL     1      -0.712   1.306  26.083  0.00  0.00    -0.275 OA
ATOM     23  N   UNL     1      -1.345   0.460  25.120  0.00  0.00    -0.276 N 
ATOM     24  C   UNL     1      -1.724   0.051  25.729  0.00  0.00    +0.115 C 
ATOM     25  C   UNL     1      -2.229  -0.576  25.551  0.00  0.00    +0.112 C 
ATOM     26  N   UNL     1      -2.357  -0.795  24.766  0.00  0.00    -0.304 N 
ATOM     27  C   UNL     1      -1.978  -0.386  24.158  0.00  0.00    +0.112 C 
ATOM     28  C   UNL     1      -1.472   0.241  24.335  0.00  0.00    +0.115 C 
BRANCH  26  29
ATOM     29  C   UNL     1      -2.862  -1.422  24.588  0.00  0.00    +0.048 A 
ATOM     30  C   UNL     1      -2.646  -2.194  24.785  0.00  0.00    +0.017 A 
ATOM     31  C   UNL     1      -3.152  -2.822  24.608  0.00  0.00    +0.031 A 
ATOM     32  C   UNL     1      -3.872  -2.677  24.234  0.00  0.00    +0.140 A 
ATOM     33  F   UNL     1      -4.378  -3.305  24.057  0.00  0.00    -0.204 F 
ATOM     34  C   UNL     1      -4.089  -1.906  24.037  0.00  0.00    +0.031 A 
ATOM     35  C   UNL     1      -3.583  -1.278  24.215  0.00  0.00    +0.017 A 
ENDBRANCH  26  29
ENDBRANCH  20  21
ENDBRANCH  19  20
TORSDOF 8
ENDMDL
MODEL 5
REMARK VINA RESULT:     -11.2      2.187      4.154
REMARK  Name = 
REMARK  8 active torsions:
REMARK  status: ('A' for Active; 'I' for Inactive)
REMARK    1  A    between atoms: C_3  and  C_4
REMARK    2  A    between atoms: C_4  and  N_5
REMARK    3  A    between atoms: C_7  and  C_8
REMARK    4  A    between atoms: C_8  and  S_9
REMARK    5  A    between atoms: S_9  and  C_10
REMARK    6  A    between atoms: C_19  and  C_20
REMARK    7  A    between atoms: C_20  and  C_21
REMARK    8  A    between atoms: N_26  and  C_29
REMARK                            x       y       z     vdW  Elec       q    Type
REMARK                         _______ _______ _______ _____ _____    ______ ____
ROOT
ATOM      1  O   UNL     1       1.537   1.371  23.916  0.00  0.00    -0.218 OA
ATOM      2  C   UNL     1       0.715   1.435  23.955  0.00  0.00    +0.213 C 
ATOM      3  C   UNL     1       0.177   0.812  23.915  0.00  0.00    +0.172 C 
ATOM     18  O   UNL     1      -0.583   1.126  23.975  0.00  0.00    -0.351 OA
ATOM     19  C   UNL     1      -0.515   1.945  24.053  0.00  0.00    +0.157 C 
ATOM     36  C   UNL     1       0.288   2.136  24.041  0.00  0.00    +0.212 C 
ATOM     37  O   UNL     1       0.606   2.894  24.103  0.00  0.00    -0.218 OA
ENDROOT
BRANCH   3   4
ATOM      4  C   UNL     1       0.366   0.013  23.829  0.00  0.00    +0.161 C 
BRANCH   4   5
ATOM      5  N   UNL     1      -0.078  -0.561  24.221  0.00  0.00    -0.228 N 
ATOM      6  C   UNL     1      -0.762  -0.924  23.935  0.00  0.00    +0.114 A 
ATOM      7  C   UNL     1      -1.024  -1.460  24.505  0.00  0.00    +0.112 A 
ATOM     16  N   UNL     1      -0.501  -1.429  25.143  0.00  0.00    -0.132 NA
ATOM     17  N   UNL     1       0.083  -0.874  24.967  0.00  0.00    -0.064 NA
BRANCH   7   8
ATOM      8  C   UNL     1      -1.690  -1.942  24.446  0.00  0.00    +0.111 C 
BRANCH   8   9
ATOM      9  S   UNL     1      -2.401  -1.707  24.794  0.00  0.00    -0.107 S 
BRANCH   9  10
ATOM     10  C   UNL     1      -3.118  -1.968  24.484  0.00  0.00    +0.026 A 
ATOM     11  C   UNL     1      -3.656  -1.424  24.173  0.00  0.00    +0.006 A 
ATOM     12  C   UNL     1      -4.374  -1.685  23.863  0.00  0.00    +0.001 A 
ATOM     13  C   UNL     1      -4.555  -2.491  23.862  0.00  0.00    +0.000 A 
ATOM     14  C   UNL     1      -4.017  -3.034  24.172  0.00  0.00    +0.001 A 
ATOM     15  C   UNL     1      -3.299  -2.773  24.483  0.00  0.00    +0.006 A 
ENDBRANCH   9  10
ENDBRANCH   8   9
ENDBRANCH   7   8
ENDBRANCH   4   5
ENDBRANCH   3   4
BRANCH  19  20
ATOM     20  C   UNL     1      -1.139   2.478  24.130  0.00  0.00    +0.117 C 
BRANCH  20  21
ATOM     21  C   UNL     1      -1.826   2.376  23.684  0.00  0.00    +0.228 C 
ATOM     22  O   UNL     1      -1.778   2.310  22.862  0.00  0.00    -0.275 OA
ATOM     23  N   UNL     1      -2.560   2.341  24.059  0.00  0.00    -0.276 N 
ATOM     24  C   UNL     1      -3.246   2.240  23.612  0.00  0.00    +0.115 C 
ATOM     25  C   UNL     1      -3.980   2.204  23.987  0.00  0.00    +0.112 C 
ATOM     26  N   UNL     1      -4.028   2.271  24.808  0.00  0.00    -0.304 N 
ATOM     27  C   UNL     1      -3.341   2.373  25.254  0.00  0.00    +0.112 C 
ATOM     28  C   UNL     1      -2.607   2.408  24.879  0.00  0.00    +0.115 C 
BRANCH  26  29
ATOM     29  C   UNL     1      -4.762   2.236  25.183  0.00  0.00    +0.048 A 
ATOM     30  C   UNL     1      -5.158   1.514  25.248  0.00  0.00    +0.017 A 
ATOM     31  C   UNL     1      -5.892   1.479  25.623  0.00  0.00    +0.031 A 
ATOM     32  C   UNL     1      -6.229   2.164  25.933  0.00  0.00    +0.140 A 
ATOM     33  F   UNL     1      -6.964   2.129  26.309  0.00  0.00    -0.204 F 
ATOM     34  C   UNL     1      -5.834   2.885  25.869  0.00  0.00    +0.031 A 
ATOM     35  C   UNL     1      -5.099   2.921  25.494  0.00  0.00    +0.017 A 
ENDBRANCH  26  29
ENDBRANCH  20  21
ENDBRANCH  19  20
TORSDOF 8
ENDMDL
MODEL 6
REMARK VINA RESULT:     -10.5      2.542      4.526
REMARK  Name = 
REMARK  8 active torsions:
REMARK  status: ('A' for Active; 'I' for Inactive)
REMARK    1  A    between atoms: C_3  and  C_4
REMARK    2  A    between atoms: C_4  and  N_5
REMARK    3  A    between atoms: C_7  and  C_8
REMARK    4  A    between atoms: C_8  and  S_9
REMARK    5  A    between atoms: S_9  and  C_10
REMARK    6  A    between atoms: C_19  and  C_20
REMARK    7  A    between atoms: C_20  and  C_21
REMARK    8  A    between atoms: N_26  and  C_29
REMARK                            x       y       z     vdW  Elec       q    Type
REMARK                         _______ _______ _______ _____ _____    ______ ____
ROOT
ATOM      1  O   UNL     1      -4.176   4.735  25.859  0.00  0.00    -0.218 OA
ATOM      2  C   UNL     1      -3.572   4.200  25.687  0.00  0.00    +0.213 C 
ATOM      3  C   UNL     1      -3.667   3.397  25.524  0.00  0.00    +0.172 C 
ATOM     18  O   UNL     1      -2.921   3.074  25.384  0.00  0.00    -0.351 OA
ATOM     19  C   UNL     1      -2.364   3.678  25.460  0.00  0.00    +0.157 C 
ATOM     36  C   UNL     1      -2.766   4.374  25.647  0.00  0.00    +0.212 C 
ATOM     37  O   UNL     1      -2.423   5.113  25.772  0.00  0.00    -0.218 OA
ENDROOT
BRANCH   3   4
ATOM      4  C   UNL     1      -4.384   2.988  25.505  0.00  0.00    +0.161 C 
BRANCH   4   5
ATOM      5  N   UNL     1      -4.449   2.289  25.071  0.00  0.00    -0.228 N 
ATOM      6  C   UNL     1      -4.358   1.525  25.366  0.00  0.00    +0.114 A 
ATOM      7  C   UNL     1      -4.470   0.995  24.743  0.00  0.00    +0.112 A 
ATOM     16  N   UNL     1      -4.629   1.433  24.063  0.00  0.00    -0.132 NA
ATOM     17  N   UNL     1      -4.617   2.232  24.265  0.00  0.00    -0.064 NA
BRANCH   7   8
ATOM      8  C   UNL     1      -4.428   0.173  24.793  0.00  0.00    +0.111 C 
BRANCH   8   9
ATOM      9  S   UNL     1      -3.815  -0.233  24.417  0.00  0.00    -0.107 S 
BRANCH   9  10
ATOM     10  C   UNL     1      -3.779  -1.055  24.457  0.00  0.00    +0.026 A 
ATOM     11  C   UNL     1      -3.359  -1.421  25.066  0.00  0.00    +0.006 A 
ATOM     12  C   UNL     1      -3.323  -2.243  25.106  0.00  0.00    +0.001 A 
ATOM     13  C   UNL     1      -3.707  -2.702  24.537  0.00  0.00    +0.000 A 
ATOM     14  C   UNL     1      -4.126  -2.336  23.928  0.00  0.00    +0.001 A 
ATOM     15  C   UNL     1      -4.163  -1.514  23.888  0.00  0.00    +0.006 A 
ENDBRANCH   9  10
ENDBRANCH   8   9
ENDBRANCH   7   8
ENDBRANCH   4   5
ENDBRANCH   3   4
BRANCH  19  20
ATOM     20  C   UNL     1      -1.548   3.601  25.365  0.00  0.00    +0.117 C 
BRANCH  20  21
ATOM     21  C   UNL     1      -1.156   2.951  25.689  0.00  0.00    +0.228 C 
ATOM     22  O   UNL     1      -1.211   2.796  26.498  0.00  0.00    -0.275 OA
ATOM     23  N   UNL     1      -0.708   2.456  25.204  0.00  0.00    -0.276 N 
ATOM     24  C   UNL     1      -0.316   1.806  25.528  0.00  0.00    +0.115 C 
ATOM     25  C   UNL     1       0.132   1.311  25.043  0.00  0.00    +0.112 C 
ATOM     26  N   UNL     1       0.187   1.466  24.234  0.00  0.00    -0.304 N 
ATOM     27  C   UNL     1      -0.206   2.116  23.911  0.00  0.00    +0.112 C 
ATOM     28  C   UNL     1      -0.653   2.610  24.396  0.00  0.00    +0.115 C 
BRANCH  26  29
ATOM     29  C   UNL     1       0.634   0.971  23.749  0.00  0.00    +0.048 A 
ATOM     30  C   UNL     1       0.303   0.276  23.451  0.00  0.00    +0.017 A 
ATOM     31  C   UNL     1       0.750  -0.220  22.966  0.00  0.00    +0.031 A 
ATOM     32  C   UNL     1       1.528  -0.019  22.778  0.00  0.00    +0.140 A 
ATOM     33  F   UNL     1       1.975  -0.514  22.292  0.00  0.00    -0.204 F 
ATOM     34  C   UNL     1       1.859   0.675  23.075  0.00  0.00    +0.031 A 
ATOM     35  C   UNL     1       1.412   1.171  23.560  0.00  0.00    +0.017 A 
ENDBRANCH  26  29
ENDBRANCH  20  21
ENDBRANCH  19  20
TORSDOF 8
ENDMDL
