MODEL 1
REMARK VINA RESULT:      -9.5      0.000      0.000
REMARK  Name = 
REMARK  6 active torsions:
REMARK  status: ('A' for Active; 'I' for Inactive)
REMARK    1  A    between atoms: O_2  and  C_3
REMARK    2  A    between atoms: C_6  and  N_7
REMARK    3  A    between atoms: C_8  and  O_10
REMARK    4  A    between atoms: O_10  and  C_11
REMARK    5  A    between atoms: C_15  and  N_19
REMARK    6  A    between atoms: C_20  and  C_22
REMARK                            x       y       z     vdW  Elec       q    Type
REMARK                         _______ _______ _______ _____ _____    ______ ____
ROOT
ATOM     11  C   UNL     1      -0.450   0.357  24.604  0.00  0.00    +0.229 C 
ATOM     12  C   UNL     1      -0.457   0.670  23.841  0.00  0.00    +0.188 C 
ATOM     13  O   UNL     1      -0.505   1.491  23.904  0.00  0.00    -0.348 OA
ATOM     14  C   UNL     1      -0.527   1.685  24.705  0.00  0.00    +0.168 C 
ATOM     15  C   UNL     1      -0.570   2.312  25.240  0.00  0.00    +0.154 C 
ATOM     16  C   UNL     1      -0.563   1.998  26.003  0.00  0.00    +0.166 C 
ATOM     17  O   UNL     1      -0.516   1.177  25.940  0.00  0.00    -0.348 OA
ATOM     18  C   UNL     1      -0.493   0.984  25.138  0.00  0.00    +0.186 C 
ENDROOT
BRANCH  15  19
ATOM     19  N   UNL     1      -0.613   3.113  25.045  0.00  0.00    -0.202 NA
ATOM     20  C   UNL     1      -1.183   3.593  25.397  0.00  0.00    +0.241 C 
ATOM     21  O   UNL     1      -1.712   3.273  25.944  0.00  0.00    -0.273 OA
BRANCH  20  22
ATOM     22  C   UNL     1      -1.226   4.394  25.203  0.00  0.00    +0.078 C 
ATOM     23  C   UNL     1      -0.574   4.772  24.868  0.00  0.00    +0.009 C 
ATOM     24  C   UNL     1      -0.616   5.573  24.673  0.00  0.00    +0.000 C 
ATOM     25  C   UNL     1      -1.311   5.995  24.814  0.00  0.00    +0.000 C 
ATOM     26  C   UNL     1      -1.963   5.616  25.149  0.00  0.00    +0.000 C 
ATOM     27  C   UNL     1      -1.921   4.816  25.344  0.00  0.00    +0.009 C 
ENDBRANCH  20  22
ENDBRANCH  15  19
BRANCH  11  10
ATOM     10  O   UNL     1      -0.408  -0.444  24.798  0.00  0.00    -0.432 OA
BRANCH  10   8
ATOM      7  N   UNL     1      -1.523  -1.259  25.164  0.00  0.00    -0.142 NA
ATOM      8  C   UNL     1      -1.021  -0.954  24.586  0.00  0.00    +0.425 C 
ATOM      9  O   UNL     1      -1.130  -1.159  23.794  0.00  0.00    -0.224 OA
BRANCH   7   6
ATOM      3  C   UNL     1      -3.363  -2.787  24.527  0.00  0.00    +0.139 A 
ATOM      4  C   UNL     1      -3.534  -2.059  24.877  0.00  0.00    +0.038 A 
ATOM      5  C   UNL     1      -2.920  -1.550  25.089  0.00  0.00    +0.020 A 
ATOM      6  C   UNL     1      -2.137  -1.768  24.952  0.00  0.00    +0.077 A 
ATOM     28  C   UNL     1      -1.967  -2.495  24.602  0.00  0.00    +0.020 A 
ATOM     29  C   UNL     1      -2.580  -3.005  24.390  0.00  0.00    +0.038 A 
BRANCH   3   2
ATOM      1  C   UNL     1      -4.460  -3.113  23.671  0.00  0.00    +0.252 C 
ATOM      2  O   UNL     1      -3.977  -3.296  24.315  0.00  0.00    -0.471 OA
ENDBRANCH   3   2
ENDBRANCH   7   6
ENDBRANCH  10   8
ENDBRANCH  11  10
TORSDOF 6
ENDMDL
MODEL 2
REMARK VINA RESULT:      -9.5      1.027      5.981
REMARK  Name = 
REMARK  6 active torsions:
REMARK  status: ('A' for Active; 'I' for Inactive)
REMARK    1  A    between atoms: O_2  and  C_3
REMARK    2  A    between atoms: C_6  and  N_7
REMARK    3  A    between atoms: C_8  and  O_10
REMARK    4  A    between atoms: O_10  and  C_11
REMARK    5  A    between atoms: C_15  and  N_19
REMARK    6  A    between atoms: C_20  and  C_22
REMARK                            x       y       z     vdW  Elec       q    Type
REMARK                         _______ _______ _______ _____ _____    ______ ____
ROOT
ATOM     11  C   UNL     1      -0.419   1.007  24.608  0.00  0.00    +0.229 C 
ATOM     12  C   UNL     1      -0.520   0.821  23.811  0.00  0.00    +0.188 C 
ATOM     13  O   UNL     1      -1.003   0.154  23.764  0.00  0.00    -0.348 OA
ATOM     14  C   UNL     1      -1.201  -0.072  24.532  0.00  0.00    +0.168 C 
ATOM     15  C   UNL     1      -1.621  -0.624  24.978  0.00  0.00    +0.154 C 
ATOM     16  C   UNL     1      -1.520  -0.439  25.775  0.00  0.00    +0.166 C 
ATOM     17  O   UNL     1      -1.037   0.228  25.822  0.00  0.00    -0.348 OA
ATOM     18  C   UNL     1      -0.840   0.455  25.053  0.00  0.00    +0.186 C 
ENDROOT
BRANCH  15  19
ATOM     19  N   UNL     1      -2.066  -1.252  24.679  0.00  0.00    -0.202 NA
ATOM     20  C   UNL     1      -2.851  -1.350  24.912  0.00  0.00    +0.241 C 
ATOM     21  O   UNL     1      -3.192  -0.821  25.445  0.00  0.00    -0.273 OA
BRANCH  20  22
ATOM     22  C   UNL     1      -3.295  -1.978  24.613  0.00  0.00    +0.078 C 
ATOM     23  C   UNL     1      -3.135  -2.750  24.857  0.00  0.00    +0.009 C 
ATOM     24  C   UNL     1      -3.578  -3.378  24.558  0.00  0.00    +0.000 C 
ATOM     25  C   UNL     1      -4.183  -3.233  24.015  0.00  0.00    +0.000 C 
ATOM     26  C   UNL     1      -4.342  -2.462  23.772  0.00  0.00    +0.000 C 
ATOM     27  C   UNL     1      -3.899  -1.834  24.070  0.00  0.00    +0.009 C 
ENDBRANCH  20  22
ENDBRANCH  15  19
BRANCH  11  10
ATOM     10  O   UNL     1       0.025   1.635  24.907  0.00  0.00    -0.432 OA
BRANCH  10   8
ATOM      7  N   UNL     1      -0.482   2.862  25.434  0.00  0.00    -0.142 NA
ATOM      8  C   UNL     1      -0.229   2.411  24.792  0.00  0.00    +0.425 C 
ATOM      9  O   UNL     1      -0.228   2.736  24.033  0.00  0.00    -0.224 OA
BRANCH   7   6
ATOM      3  C   UNL     1      -1.243   5.192  25.089  0.00  0.00    +0.139 A 
ATOM      4  C   UNL     1      -1.760   4.632  25.405  0.00  0.00    +0.038 A 
ATOM      5  C   UNL     1      -1.505   3.856  25.520  0.00  0.00    +0.020 A 
ATOM      6  C   UNL     1      -0.735   3.639  25.319  0.00  0.00    +0.077 A 
ATOM     28  C   UNL     1      -0.219   4.199  25.003  0.00  0.00    +0.020 A 
ATOM     29  C   UNL     1      -0.472   4.976  24.888  0.00  0.00    +0.038 A 
BRANCH   3   2
ATOM      1  C   UNL     1      -2.301   6.149  25.012  0.00  0.00    +0.252 C 
ATOM      2  O   UNL     1      -1.497   5.969  24.974  0.00  0.00    -0.471 OA
ENDBRANCH   3   2
ENDBRANCH   7   6
ENDBRANCH  10   8
ENDBRANCH  11  10
TORSDOF 6
ENDMDL
MODEL 3
REMARK VINA RESULT:      -9.1      2.211      6.548
REMARK  Name = 
REMARK  6 active torsions:
REMARK  status: ('A' for Active; 'I' for Inactive)
REMARK    1  A    between atoms: O_2  and  C_3
REMARK    2  A    between atoms: C_6  and  N_7
REMARK    3  A    between atoms: C_8  and  O_10
REMARK    4  A    between atoms: O_10  and  C_11
REMARK    5  A    between atoms: C_15  and  N_19
REMARK    6  A    between atoms: C_20  and  C_22
REMARK                            x       y       z     vdW  Elec       q    Type
REMARK                         _______ _______ _______ _____ _____    ______ ____
ROOT
ATOM     11  C   UNL     1      -4.078   2.149  24.388  0.00  0.00    +0.229 C 
ATOM     12  C   UNL     1      -3.743   1.928  23.668  0.00  0.00    +0.188 C 
ATOM     13  O   UNL     1      -3.768   1.105  23.618  0.00  0.00    -0.348 OA
ATOM     14  C   UNL     1      -4.118   0.818  24.307  0.00  0.00    +0.168 C 
ATOM     15  C   UNL     1      -4.350   0.132  24.703  0.00  0.00    +0.154 C 
ATOM     16  C   UNL     1      -4.685   0.354  25.423  0.00  0.00    +0.166 C 
ATOM     17  O   UNL     1      -4.661   1.177  25.473  0.00  0.00    -0.348 OA
ATOM     18  C   UNL     1      -4.310   1.464  24.783  0.00  0.00    +0.186 C 
ENDROOT
BRANCH  15  19
ATOM     19  N   UNL     1      -4.262  -0.640  24.427  0.00  0.00    -0.202 NA
ATOM     20  C   UNL     1      -3.906  -1.211  24.904  0.00  0.00    +0.241 C 
ATOM     21  O   UNL     1      -3.637  -1.010  25.657  0.00  0.00    -0.273 OA
BRANCH  20  22
ATOM     22  C   UNL     1      -3.818  -1.984  24.627  0.00  0.00    +0.078 C 
ATOM     23  C   UNL     1      -4.263  -2.245  23.984  0.00  0.00    +0.009 C 
ATOM     24  C   UNL     1      -4.175  -3.017  23.707  0.00  0.00    +0.000 C 
ATOM     25  C   UNL     1      -3.641  -3.528  24.075  0.00  0.00    +0.000 C 
ATOM     26  C   UNL     1      -3.197  -3.267  24.718  0.00  0.00    +0.000 C 
ATOM     27  C   UNL     1      -3.284  -2.495  24.995  0.00  0.00    +0.009 C 
ENDBRANCH  20  22
ENDBRANCH  15  19
BRANCH  11  10
ATOM     10  O   UNL     1      -4.166   2.922  24.664  0.00  0.00    -0.432 OA
BRANCH  10   8
ATOM      7  N   UNL     1      -3.027   3.556  25.249  0.00  0.00    -0.142 NA
ATOM      8  C   UNL     1      -3.538   3.454  24.610  0.00  0.00    +0.425 C 
ATOM      9  O   UNL     1      -3.422   3.885  23.916  0.00  0.00    -0.224 OA
BRANCH   7   6
ATOM      3  C   UNL     1      -1.141   5.151  25.086  0.00  0.00    +0.139 A 
ATOM      4  C   UNL     1      -1.005   4.341  25.003  0.00  0.00    +0.038 A 
ATOM      5  C   UNL     1      -1.634   3.810  25.058  0.00  0.00    +0.020 A 
ATOM      6  C   UNL     1      -2.398   4.088  25.195  0.00  0.00    +0.077 A 
ATOM     28  C   UNL     1      -2.534   4.897  25.278  0.00  0.00    +0.020 A 
ATOM     29  C   UNL     1      -1.906   5.429  25.223  0.00  0.00    +0.038 A 
BRANCH   3   2
ATOM      1  C   UNL     1      -0.016   5.667  24.373  0.00  0.00    +0.252 C 
ATOM      2  O   UNL     1      -0.513   5.682  25.032  0.00  0.00    -0.471 OA
ENDBRANCH   3   2
ENDBRANCH   7   6
ENDBRANCH  10   8
ENDBRANCH  11  10
TORSDOF 6
ENDMDL
MODEL 4
REMARK VINA RESULT:      -9.1      3.108      5.094
REMARK  Name = 
REMARK  6 active torsions:
REMARK  status: ('A' for Active; 'I' for Inactive)
REMARK    1  A    between atoms: O_2  and  C_3
REMARK    2  A    between atoms: C_6  and  N_7
REMARK    3  A    between atoms: C_8  and  O_10
REMARK    4  A    between atoms: O_10  and  C_11
REMARK    5  A    between atoms: C_15  and  N_19
REMARK    6  A    between atoms: C_20  and  C_22
REMARK                            x       y       z     vdW  Elec       q    Type
REMARK                         _______ _______ _______ _____ _____    ______ ____
ROOT
ATOM     11  C   UNL     1      -0.833   0.792  23.948  0.00  0.00    +0.229 C 
ATOM     12  C   UNL     1      -0.473   1.345  24.443  0.00  0.00    +0.188 C 
ATOM     13  O   UNL     1       0.343   1.293  24.331  0.00  0.00    -0.348 OA
ATOM     14  C   UNL     1       0.486   0.709  23.767  0.00  0.00    +0.168 C 
ATOM     15  C   UNL     1       1.078   0.315  23.349  0.00  0.00    +0.154 C 
ATOM     16  C   UNL     1       0.718  -0.238  22.854  0.00  0.00    +0.166 C 
ATOM     17  O   UNL     1      -0.098  -0.186  22.966  0.00  0.00    -0.348 OA
ATOM     18  C   UNL     1      -0.241   0.399  23.531  0.00  0.00    +0.186 C 
ENDROOT
BRANCH  15  19
ATOM     19  N   UNL     1       1.890   0.450  23.414  0.00  0.00    -0.202 NA
ATOM     20  C   UNL     1       2.401   0.188  22.822  0.00  0.00    +0.241 C 
ATOM     21  O   UNL     1       2.101  -0.210  22.165  0.00  0.00    -0.273 OA
BRANCH  20  22
ATOM     22  C   UNL     1       3.212   0.323  22.888  0.00  0.00    +0.078 C 
ATOM     23  C   UNL     1       3.704  -0.261  23.200  0.00  0.00    +0.009 C 
ATOM     24  C   UNL     1       4.516  -0.126  23.266  0.00  0.00    +0.000 C 
ATOM     25  C   UNL     1       4.834   0.595  23.019  0.00  0.00    +0.000 C 
ATOM     26  C   UNL     1       4.342   1.178  22.707  0.00  0.00    +0.000 C 
ATOM     27  C   UNL     1       3.531   1.043  22.641  0.00  0.00    +0.009 C 
ENDBRANCH  20  22
ENDBRANCH  15  19
BRANCH  11  10
ATOM     10  O   UNL     1      -1.645   0.657  23.883  0.00  0.00    -0.432 OA
BRANCH  10   8
ATOM      7  N   UNL     1      -2.825   1.452  23.751  0.00  0.00    -0.142 NA
ATOM      8  C   UNL     1      -2.181   1.199  24.199  0.00  0.00    +0.425 C 
ATOM      9  O   UNL     1      -2.071   1.487  24.965  0.00  0.00    -0.224 OA
BRANCH   7   6
ATOM      3  C   UNL     1      -4.432   3.078  24.699  0.00  0.00    +0.139 A 
ATOM      4  C   UNL     1      -3.811   3.341  24.224  0.00  0.00    +0.038 A 
ATOM      5  C   UNL     1      -3.276   2.798  23.908  0.00  0.00    +0.020 A 
ATOM      6  C   UNL     1      -3.361   1.994  24.067  0.00  0.00    +0.077 A 
ATOM     28  C   UNL     1      -3.982   1.731  24.542  0.00  0.00    +0.020 A 
ATOM     29  C   UNL     1      -4.518   2.273  24.858  0.00  0.00    +0.038 A 
BRANCH   3   2
ATOM      1  C   UNL     1      -5.401   3.426  25.690  0.00  0.00    +0.252 C 
ATOM      2  O   UNL     1      -4.968   3.620  25.015  0.00  0.00    -0.471 OA
ENDBRANCH   3   2
ENDBRANCH   7   6
ENDBRANCH  10   8
ENDBRANCH  11  10
TORSDOF 6
ENDMDL
MODEL 5
REMARK VINA RESULT:      -9.0      2.065      2.437
REMARK  Name = 
REMARK  6 active torsions:
REMARK  status: ('A' for Active; 'I' for Inactive)
REMARK    1  A    between atoms: O_2  and  C_3
REMARK    2  A    between atoms: C_6  and  N_7
REMARK    3  A    between atoms: C_8  and  O_10
REMARK    4  A    between atoms: O_10  and  C_11
REMARK    5  A    between atoms: C_15  and  N_19
REMARK    6  A    between atoms: C_20  and  C_22
REMARK                            x       y       z     vdW  Elec       q    Type
REMARK                         _______ _______ _______ _____ _____    ______ ____
ROOT
ATOM     11  C   UNL     1      -4.061   1.457  24.172  0.00  0.00    +0.229 C 
ATOM     12  C   UNL     1      -3.628   1.603  23.486  0.00  0.00    +0.188 C 
ATOM     13  O   UNL     1      -3.221   2.313  23.589  0.00  0.00    -0.348 OA
ATOM     14  C   UNL     1      -3.403   2.606  24.337  0.00  0.00    +0.168 C 
ATOM     15  C   UNL     1      -3.265   3.225  24.865  0.00  0.00    +0.154 C 
ATOM     16  C   UNL     1      -3.699   3.079  25.551  0.00  0.00    +0.166 C 
ATOM     17  O   UNL     1      -4.105   2.368  25.448  0.00  0.00    -0.348 OA
ATOM     18  C   UNL     1      -3.923   2.076  24.698  0.00  0.00    +0.186 C 
ENDROOT
BRANCH  15  19
ATOM     19  N   UNL     1      -2.778   3.877  24.729  0.00  0.00    -0.202 NA
ATOM     20  C   UNL     1      -2.149   4.035  25.238  0.00  0.00    +0.241 C 
ATOM     21  O   UNL     1      -2.005   3.541  25.883  0.00  0.00    -0.273 OA
BRANCH  20  22
ATOM     22  C   UNL     1      -1.661   4.687  25.103  0.00  0.00    +0.078 C 
ATOM     23  C   UNL     1      -1.963   5.451  25.181  0.00  0.00    +0.009 C 
ATOM     24  C   UNL     1      -1.477   6.104  25.045  0.00  0.00    +0.000 C 
ATOM     25  C   UNL     1      -0.687   5.991  24.831  0.00  0.00    +0.000 C 
ATOM     26  C   UNL     1      -0.386   5.228  24.753  0.00  0.00    +0.000 C 
ATOM     27  C   UNL     1      -0.873   4.575  24.888  0.00  0.00    +0.009 C 
ENDBRANCH  20  22
ENDBRANCH  15  19
BRANCH  11  10
ATOM     10  O   UNL     1      -4.548   0.804  24.308  0.00  0.00    -0.432 OA
BRANCH  10   8
ATOM      7  N   UNL     1      -4.401  -0.541  24.767  0.00  0.00    -0.142 NA
ATOM      8  C   UNL     1      -4.255   0.040  24.201  0.00  0.00    +0.425 C 
ATOM      9  O   UNL     1      -3.815  -0.141  23.527  0.00  0.00    -0.224 OA
BRANCH   7   6
ATOM      3  C   UNL     1      -3.520  -2.832  24.449  0.00  0.00    +0.139 A 
ATOM      4  C   UNL     1      -3.231  -2.360  25.061  0.00  0.00    +0.038 A 
ATOM      5  C   UNL     1      -3.525  -1.596  25.167  0.00  0.00    +0.020 A 
ATOM      6  C   UNL     1      -4.107  -1.304  24.661  0.00  0.00    +0.077 A 
ATOM     28  C   UNL     1      -4.396  -1.776  24.049  0.00  0.00    +0.020 A 
ATOM     29  C   UNL     1      -4.102  -2.539  23.942  0.00  0.00    +0.038 A 
BRANCH   3   2
ATOM      1  C   UNL     1      -2.493  -3.708  23.981  0.00  0.00    +0.252 C 
ATOM      2  O   UNL     1      -3.226  -3.595  24.343  0.00  0.00    -0.471 OA
ENDBRANCH   3   2
ENDBRANCH   7   6
ENDBRANCH  10   8
ENDBRANCH  11  10
TORSDOF 6
ENDMDL
MODEL 6
REMARK VINA RESULT:      -8.8      3.080      4.829
REMARK  Name = 
REMARK  6 active torsions:
REMARK  status: ('A' for Active; 'I' for Inactive)
REMARK    1  A    between atoms: O_2  and  C_3
REMARK    2  A    between atoms: C_6  and  N_7
REMARK    3  A    between atoms: C_8  and  O_10
REMARK    4  A    between atoms: O_10  and  C_11
REMARK    5  A    between atoms: C_15  and  N_19
REMARK    6  A    between atoms: C_20  and  C_22
REMARK                            x       y       z     vdW  Elec       q    Type
REMARK                         _______ _______ _______ _____ _____    ______ ____
ROOT
ATOM     11  C   UNL     1      -0.211   0.570  23.637  0.00  0.00    +0.229 C 
ATOM     12  C   UNL     1      -0.152   0.558  24.460  0.00  0.00    +0.188 C 
ATOM     13  O   UNL     1      -0.805   0.956  24.767  0.00  0.00    -0.348 OA
ATOM     14  C   UNL     1      -1.269   1.213  24.136  0.00  0.00    +0.168 C 
ATOM     15  C   UNL     1      -1.959   1.617  23.935  0.00  0.00    +0.154 C 
ATOM     16  C   UNL     1      -2.019   1.629  23.113  0.00  0.00    +0.166 C 
ATOM     17  O   UNL     1      -1.365   1.231  22.805  0.00  0.00    -0.348 OA
ATOM     18  C   UNL     1      -0.901   0.974  23.437  0.00  0.00    +0.186 C 
ENDROOT
BRANCH  15  19
ATOM     19  N   UNL     1      -2.497   1.951  24.465  0.00  0.00    -0.202 NA
ATOM     20  C   UNL     1      -3.163   2.347  24.182  0.00  0.00    +0.241 C 
ATOM     21  O   UNL     1      -3.293   2.409  23.370  0.00  0.00    -0.273 OA
BRANCH  20  22
ATOM     22  C   UNL     1      -3.700   2.681  24.712  0.00  0.00    +0.078 C 
ATOM     23  C   UNL     1      -3.506   3.375  25.114  0.00  0.00    +0.009 C 
ATOM     24  C   UNL     1      -4.042   3.710  25.644  0.00  0.00    +0.000 C 
ATOM     25  C   UNL     1      -4.775   3.349  25.771  0.00  0.00    +0.000 C 
ATOM     26  C   UNL     1      -4.968   2.657  25.369  0.00  0.00    +0.000 C 
ATOM     27  C   UNL     1      -4.432   2.322  24.839  0.00  0.00    +0.009 C 
ENDBRANCH  20  22
ENDBRANCH  15  19
BRANCH  11  10
ATOM     10  O   UNL     1       0.326   0.236  23.107  0.00  0.00    -0.432 OA
BRANCH  10   8
ATOM      7  N   UNL     1       1.675   0.001  22.698  0.00  0.00    -0.142 NA
ATOM      8  C   UNL     1       1.135   0.374  23.197  0.00  0.00    +0.425 C 
ATOM      9  O   UNL     1       1.402   0.885  23.788  0.00  0.00    -0.224 OA
BRANCH   7   6
ATOM      3  C   UNL     1       4.101   0.414  22.967  0.00  0.00    +0.139 A 
ATOM      4  C   UNL     1       3.776  -0.307  23.204  0.00  0.00    +0.038 A 
ATOM      5  C   UNL     1       2.967  -0.444  23.114  0.00  0.00    +0.020 A 
ATOM      6  C   UNL     1       2.484   0.139  22.788  0.00  0.00    +0.077 A 
ATOM     28  C   UNL     1       2.808   0.859  22.551  0.00  0.00    +0.020 A 
ATOM     29  C   UNL     1       3.617   0.997  22.641  0.00  0.00    +0.038 A 
BRANCH   3   2
ATOM      1  C   UNL     1       5.333   0.149  23.641  0.00  0.00    +0.252 C 
ATOM      2  O   UNL     1       4.909   0.551  23.058  0.00  0.00    -0.471 OA
ENDBRANCH   3   2
ENDBRANCH   7   6
ENDBRANCH  10   8
ENDBRANCH  11  10
TORSDOF 6
ENDMDL
MODEL 7
REMARK VINA RESULT:      -7.8      3.353      5.952
REMARK  Name = 
REMARK  6 active torsions:
REMARK  status: ('A' for Active; 'I' for Inactive)
REMARK    1  A    between atoms: O_2  and  C_3
REMARK    2  A    between atoms: C_6  and  N_7
REMARK    3  A    between atoms: C_8  and  O_10
REMARK    4  A    between atoms: O_10  and  C_11
REMARK    5  A    between atoms: C_15  and  N_19
REMARK    6  A    between atoms: C_20  and  C_22
REMARK                            x       y       z     vdW  Elec       q    Type
REMARK                         _______ _______ _______ _____ _____    ______ ____
ROOT
ATOM     11  C   UNL     1       0.983   0.388  23.164  0.00  0.00    +0.229 C 
ATOM     12  C   UNL     1       0.866  -0.400  22.947  0.00  0.00    +0.188 C 
ATOM     13  O   UNL     1       0.170  -0.661  23.305  0.00  0.00    -0.348 OA
ATOM     14  C   UNL     1      -0.143  -0.036  23.741  0.00  0.00    +0.168 C 
ATOM     15  C   UNL     1      -0.767   0.190  24.232  0.00  0.00    +0.154 C 
ATOM     16  C   UNL     1      -0.650   0.977  24.449  0.00  0.00    +0.166 C 
ATOM     17  O   UNL     1       0.046   1.238  24.092  0.00  0.00    -0.348 OA
ATOM     18  C   UNL     1       0.359   0.612  23.654  0.00  0.00    +0.186 C 
ENDROOT
BRANCH  15  19
ATOM     19  N   UNL     1      -1.397  -0.289  24.466  0.00  0.00    -0.202 NA
ATOM     20  C   UNL     1      -2.139   0.045  24.604  0.00  0.00    +0.241 C 
ATOM     21  O   UNL     1      -2.251   0.856  24.509  0.00  0.00    -0.273 OA
BRANCH  20  22
ATOM     22  C   UNL     1      -2.770  -0.434  24.837  0.00  0.00    +0.078 C 
ATOM     23  C   UNL     1      -3.389  -0.585  24.314  0.00  0.00    +0.009 C 
ATOM     24  C   UNL     1      -4.020  -1.063  24.547  0.00  0.00    +0.000 C 
ATOM     25  C   UNL     1      -4.030  -1.391  25.305  0.00  0.00    +0.000 C 
ATOM     26  C   UNL     1      -3.411  -1.240  25.827  0.00  0.00    +0.000 C 
ATOM     27  C   UNL     1      -2.780  -0.761  25.595  0.00  0.00    +0.009 C 
ENDBRANCH  20  22
ENDBRANCH  15  19
BRANCH  11  10
ATOM     10  O   UNL     1       1.613   0.866  22.930  0.00  0.00    -0.432 OA
BRANCH  10   8
ATOM      7  N   UNL     1       3.019   1.050  23.108  0.00  0.00    -0.142 NA
ATOM      8  C   UNL     1       2.381   0.563  22.922  0.00  0.00    +0.425 C 
ATOM      9  O   UNL     1       2.509  -0.229  22.726  0.00  0.00    -0.224 OA
BRANCH   7   6
ATOM      3  C   UNL     1       5.321   0.141  23.084  0.00  0.00    +0.139 A 
ATOM      4  C   UNL     1       4.921   0.232  23.800  0.00  0.00    +0.038 A 
ATOM      5  C   UNL     1       4.154   0.535  23.807  0.00  0.00    +0.020 A 
ATOM      6  C   UNL     1       3.786   0.747  23.100  0.00  0.00    +0.077 A 
ATOM     28  C   UNL     1       4.186   0.656  22.385  0.00  0.00    +0.020 A 
ATOM     29  C   UNL     1       4.954   0.353  22.376  0.00  0.00    +0.038 A 
BRANCH   3   2
ATOM      1  C   UNL     1       6.368  -0.592  23.723  0.00  0.00    +0.252 C 
ATOM      2  O   UNL     1       6.088  -0.162  23.076  0.00  0.00    -0.471 OA
ENDBRANCH   3   2
ENDBRANCH   7   6
ENDBRANCH  10   8
ENDBRANCH  11  10
TORSDOF 6
ENDMDL
MODEL 8
REMARK VINA RESULT:      -7.4     17.709     19.180
REMARK  Name = 
REMARK  6 active torsions:
REMARK  status: ('A' for Active; 'I' for Inactive)
REMARK    1  A    between atoms: O_2  and  C_3
REMARK    2  A    between atoms: C_6  and  N_7
REMARK    3  A    between atoms: C_8  and  O_10
REMARK    4  A    between atoms: O_10  and  C_11
REMARK    5  A    between atoms: C_15  and  N_19
REMARK    6  A    between atoms: C_20  and  C_22
REMARK                            x       y       z     vdW  Elec       q    Type
REMARK                         _______ _______ _______ _____ _____    ______ ____
ROOT
ATOM     11  C   UNL     1      -6.698  -8.621   9.093  0.00  0.00    +0.229 C 
ATOM     12  C   UNL     1      -6.828  -8.592   9.907  0.00  0.00    +0.188 C 
ATOM     13  O   UNL     1      -6.151  -8.877  10.282  0.00  0.00    -0.348 OA
ATOM     14  C   UNL     1      -5.603  -9.081   9.701  0.00  0.00    +0.168 C 
ATOM     15  C   UNL     1      -4.847  -9.384   9.573  0.00  0.00    +0.154 C 
ATOM     16  C   UNL     1      -4.717  -9.412   8.759  0.00  0.00    +0.166 C 
ATOM     17  O   UNL     1      -5.394  -9.127   8.384  0.00  0.00    -0.348 OA
ATOM     18  C   UNL     1      -5.942  -8.923   8.966  0.00  0.00    +0.186 C 
ENDROOT
BRANCH  15  19
ATOM     19  N   UNL     1      -4.312  -9.617  10.157  0.00  0.00    -0.202 NA
ATOM     20  C   UNL     1      -3.509  -9.448  10.073  0.00  0.00    +0.241 C 
ATOM     21  O   UNL     1      -3.240  -9.046   9.405  0.00  0.00    -0.273 OA
BRANCH  20  22
ATOM     22  C   UNL     1      -2.975  -9.681  10.658  0.00  0.00    +0.078 C 
ATOM     23  C   UNL     1      -2.245  -9.304  10.723  0.00  0.00    +0.009 C 
ATOM     24  C   UNL     1      -1.710  -9.536  11.307  0.00  0.00    +0.000 C 
ATOM     25  C   UNL     1      -1.908 -10.147  11.826  0.00  0.00    +0.000 C 
ATOM     26  C   UNL     1      -2.638 -10.523  11.761  0.00  0.00    +0.000 C 
ATOM     27  C   UNL     1      -3.173 -10.291  11.177  0.00  0.00    +0.009 C 
ENDBRANCH  20  22
ENDBRANCH  15  19
BRANCH  11  10
ATOM     10  O   UNL     1      -7.233  -8.388   8.509  0.00  0.00    -0.432 OA
BRANCH  10   8
ATOM      7  N   UNL     1      -8.038  -7.272   8.124  0.00  0.00    -0.142 NA
ATOM      8  C   UNL     1      -7.822  -7.837   8.684  0.00  0.00    +0.425 C 
ATOM      9  O   UNL     1      -8.194  -7.852   9.420  0.00  0.00    -0.224 OA
BRANCH   7   6
ATOM      3  C   UNL     1      -9.805  -5.620   8.648  0.00  0.00    +0.139 A 
ATOM      4  C   UNL     1      -9.027  -5.369   8.531  0.00  0.00    +0.038 A 
ATOM      5  C   UNL     1      -8.439  -5.920   8.356  0.00  0.00    +0.020 A 
ATOM      6  C   UNL     1      -8.627  -6.721   8.298  0.00  0.00    +0.077 A 
ATOM     28  C   UNL     1      -9.404  -6.971   8.415  0.00  0.00    +0.020 A 
ATOM     29  C   UNL     1      -9.993  -6.421   8.590  0.00  0.00    +0.038 A 
BRANCH   3   2
ATOM      1  C   UNL     1     -10.200  -4.269   8.897  0.00  0.00    +0.252 C 
ATOM      2  O   UNL     1     -10.393  -5.068   8.823  0.00  0.00    -0.471 OA
ENDBRANCH   3   2
ENDBRANCH   7   6
ENDBRANCH  10   8
ENDBRANCH  11  10
TORSDOF 6
ENDMDL
MODEL 9
REMARK VINA RESULT:      -7.2     14.678     16.654
REMARK  Name = 
REMARK  6 active torsions:
REMARK  status: ('A' for Active; 'I' for Inactive)
REMARK    1  A    between atoms: O_2  and  C_3
REMARK    2  A    between atoms: C_6  and  N_7
REMARK    3  A    between atoms: C_8  and  O_10
REMARK    4  A    between atoms: O_10  and  C_11
REMARK    5  A    between atoms: C_15  and  N_19
REMARK    6  A    between atoms: C_20  and  C_22
REMARK                            x       y       z     vdW  Elec       q    Type
REMARK                         _______ _______ _______ _____ _____    ______ ____
ROOT
ATOM     11  C   UNL     1      -5.433 -10.190  14.336  0.00  0.00    +0.229 C 
ATOM     12  C   UNL     1      -6.102  -9.882  13.965  0.00  0.00    +0.188 C 
ATOM     13  O   UNL     1      -5.935  -9.806  13.161  0.00  0.00    -0.348 OA
ATOM     14  C   UNL     1      -5.163 -10.066  13.035  0.00  0.00    +0.168 C 
ATOM     15  C   UNL     1      -4.582 -10.181  12.461  0.00  0.00    +0.154 C 
ATOM     16  C   UNL     1      -3.913 -10.489  12.831  0.00  0.00    +0.166 C 
ATOM     17  O   UNL     1      -4.080 -10.565  13.635  0.00  0.00    -0.348 OA
ATOM     18  C   UNL     1      -4.853 -10.304  13.761  0.00  0.00    +0.186 C 
ENDROOT
BRANCH  15  19
ATOM     19  N   UNL     1      -4.657 -10.016  11.655  0.00  0.00    -0.202 NA
ATOM     20  C   UNL     1      -3.984  -9.914  11.190  0.00  0.00    +0.241 C 
ATOM     21  O   UNL     1      -3.234  -9.977  11.529  0.00  0.00    -0.273 OA
BRANCH  20  22
ATOM     22  C   UNL     1      -4.059  -9.749  10.385  0.00  0.00    +0.078 C 
ATOM     23  C   UNL     1      -4.178 -10.363   9.848  0.00  0.00    +0.009 C 
ATOM     24  C   UNL     1      -4.253 -10.199   9.042  0.00  0.00    +0.000 C 
ATOM     25  C   UNL     1      -4.210  -9.418   8.776  0.00  0.00    +0.000 C 
ATOM     26  C   UNL     1      -4.091  -8.805   9.314  0.00  0.00    +0.000 C 
ATOM     27  C   UNL     1      -4.016  -8.969  10.119  0.00  0.00    +0.009 C 
ENDBRANCH  20  22
ENDBRANCH  15  19
BRANCH  11  10
ATOM     10  O   UNL     1      -5.357 -10.355  15.141  0.00  0.00    -0.432 OA
BRANCH  10   8
ATOM      7  N   UNL     1      -6.017  -9.938  16.338  0.00  0.00    -0.142 NA
ATOM      8  C   UNL     1      -6.024 -10.355  15.627  0.00  0.00    +0.425 C 
ATOM      9  O   UNL     1      -6.700 -10.772  15.400  0.00  0.00    -0.224 OA
BRANCH   7   6
ATOM      3  C   UNL     1      -8.018  -9.936  17.795  0.00  0.00    +0.139 A 
ATOM      4  C   UNL     1      -7.890  -9.314  17.268  0.00  0.00    +0.038 A 
ATOM      5  C   UNL     1      -7.223  -9.315  16.782  0.00  0.00    +0.020 A 
ATOM      6  C   UNL     1      -6.684  -9.938  16.824  0.00  0.00    +0.077 A 
ATOM     28  C   UNL     1      -6.811 -10.559  17.351  0.00  0.00    +0.020 A 
ATOM     29  C   UNL     1      -7.478 -10.558  17.837  0.00  0.00    +0.038 A 
BRANCH   3   2
ATOM      1  C   UNL     1      -9.436 -10.015  17.949  0.00  0.00    +0.252 C 
ATOM      2  O   UNL     1      -8.685  -9.935  18.281  0.00  0.00    -0.471 OA
ENDBRANCH   3   2
ENDBRANCH   7   6
ENDBRANCH  10   8
ENDBRANCH  11  10
TORSDOF 6
ENDMDL
