MODEL 1
REMARK VINA RESULT:     -14.0      0.000      0.000
REMARK  Name = 
REMARK  6 active torsions:
REMARK  status: ('A' for Active; 'I' for Inactive)
REMARK    1  A    between atoms: C_3  and  N_4
REMARK    2  A    between atoms: N_7  and  C_8
REMARK    3  A    between atoms: C_10  and  C_14
REMARK    4  A    between atoms: C_23  and  N_24
REMARK    5  A    between atoms: C_27  and  C_28
REMARK    6  A    between atoms: C_28  and  C_29
REMARK                            x       y       z     vdW  Elec       q    Type
REMARK                         _______ _______ _______ _____ _____    ______ ____
ROOT
ATOM      1  O   UNL     1      -2.804   1.921  24.295  0.00  0.00    -0.220 OA
ATOM      2  C   UNL     1      -3.578   1.646  24.368  0.00  0.00    +0.194 C 
ATOM      3  C   UNL     1      -4.237   1.150  24.291  0.00  0.00    +0.158 C 
ATOM     18  C   UNL     1      -4.859   1.670  24.744  0.00  0.00    +0.170 C 
ATOM     19  C   UNL     1      -4.587   2.342  25.025  0.00  0.00    +0.176 C 
ATOM     20  O   UNL     1      -4.748   2.947  25.393  0.00  0.00    -0.327 OA
ATOM     21  C   UNL     1      -4.887   2.162  25.014  0.00  0.00    +0.253 C 
ATOM     22  O   UNL     1      -5.544   1.669  24.938  0.00  0.00    -0.327 OA
ATOM     23  C   UNL     1      -4.226   1.629  24.543  0.00  0.00    +0.147 C 
ENDROOT
BRANCH  23  24
ATOM     24  N   UNL     1      -3.880   2.326  24.816  0.00  0.00    -0.268 NA
ATOM     25  C   UNL     1      -3.883   3.002  24.342  0.00  0.00    +0.072 C 
ATOM     26  C   UNL     1      -3.538   3.699  24.616  0.00  0.00    +0.018 C 
ATOM     27  C   UNL     1      -3.189   3.721  25.363  0.00  0.00    +0.007 C 
ATOM     35  C   UNL     1      -3.185   3.046  25.837  0.00  0.00    +0.018 C 
ATOM     36  C   UNL     1      -3.531   2.349  25.563  0.00  0.00    +0.072 C 
BRANCH  27  28
ATOM     28  C   UNL     1      -2.843   4.418  25.637  0.00  0.00    +0.026 C 
BRANCH  28  29
ATOM     29  C   UNL     1      -2.085   4.629  25.389  0.00  0.00    -0.022 A 
ATOM     30  C   UNL     1      -1.439   4.157  25.585  0.00  0.00    -0.004 A 
ATOM     31  C   UNL     1      -0.681   4.368  25.337  0.00  0.00    -0.000 A 
ATOM     32  C   UNL     1      -0.570   5.054  24.891  0.00  0.00    -0.000 A 
ATOM     33  C   UNL     1      -1.216   5.527  24.694  0.00  0.00    -0.000 A 
ATOM     34  C   UNL     1      -1.974   5.315  24.943  0.00  0.00    -0.004 A 
ENDBRANCH  28  29
ENDBRANCH  27  28
ENDBRANCH  23  24
BRANCH   3   4
ATOM      4  N   UNL     1      -4.316   0.415  23.922  0.00  0.00    -0.183 NA
ATOM      5  C   UNL     1      -3.952  -0.251  24.246  0.00  0.00    +0.344 C 
ATOM      6  O   UNL     1      -3.508  -0.181  24.939  0.00  0.00    -0.249 OA
ATOM      7  N   UNL     1      -4.031  -0.984  23.878  0.00  0.00    -0.161 NA
BRANCH   7   8
ATOM      8  C   UNL     1      -3.667  -1.650  24.202  0.00  0.00    +0.075 A 
ATOM      9  C   UNL     1      -2.845  -1.718  24.187  0.00  0.00    +0.021 A 
ATOM     10  C   UNL     1      -2.480  -2.383  24.511  0.00  0.00    +0.073 A 
ATOM     11  C   UNL     1      -2.938  -2.981  24.850  0.00  0.00    +0.004 A 
ATOM     12  C   UNL     1      -3.759  -2.912  24.865  0.00  0.00    +0.001 A 
ATOM     13  C   UNL     1      -4.124  -2.247  24.542  0.00  0.00    +0.017 A 
BRANCH  10  14
ATOM     14  C   UNL     1      -1.658  -2.453  24.496  0.00  0.00    +0.419 C 
ATOM     15  F   UNL     1      -0.837  -2.522  24.481  0.00  0.00    -0.166 F 
ATOM     16  F   UNL     1      -1.693  -2.698  23.708  0.00  0.00    -0.166 F 
ATOM     17  F   UNL     1      -1.623  -2.208  25.283  0.00  0.00    -0.166 F 
ENDBRANCH  10  14
ENDBRANCH   7   8
ENDBRANCH   3   4
TORSDOF 6
ENDMDL
MODEL 2
REMARK VINA RESULT:     -13.6      2.929      6.149
REMARK  Name = 
REMARK  6 active torsions:
REMARK  status: ('A' for Active; 'I' for Inactive)
REMARK    1  A    between atoms: C_3  and  N_4
REMARK    2  A    between atoms: N_7  and  C_8
REMARK    3  A    between atoms: C_10  and  C_14
REMARK    4  A    between atoms: C_23  and  N_24
REMARK    5  A    between atoms: C_27  and  C_28
REMARK    6  A    between atoms: C_28  and  C_29
REMARK                            x       y       z     vdW  Elec       q    Type
REMARK                         _______ _______ _______ _____ _____    ______ ____
ROOT
ATOM      1  O   UNL     1      -1.417   0.139  25.652  0.00  0.00    -0.220 OA
ATOM      2  C   UNL     1      -0.829   0.529  25.225  0.00  0.00    +0.194 C 
ATOM      3  C   UNL     1      -0.295   1.122  25.001  0.00  0.00    +0.158 C 
ATOM     18  C   UNL     1       0.082   0.701  24.264  0.00  0.00    +0.170 C 
ATOM     19  C   UNL     1      -0.199  -0.008  24.108  0.00  0.00    +0.176 C 
ATOM     20  O   UNL     1      -0.161  -0.583  23.668  0.00  0.00    -0.327 OA
ATOM     21  C   UNL     1       0.039   0.217  23.982  0.00  0.00    +0.253 C 
ATOM     22  O   UNL     1       0.571   0.806  23.758  0.00  0.00    -0.327 OA
ATOM     23  C   UNL     1      -0.365   0.645  24.755  0.00  0.00    +0.147 C 
ENDROOT
BRANCH  23  24
ATOM     24  N   UNL     1      -0.701  -0.099  24.640  0.00  0.00    -0.268 NA
ATOM     25  C   UNL     1      -1.303  -0.199  24.084  0.00  0.00    +0.072 C 
ATOM     26  C   UNL     1      -1.639  -0.944  23.969  0.00  0.00    +0.018 C 
ATOM     27  C   UNL     1      -1.374  -1.588  24.410  0.00  0.00    +0.007 C 
ATOM     35  C   UNL     1      -0.772  -1.489  24.966  0.00  0.00    +0.018 C 
ATOM     36  C   UNL     1      -0.436  -0.745  25.081  0.00  0.00    +0.072 C 
BRANCH  27  28
ATOM     28  C   UNL     1      -1.710  -2.334  24.296  0.00  0.00    +0.026 C 
BRANCH  28  29
ATOM     29  C   UNL     1      -2.512  -2.454  24.448  0.00  0.00    -0.022 A 
ATOM     30  C   UNL     1      -2.768  -2.603  25.217  0.00  0.00    -0.004 A 
ATOM     31  C   UNL     1      -3.570  -2.724  25.369  0.00  0.00    -0.000 A 
ATOM     32  C   UNL     1      -4.115  -2.693  24.751  0.00  0.00    -0.000 A 
ATOM     33  C   UNL     1      -3.859  -2.543  23.981  0.00  0.00    -0.000 A 
ATOM     34  C   UNL     1      -3.057  -2.423  23.830  0.00  0.00    -0.004 A 
ENDBRANCH  28  29
ENDBRANCH  27  28
ENDBRANCH  23  24
BRANCH   3   4
ATOM      4  N   UNL     1      -0.144   1.863  25.333  0.00  0.00    -0.183 NA
ATOM      5  C   UNL     1      -0.687   2.477  25.235  0.00  0.00    +0.344 C 
ATOM      6  O   UNL     1      -1.380   2.350  24.805  0.00  0.00    -0.249 OA
ATOM      7  N   UNL     1      -0.536   3.217  25.566  0.00  0.00    -0.161 NA
BRANCH   7   8
ATOM      8  C   UNL     1      -1.079   3.831  25.468  0.00  0.00    +0.075 A 
ATOM      9  C   UNL     1      -1.836   3.768  25.789  0.00  0.00    +0.021 A 
ATOM     10  C   UNL     1      -2.378   4.381  25.691  0.00  0.00    +0.073 A 
ATOM     11  C   UNL     1      -2.164   5.059  25.272  0.00  0.00    +0.004 A 
ATOM     12  C   UNL     1      -1.406   5.122  24.951  0.00  0.00    +0.001 A 
ATOM     13  C   UNL     1      -0.864   4.509  25.049  0.00  0.00    +0.017 A 
BRANCH  10  14
ATOM     14  C   UNL     1      -3.136   4.319  26.012  0.00  0.00    +0.419 C 
ATOM     15  F   UNL     1      -3.893   4.256  26.332  0.00  0.00    -0.166 F 
ATOM     16  F   UNL     1      -3.452   4.250  25.252  0.00  0.00    -0.166 F 
ATOM     17  F   UNL     1      -2.821   4.387  26.772  0.00  0.00    -0.166 F 
ENDBRANCH  10  14
ENDBRANCH   7   8
ENDBRANCH   3   4
TORSDOF 6
ENDMDL
MODEL 3
REMARK VINA RESULT:     -13.4      2.296      5.485
REMARK  Name = 
REMARK  6 active torsions:
REMARK  status: ('A' for Active; 'I' for Inactive)
REMARK    1  A    between atoms: C_3  and  N_4
REMARK    2  A    between atoms: N_7  and  C_8
REMARK    3  A    between atoms: C_10  and  C_14
REMARK    4  A    between atoms: C_23  and  N_24
REMARK    5  A    between atoms: C_27  and  C_28
REMARK    6  A    between atoms: C_28  and  C_29
REMARK                            x       y       z     vdW  Elec       q    Type
REMARK                         _______ _______ _______ _____ _____    ______ ____
ROOT
ATOM      1  O   UNL     1      -2.954   0.563  24.152  0.00  0.00    -0.220 OA
ATOM      2  C   UNL     1      -3.630   1.003  24.326  0.00  0.00    +0.194 C 
ATOM      3  C   UNL     1      -4.135   1.656  24.396  0.00  0.00    +0.158 C 
ATOM     18  C   UNL     1      -4.876   1.223  24.753  0.00  0.00    +0.170 C 
ATOM     19  C   UNL     1      -4.792   0.457  24.861  0.00  0.00    +0.176 C 
ATOM     20  O   UNL     1      -5.109  -0.153  25.091  0.00  0.00    -0.327 OA
ATOM     21  C   UNL     1      -5.034   0.706  24.906  0.00  0.00    +0.253 C 
ATOM     22  O   UNL     1      -5.539   1.355  24.977  0.00  0.00    -0.327 OA
ATOM     23  C   UNL     1      -4.253   1.145  24.533  0.00  0.00    +0.147 C 
ENDROOT
BRANCH  23  24
ATOM     24  N   UNL     1      -4.104   0.339  24.624  0.00  0.00    -0.268 NA
ATOM     25  C   UNL     1      -4.224  -0.178  23.992  0.00  0.00    +0.072 C 
ATOM     26  C   UNL     1      -4.076  -0.984  24.083  0.00  0.00    +0.018 C 
ATOM     27  C   UNL     1      -3.806  -1.274  24.807  0.00  0.00    +0.007 C 
ATOM     35  C   UNL     1      -3.686  -0.758  25.439  0.00  0.00    +0.018 C 
ATOM     36  C   UNL     1      -3.834   0.048  25.348  0.00  0.00    +0.072 C 
BRANCH  27  28
ATOM     28  C   UNL     1      -3.657  -2.080  24.899  0.00  0.00    +0.026 C 
BRANCH  28  29
ATOM     29  C   UNL     1      -2.916  -2.388  24.709  0.00  0.00    -0.022 A 
ATOM     30  C   UNL     1      -2.277  -2.269  25.215  0.00  0.00    -0.004 A 
ATOM     31  C   UNL     1      -1.536  -2.577  25.025  0.00  0.00    -0.000 A 
ATOM     32  C   UNL     1      -1.435  -3.005  24.327  0.00  0.00    -0.000 A 
ATOM     33  C   UNL     1      -2.074  -3.126  23.820  0.00  0.00    -0.000 A 
ATOM     34  C   UNL     1      -2.815  -2.817  24.011  0.00  0.00    -0.004 A 
ENDBRANCH  28  29
ENDBRANCH  27  28
ENDBRANCH  23  24
BRANCH   3   4
ATOM      4  N   UNL     1      -4.016   2.451  24.206  0.00  0.00    -0.183 NA
ATOM      5  C   UNL     1      -3.523   2.917  24.675  0.00  0.00    +0.344 C 
ATOM      6  O   UNL     1      -3.148   2.589  25.333  0.00  0.00    -0.249 OA
ATOM      7  N   UNL     1      -3.404   3.711  24.486  0.00  0.00    -0.161 NA
BRANCH   7   8
ATOM      8  C   UNL     1      -2.910   4.177  24.954  0.00  0.00    +0.075 A 
ATOM      9  C   UNL     1      -2.162   4.390  24.680  0.00  0.00    +0.021 A 
ATOM     10  C   UNL     1      -1.669   4.857  25.149  0.00  0.00    +0.073 A 
ATOM     11  C   UNL     1      -1.923   5.110  25.892  0.00  0.00    +0.004 A 
ATOM     12  C   UNL     1      -2.671   4.896  26.165  0.00  0.00    +0.001 A 
ATOM     13  C   UNL     1      -3.165   4.430  25.697  0.00  0.00    +0.017 A 
BRANCH  10  14
ATOM     14  C   UNL     1      -0.920   5.070  24.875  0.00  0.00    +0.419 C 
ATOM     15  F   UNL     1      -0.172   5.283  24.602  0.00  0.00    -0.166 F 
ATOM     16  F   UNL     1      -0.632   4.324  25.081  0.00  0.00    -0.166 F 
ATOM     17  F   UNL     1      -1.207   5.816  24.669  0.00  0.00    -0.166 F 
ENDBRANCH  10  14
ENDBRANCH   7   8
ENDBRANCH   3   4
TORSDOF 6
ENDMDL
MODEL 4
REMARK VINA RESULT:     -12.9      2.302      3.133
REMARK  Name = 
REMARK  6 active torsions:
REMARK  status: ('A' for Active; 'I' for Inactive)
REMARK    1  A    between atoms: C_3  and  N_4
REMARK    2  A    between atoms: N_7  and  C_8
REMARK    3  A    between atoms: C_10  and  C_14
REMARK    4  A    between atoms: C_23  and  N_24
REMARK    5  A    between atoms: C_27  and  C_28
REMARK    6  A    between atoms: C_28  and  C_29
REMARK                            x       y       z     vdW  Elec       q    Type
REMARK                         _______ _______ _______ _____ _____    ______ ____
ROOT
ATOM      1  O   UNL     1      -1.337   1.084  25.444  0.00  0.00    -0.220 OA
ATOM      2  C   UNL     1      -0.842   0.720  24.893  0.00  0.00    +0.194 C 
ATOM      3  C   UNL     1      -0.497   0.122  24.435  0.00  0.00    +0.158 C 
ATOM     18  C   UNL     1       0.113   0.642  23.964  0.00  0.00    +0.170 C 
ATOM     19  C   UNL     1       0.103   1.400  24.135  0.00  0.00    +0.176 C 
ATOM     20  O   UNL     1       0.396   2.049  23.995  0.00  0.00    -0.327 OA
ATOM     21  C   UNL     1       0.274   1.178  23.925  0.00  0.00    +0.253 C 
ATOM     22  O   UNL     1       0.620   0.585  23.467  0.00  0.00    -0.327 OA
ATOM     23  C   UNL     1      -0.368   0.648  24.425  0.00  0.00    +0.147 C 
ENDROOT
BRANCH  23  24
ATOM     24  N   UNL     1      -0.424   1.440  24.648  0.00  0.00    -0.268 NA
ATOM     25  C   UNL     1      -0.832   1.976  24.170  0.00  0.00    +0.072 C 
ATOM     26  C   UNL     1      -0.888   2.768  24.394  0.00  0.00    +0.018 C 
ATOM     27  C   UNL     1      -0.537   3.024  25.095  0.00  0.00    +0.007 C 
ATOM     35  C   UNL     1      -0.130   2.489  25.573  0.00  0.00    +0.018 C 
ATOM     36  C   UNL     1      -0.074   1.697  25.349  0.00  0.00    +0.072 C 
BRANCH  27  28
ATOM     28  C   UNL     1      -0.593   3.817  25.319  0.00  0.00    +0.026 C 
BRANCH  28  29
ATOM     29  C   UNL     1      -1.333   4.158  25.452  0.00  0.00    -0.022 A 
ATOM     30  C   UNL     1      -1.816   3.873  26.056  0.00  0.00    -0.004 A 
ATOM     31  C   UNL     1      -2.555   4.215  26.189  0.00  0.00    -0.000 A 
ATOM     32  C   UNL     1      -2.811   4.841  25.716  0.00  0.00    -0.000 A 
ATOM     33  C   UNL     1      -2.327   5.126  25.111  0.00  0.00    -0.000 A 
ATOM     34  C   UNL     1      -1.588   4.784  24.979  0.00  0.00    -0.004 A 
ENDBRANCH  28  29
ENDBRANCH  27  28
ENDBRANCH  23  24
BRANCH   3   4
ATOM      4  N   UNL     1      -0.648  -0.689  24.406  0.00  0.00    -0.183 NA
ATOM      5  C   UNL     1      -1.400  -0.975  24.591  0.00  0.00    +0.344 C 
ATOM      6  O   UNL     1      -2.000  -0.450  24.804  0.00  0.00    -0.249 OA
ATOM      7  N   UNL     1      -1.551  -1.785  24.562  0.00  0.00    -0.161 NA
BRANCH   7   8
ATOM      8  C   UNL     1      -2.302  -2.072  24.746  0.00  0.00    +0.075 A 
ATOM      9  C   UNL     1      -2.862  -2.174  24.150  0.00  0.00    +0.021 A 
ATOM     10  C   UNL     1      -3.614  -2.460  24.334  0.00  0.00    +0.073 A 
ATOM     11  C   UNL     1      -3.806  -2.644  25.115  0.00  0.00    +0.004 A 
ATOM     12  C   UNL     1      -3.245  -2.541  25.712  0.00  0.00    +0.001 A 
ATOM     13  C   UNL     1      -2.494  -2.256  25.528  0.00  0.00    +0.017 A 
BRANCH  10  14
ATOM     14  C   UNL     1      -4.175  -2.562  23.738  0.00  0.00    +0.419 C 
ATOM     15  F   UNL     1      -4.735  -2.665  23.141  0.00  0.00    -0.166 F 
ATOM     16  F   UNL     1      -3.887  -3.323  23.598  0.00  0.00    -0.166 F 
ATOM     17  F   UNL     1      -4.463  -1.802  23.877  0.00  0.00    -0.166 F 
ENDBRANCH  10  14
ENDBRANCH   7   8
ENDBRANCH   3   4
TORSDOF 6
ENDMDL
