MODEL 1
REMARK VINA RESULT:      -7.3      0.000      0.000
REMARK  Name = 
REMARK  7 active torsions:
REMARK  status: ('A' for Active; 'I' for Inactive)
REMARK    1  A    between atoms: O_2  and  C_3
REMARK    2  A    between atoms: C_3  and  C_4
REMARK    3  A    between atoms: N_6  and  C_7
REMARK    4  A    between atoms: C_7  and  C_8
REMARK    5  A    between atoms: C_11  and  N_12
REMARK    6  A    between atoms: N_12  and  C_13
REMARK    7  A    between atoms: C_13  and  C_14
REMARK                            x       y       z     vdW  Elec       q    Type
REMARK                         _______ _______ _______ _____ _____    ______ ____
ROOT
ATOM      8  C   UNL     1      -3.955   1.804  24.538  0.00  0.00    +0.169 C 
ATOM      9  O   UNL     1      -4.409   1.550  25.179  0.00  0.00    -0.350 OA
ATOM     10  C   UNL     1      -4.459   0.727  25.145  0.00  0.00    +0.162 C 
ATOM     11  C   UNL     1      -4.036   0.472  24.484  0.00  0.00    +0.135 C 
ATOM     19  C   UNL     1      -3.725   1.138  24.109  0.00  0.00    +0.199 C 
ATOM     20  O   UNL     1      -3.264   1.138  23.425  0.00  0.00    -0.219 OA
ENDROOT
BRANCH   8   7
ATOM      7  C   UNL     1      -3.765   2.586  24.359  0.00  0.00    +0.147 C 
BRANCH   7   6
ATOM      4  C   UNL     1      -3.130   3.810  24.731  0.00  0.00    +0.272 C 
ATOM      5  O   UNL     1      -3.583   4.215  24.172  0.00  0.00    -0.271 OA
ATOM      6  N   UNL     1      -3.222   2.996  24.824  0.00  0.00    -0.201 NA
BRANCH   4   3
ATOM      3  C   UNL     1      -2.587   4.221  25.197  0.00  0.00    +0.229 C 
BRANCH   3   2
ATOM      1  C   UNL     1      -1.388   4.995  25.253  0.00  0.00    +0.175 C 
ATOM      2  O   UNL     1      -2.064   4.755  24.848  0.00  0.00    -0.342 OA
ENDBRANCH   3   2
ENDBRANCH   4   3
ENDBRANCH   7   6
ENDBRANCH   8   7
BRANCH  11  12
ATOM     12  N   UNL     1      -3.941  -0.311  24.240  0.00  0.00    -0.209 NA
BRANCH  12  13
ATOM     13  C   UNL     1      -4.053  -0.926  24.779  0.00  0.00    +0.122 C 
BRANCH  13  14
ATOM     14  C   UNL     1      -3.878  -1.702  24.560  0.00  0.00    +0.025 A 
ATOM     15  C   UNL     1      -4.223  -2.120  23.939  0.00  0.00    +0.004 A 
ATOM     16  C   UNL     1      -3.886  -2.873  23.919  0.00  0.00    +0.007 A 
ATOM     17  C   UNL     1      -3.332  -2.919  24.529  0.00  0.00    +0.035 A 
ATOM     18  S   UNL     1      -3.327  -2.196  24.925  0.00  0.00    -0.089 S 
ENDBRANCH  13  14
ENDBRANCH  12  13
ENDBRANCH  11  12
TORSDOF 7
ENDMDL
MODEL 2
REMARK VINA RESULT:      -7.2      1.368      1.559
REMARK  Name = 
REMARK  7 active torsions:
REMARK  status: ('A' for Active; 'I' for Inactive)
REMARK    1  A    between atoms: O_2  and  C_3
REMARK    2  A    between atoms: C_3  and  C_4
REMARK    3  A    between atoms: N_6  and  C_7
REMARK    4  A    between atoms: C_7  and  C_8
REMARK    5  A    between atoms: C_11  and  N_12
REMARK    6  A    between atoms: N_12  and  C_13
REMARK    7  A    between atoms: C_13  and  C_14
REMARK                            x       y       z     vdW  Elec       q    Type
REMARK                         _______ _______ _______ _____ _____    ______ ____
ROOT
ATOM      8  C   UNL     1      -2.137   1.578  24.969  0.00  0.00    +0.169 C 
ATOM      9  O   UNL     1      -2.953   1.700  24.931  0.00  0.00    -0.350 OA
ATOM     10  C   UNL     1      -3.313   0.971  24.794  0.00  0.00    +0.162 C 
ATOM     11  C   UNL     1      -2.721   0.398  24.746  0.00  0.00    +0.135 C 
ATOM     19  C   UNL     1      -1.995   0.774  24.855  0.00  0.00    +0.199 C 
ATOM     20  O   UNL     1      -1.255   0.409  24.850  0.00  0.00    -0.219 OA
ENDROOT
BRANCH   8   7
ATOM      7  C   UNL     1      -1.566   2.159  25.099  0.00  0.00    +0.147 C 
BRANCH   7   6
ATOM      4  C   UNL     1      -1.218   3.532  25.286  0.00  0.00    +0.272 C 
ATOM      5  O   UNL     1      -0.428   3.317  25.391  0.00  0.00    -0.271 OA
ATOM      6  N   UNL     1      -1.786   2.953  25.140  0.00  0.00    -0.201 NA
BRANCH   4   3
ATOM      3  C   UNL     1      -1.438   4.326  25.328  0.00  0.00    +0.229 C 
BRANCH   3   2
ATOM      1  C   UNL     1      -1.243   5.680  24.918  0.00  0.00    +0.175 C 
ATOM      2  O   UNL     1      -0.973   4.902  24.965  0.00  0.00    -0.342 OA
ENDBRANCH   3   2
ENDBRANCH   4   3
ENDBRANCH   7   6
ENDBRANCH   8   7
BRANCH  11  12
ATOM     12  N   UNL     1      -2.835  -0.409  24.613  0.00  0.00    -0.209 NA
BRANCH  12  13
ATOM     13  C   UNL     1      -3.587  -0.737  24.699  0.00  0.00    +0.122 C 
BRANCH  13  14
ATOM     14  C   UNL     1      -3.717  -1.527  24.496  0.00  0.00    +0.025 A 
ATOM     15  C   UNL     1      -4.180  -1.796  23.868  0.00  0.00    +0.004 A 
ATOM     16  C   UNL     1      -4.156  -2.621  23.869  0.00  0.00    +0.007 A 
ATOM     17  C   UNL     1      -3.678  -2.861  24.497  0.00  0.00    +0.035 A 
ATOM     18  S   UNL     1      -3.407  -2.185  24.885  0.00  0.00    -0.089 S 
ENDBRANCH  13  14
ENDBRANCH  12  13
ENDBRANCH  11  12
TORSDOF 7
ENDMDL
MODEL 3
REMARK VINA RESULT:      -7.1      3.215      4.459
REMARK  Name = 
REMARK  7 active torsions:
REMARK  status: ('A' for Active; 'I' for Inactive)
REMARK    1  A    between atoms: O_2  and  C_3
REMARK    2  A    between atoms: C_3  and  C_4
REMARK    3  A    between atoms: N_6  and  C_7
REMARK    4  A    between atoms: C_7  and  C_8
REMARK    5  A    between atoms: C_11  and  N_12
REMARK    6  A    between atoms: N_12  and  C_13
REMARK    7  A    between atoms: C_13  and  C_14
REMARK                            x       y       z     vdW  Elec       q    Type
REMARK                         _______ _______ _______ _____ _____    ______ ____
ROOT
ATOM      8  C   UNL     1      -1.632   0.869  24.047  0.00  0.00    +0.169 C 
ATOM      9  O   UNL     1      -1.776   1.505  23.540  0.00  0.00    -0.350 OA
ATOM     10  C   UNL     1      -2.493   1.848  23.761  0.00  0.00    +0.162 C 
ATOM     11  C   UNL     1      -2.792   1.426  24.404  0.00  0.00    +0.135 C 
ATOM     19  C   UNL     1      -2.259   0.821  24.580  0.00  0.00    +0.199 C 
ATOM     20  O   UNL     1      -2.340   0.265  25.184  0.00  0.00    -0.219 OA
ENDROOT
BRANCH   8   7
ATOM      7  C   UNL     1      -0.976   0.371  24.023  0.00  0.00    +0.147 C 
BRANCH   7   6
ATOM      4  C   UNL     1       0.336   0.087  23.532  0.00  0.00    +0.272 C 
ATOM      5  O   UNL     1       0.256  -0.699  23.772  0.00  0.00    -0.271 OA
ATOM      6  N   UNL     1      -0.280   0.621  23.657  0.00  0.00    -0.201 NA
BRANCH   4   3
ATOM      3  C   UNL     1       1.032   0.337  23.167  0.00  0.00    +0.229 C 
BRANCH   3   2
ATOM      1  C   UNL     1       2.219   0.038  22.431  0.00  0.00    +0.175 C 
ATOM      2  O   UNL     1       1.507  -0.206  22.767  0.00  0.00    -0.342 OA
ENDBRANCH   3   2
ENDBRANCH   4   3
ENDBRANCH   7   6
ENDBRANCH   8   7
BRANCH  11  12
ATOM     12  N   UNL     1      -3.498   1.581  24.801  0.00  0.00    -0.209 NA
BRANCH  12  13
ATOM     13  C   UNL     1      -4.010   2.163  24.518  0.00  0.00    +0.122 C 
BRANCH  13  14
ATOM     14  C   UNL     1      -4.721   2.313  24.911  0.00  0.00    +0.025 A 
ATOM     15  C   UNL     1      -5.402   1.850  24.874  0.00  0.00    +0.004 A 
ATOM     16  C   UNL     1      -5.977   2.204  25.349  0.00  0.00    +0.007 A 
ATOM     17  C   UNL     1      -5.649   2.885  25.679  0.00  0.00    +0.035 A 
ATOM     18  S   UNL     1      -4.873   2.954  25.408  0.00  0.00    -0.089 S 
ENDBRANCH  13  14
ENDBRANCH  12  13
ENDBRANCH  11  12
TORSDOF 7
ENDMDL
MODEL 4
REMARK VINA RESULT:      -7.0      2.123      5.396
REMARK  Name = 
REMARK  7 active torsions:
REMARK  status: ('A' for Active; 'I' for Inactive)
REMARK    1  A    between atoms: O_2  and  C_3
REMARK    2  A    between atoms: C_3  and  C_4
REMARK    3  A    between atoms: N_6  and  C_7
REMARK    4  A    between atoms: C_7  and  C_8
REMARK    5  A    between atoms: C_11  and  N_12
REMARK    6  A    between atoms: N_12  and  C_13
REMARK    7  A    between atoms: C_13  and  C_14
REMARK                            x       y       z     vdW  Elec       q    Type
REMARK                         _______ _______ _______ _____ _____    ______ ____
ROOT
ATOM      8  C   UNL     1      -2.948   0.760  24.614  0.00  0.00    +0.169 C 
ATOM      9  O   UNL     1      -2.193   0.657  24.932  0.00  0.00    -0.350 OA
ATOM     10  C   UNL     1      -1.858   1.404  25.038  0.00  0.00    +0.162 C 
ATOM     11  C   UNL     1      -2.405   1.968  24.786  0.00  0.00    +0.135 C 
ATOM     19  C   UNL     1      -3.078   1.569  24.524  0.00  0.00    +0.199 C 
ATOM     20  O   UNL     1      -3.763   1.919  24.224  0.00  0.00    -0.219 OA
ENDROOT
BRANCH   8   7
ATOM      7  C   UNL     1      -3.478   0.158  24.420  0.00  0.00    +0.147 C 
BRANCH   7   6
ATOM      4  C   UNL     1      -3.865  -1.216  24.483  0.00  0.00    +0.272 C 
ATOM      5  O   UNL     1      -4.487  -1.064  23.963  0.00  0.00    -0.271 OA
ATOM      6  N   UNL     1      -3.361  -0.605  24.712  0.00  0.00    -0.201 NA
BRANCH   4   3
ATOM      3  C   UNL     1      -3.748  -1.979  24.774  0.00  0.00    +0.229 C 
BRANCH   3   2
ATOM      1  C   UNL     1      -3.432  -3.345  24.502  0.00  0.00    +0.175 C 
ATOM      2  O   UNL     1      -3.745  -2.622  24.258  0.00  0.00    -0.342 OA
ENDBRANCH   3   2
ENDBRANCH   4   3
ENDBRANCH   7   6
ENDBRANCH   8   7
BRANCH  11  12
ATOM     12  N   UNL     1      -2.298   2.786  24.794  0.00  0.00    -0.209 NA
BRANCH  12  13
ATOM     13  C   UNL     1      -1.668   3.114  25.212  0.00  0.00    +0.122 C 
BRANCH  13  14
ATOM     14  C   UNL     1      -1.514   3.924  25.158  0.00  0.00    +0.025 A 
ATOM     15  C   UNL     1      -2.008   4.530  25.420  0.00  0.00    +0.004 A 
ATOM     16  C   UNL     1      -1.638   5.249  25.256  0.00  0.00    +0.007 A 
ATOM     17  C   UNL     1      -0.916   5.087  24.894  0.00  0.00    +0.035 A 
ATOM     18  S   UNL     1      -0.838   4.267  24.833  0.00  0.00    -0.089 S 
ENDBRANCH  13  14
ENDBRANCH  12  13
ENDBRANCH  11  12
TORSDOF 7
ENDMDL
MODEL 5
REMARK VINA RESULT:      -6.0     16.253     18.571
REMARK  Name = 
REMARK  7 active torsions:
REMARK  status: ('A' for Active; 'I' for Inactive)
REMARK    1  A    between atoms: O_2  and  C_3
REMARK    2  A    between atoms: C_3  and  C_4
REMARK    3  A    between atoms: N_6  and  C_7
REMARK    4  A    between atoms: C_7  and  C_8
REMARK    5  A    between atoms: C_11  and  N_12
REMARK    6  A    between atoms: N_12  and  C_13
REMARK    7  A    between atoms: C_13  and  C_14
REMARK                            x       y       z     vdW  Elec       q    Type
REMARK                         _______ _______ _______ _____ _____    ______ ____
ROOT
ATOM      8  C   UNL     1      12.496   7.917  18.157  0.00  0.00    +0.169 C 
ATOM      9  O   UNL     1      13.080   7.549  18.609  0.00  0.00    -0.350 OA
ATOM     10  C   UNL     1      12.773   7.419  19.364  0.00  0.00    +0.162 C 
ATOM     11  C   UNL     1      12.000   7.706  19.378  0.00  0.00    +0.135 C 
ATOM     19  C   UNL     1      11.829   8.014  18.632  0.00  0.00    +0.199 C 
ATOM     20  O   UNL     1      11.116   8.358  18.401  0.00  0.00    -0.219 OA
ENDROOT
BRANCH   8   7
ATOM      7  C   UNL     1      12.568   8.148  17.368  0.00  0.00    +0.147 C 
BRANCH   7   6
ATOM      4  C   UNL     1      13.390   8.548  16.270  0.00  0.00    +0.272 C 
ATOM      5  O   UNL     1      12.717   8.766  15.846  0.00  0.00    -0.271 OA
ATOM      6  N   UNL     1      13.315   8.239  17.031  0.00  0.00    -0.201 NA
BRANCH   4   3
ATOM      3  C   UNL     1      14.137   8.639  15.932  0.00  0.00    +0.229 C 
BRANCH   3   2
ATOM      1  C   UNL     1      14.925   9.094  14.832  0.00  0.00    +0.175 C 
ATOM      2  O   UNL     1      14.209   8.815  15.130  0.00  0.00    -0.342 OA
ENDBRANCH   3   2
ENDBRANCH   4   3
ENDBRANCH   7   6
ENDBRANCH   8   7
BRANCH  11  12
ATOM     12  N   UNL     1      11.487   7.689  20.025  0.00  0.00    -0.209 NA
BRANCH  12  13
ATOM     13  C   UNL     1      11.791   7.664  20.791  0.00  0.00    +0.122 C 
BRANCH  13  14
ATOM     14  C   UNL     1      11.282   7.706  21.439  0.00  0.00    +0.025 A 
ATOM     15  C   UNL     1      10.693   7.160  21.628  0.00  0.00    +0.004 A 
ATOM     16  C   UNL     1      10.319   7.417  22.317  0.00  0.00    +0.007 A 
ATOM     17  C   UNL     1      10.677   8.122  22.553  0.00  0.00    +0.035 A 
ATOM     18  S   UNL     1      11.272   8.301  22.010  0.00  0.00    -0.089 S 
ENDBRANCH  13  14
ENDBRANCH  12  13
ENDBRANCH  11  12
TORSDOF 7
ENDMDL
MODEL 6
REMARK VINA RESULT:      -5.9     18.501     19.974
REMARK  Name = 
REMARK  7 active torsions:
REMARK  status: ('A' for Active; 'I' for Inactive)
REMARK    1  A    between atoms: O_2  and  C_3
REMARK    2  A    between atoms: C_3  and  C_4
REMARK    3  A    between atoms: N_6  and  C_7
REMARK    4  A    between atoms: C_7  and  C_8
REMARK    5  A    between atoms: C_11  and  N_12
REMARK    6  A    between atoms: N_12  and  C_13
REMARK    7  A    between atoms: C_13  and  C_14
REMARK                            x       y       z     vdW  Elec       q    Type
REMARK                         _______ _______ _______ _____ _____    ______ ____
ROOT
ATOM      8  C   UNL     1      13.471   7.578  18.426  0.00  0.00    +0.169 C 
ATOM      9  O   UNL     1      14.099   7.648  17.894  0.00  0.00    -0.350 OA
ATOM     10  C   UNL     1      14.795   7.471  18.298  0.00  0.00    +0.162 C 
ATOM     11  C   UNL     1      14.600   7.291  19.079  0.00  0.00    +0.135 C 
ATOM     19  C   UNL     1      13.781   7.357  19.158  0.00  0.00    +0.199 C 
ATOM     20  O   UNL     1      13.348   7.225  19.847  0.00  0.00    -0.219 OA
ENDROOT
BRANCH   8   7
ATOM      7  C   UNL     1      12.675   7.706  18.255  0.00  0.00    +0.147 C 
BRANCH   7   6
ATOM      4  C   UNL     1      11.665   8.349  17.476  0.00  0.00    +0.272 C 
ATOM      5  O   UNL     1      11.082   8.003  17.946  0.00  0.00    -0.271 OA
ATOM      6  N   UNL     1      12.461   8.200  17.630  0.00  0.00    -0.201 NA
BRANCH   4   3
ATOM      3  C   UNL     1      11.450   8.844  16.851  0.00  0.00    +0.229 C 
BRANCH   3   2
ATOM      1  C   UNL     1      10.692   9.079  15.664  0.00  0.00    +0.175 C 
ATOM      2  O   UNL     1      10.927   8.576  16.273  0.00  0.00    -0.342 OA
ENDBRANCH   3   2
ENDBRANCH   4   3
ENDBRANCH   7   6
ENDBRANCH   8   7
BRANCH  11  12
ATOM     12  N   UNL     1      15.129   7.081  19.677  0.00  0.00    -0.209 NA
BRANCH  12  13
ATOM     13  C   UNL     1      15.940   7.085  19.528  0.00  0.00    +0.122 C 
BRANCH  13  14
ATOM     14  C   UNL     1      16.475   7.017  20.153  0.00  0.00    +0.025 A 
ATOM     15  C   UNL     1      16.964   7.615  20.441  0.00  0.00    +0.004 A 
ATOM     16  C   UNL     1      17.405   7.305  21.066  0.00  0.00    +0.007 A 
ATOM     17  C   UNL     1      17.187   6.516  21.164  0.00  0.00    +0.035 A 
ATOM     18  S   UNL     1      16.612   6.337  20.600  0.00  0.00    -0.089 S 
ENDBRANCH  13  14
ENDBRANCH  12  13
ENDBRANCH  11  12
TORSDOF 7
ENDMDL
MODEL 7
REMARK VINA RESULT:      -5.8     16.921     19.288
REMARK  Name = 
REMARK  7 active torsions:
REMARK  status: ('A' for Active; 'I' for Inactive)
REMARK    1  A    between atoms: O_2  and  C_3
REMARK    2  A    between atoms: C_3  and  C_4
REMARK    3  A    between atoms: N_6  and  C_7
REMARK    4  A    between atoms: C_7  and  C_8
REMARK    5  A    between atoms: C_11  and  N_12
REMARK    6  A    between atoms: N_12  and  C_13
REMARK    7  A    between atoms: C_13  and  C_14
REMARK                            x       y       z     vdW  Elec       q    Type
REMARK                         _______ _______ _______ _____ _____    ______ ____
ROOT
ATOM      8  C   UNL     1      14.422   6.898  20.655  0.00  0.00    +0.169 C 
ATOM      9  O   UNL     1      13.848   6.745  20.081  0.00  0.00    -0.350 OA
ATOM     10  C   UNL     1      13.123   7.011  20.370  0.00  0.00    +0.162 C 
ATOM     11  C   UNL     1      13.247   7.328  21.122  0.00  0.00    +0.135 C 
ATOM     19  C   UNL     1      14.050   7.258  21.297  0.00  0.00    +0.199 C 
ATOM     20  O   UNL     1      14.418   7.504  21.993  0.00  0.00    -0.219 OA
ENDROOT
BRANCH   8   7
ATOM      7  C   UNL     1      15.225   6.721  20.595  0.00  0.00    +0.147 C 
BRANCH   7   6
ATOM      4  C   UNL     1      16.370   6.422  19.795  0.00  0.00    +0.272 C 
ATOM      5  O   UNL     1      16.836   6.385  20.475  0.00  0.00    -0.271 OA
ATOM      6  N   UNL     1      15.565   6.590  19.855  0.00  0.00    -0.201 NA
BRANCH   4   3
ATOM      3  C   UNL     1      16.711   6.291  19.055  0.00  0.00    +0.229 C 
BRANCH   3   2
ATOM      1  C   UNL     1      17.399   5.365  18.213  0.00  0.00    +0.175 C 
ATOM      2  O   UNL     1      17.271   5.694  18.958  0.00  0.00    -0.342 OA
ENDBRANCH   3   2
ENDBRANCH   4   3
ENDBRANCH   7   6
ENDBRANCH   8   7
BRANCH  11  12
ATOM     12  N   UNL     1      12.671   7.658  21.612  0.00  0.00    -0.209 NA
BRANCH  12  13
ATOM     13  C   UNL     1      11.927   7.842  21.306  0.00  0.00    +0.122 C 
BRANCH  13  14
ATOM     14  C   UNL     1      11.356   8.187  21.792  0.00  0.00    +0.025 A 
ATOM     15  C   UNL     1      10.798   7.784  22.247  0.00  0.00    +0.004 A 
ATOM     16  C   UNL     1      10.340   8.345  22.644  0.00  0.00    +0.007 A 
ATOM     17  C   UNL     1      10.615   9.093  22.433  0.00  0.00    +0.035 A 
ATOM     18  S   UNL     1      11.242   8.997  21.906  0.00  0.00    -0.089 S 
ENDBRANCH  13  14
ENDBRANCH  12  13
ENDBRANCH  11  12
TORSDOF 7
ENDMDL
MODEL 8
REMARK VINA RESULT:      -5.8     18.683     20.149
REMARK  Name = 
REMARK  7 active torsions:
REMARK  status: ('A' for Active; 'I' for Inactive)
REMARK    1  A    between atoms: O_2  and  C_3
REMARK    2  A    between atoms: C_3  and  C_4
REMARK    3  A    between atoms: N_6  and  C_7
REMARK    4  A    between atoms: C_7  and  C_8
REMARK    5  A    between atoms: C_11  and  N_12
REMARK    6  A    between atoms: N_12  and  C_13
REMARK    7  A    between atoms: C_13  and  C_14
REMARK                            x       y       z     vdW  Elec       q    Type
REMARK                         _______ _______ _______ _____ _____    ______ ____
ROOT
ATOM      8  C   UNL     1      14.452   7.582  18.388  0.00  0.00    +0.169 C 
ATOM      9  O   UNL     1      14.159   8.199  18.852  0.00  0.00    -0.350 OA
ATOM     10  C   UNL     1      13.528   8.544  18.447  0.00  0.00    +0.162 C 
ATOM     11  C   UNL     1      13.431   8.141  17.734  0.00  0.00    +0.135 C 
ATOM     19  C   UNL     1      14.001   7.547  17.698  0.00  0.00    +0.199 C 
ATOM     20  O   UNL     1      14.104   7.010  17.080  0.00  0.00    -0.219 OA
ENDROOT
BRANCH   8   7
ATOM      7  C   UNL     1      15.083   7.088  18.582  0.00  0.00    +0.147 C 
BRANCH   7   6
ATOM      4  C   UNL     1      16.167   6.750  19.449  0.00  0.00    +0.272 C 
ATOM      5  O   UNL     1      16.285   6.050  19.028  0.00  0.00    -0.271 OA
ATOM      6  N   UNL     1      15.566   7.268  19.226  0.00  0.00    -0.201 NA
BRANCH   4   3
ATOM      3  C   UNL     1      16.650   6.930  20.094  0.00  0.00    +0.229 C 
BRANCH   3   2
ATOM      1  C   UNL     1      17.397   6.466  21.219  0.00  0.00    +0.175 C 
ATOM      2  O   UNL     1      17.070   6.331  20.474  0.00  0.00    -0.342 OA
ENDBRANCH   3   2
ENDBRANCH   4   3
ENDBRANCH   7   6
ENDBRANCH   8   7
BRANCH  11  12
ATOM     12  N   UNL     1      12.862   8.304  17.158  0.00  0.00    -0.209 NA
BRANCH  12  13
ATOM     13  C   UNL     1      12.131   8.615  17.378  0.00  0.00    +0.122 C 
BRANCH  13  14
ATOM     14  C   UNL     1      11.545   8.733  16.809  0.00  0.00    +0.025 A 
ATOM     15  C   UNL     1      11.648   9.092  16.073  0.00  0.00    +0.004 A 
ATOM     16  C   UNL     1      10.920   9.093  15.686  0.00  0.00    +0.007 A 
ATOM     17  C   UNL     1      10.367   8.735  16.182  0.00  0.00    +0.035 A 
ATOM     18  S   UNL     1      10.753   8.512  16.876  0.00  0.00    -0.089 S 
ENDBRANCH  13  14
ENDBRANCH  12  13
ENDBRANCH  11  12
TORSDOF 7
ENDMDL
MODEL 9
REMARK VINA RESULT:      -5.6     17.029     19.341
REMARK  Name = 
REMARK  7 active torsions:
REMARK  status: ('A' for Active; 'I' for Inactive)
REMARK    1  A    between atoms: O_2  and  C_3
REMARK    2  A    between atoms: C_3  and  C_4
REMARK    3  A    between atoms: N_6  and  C_7
REMARK    4  A    between atoms: C_7  and  C_8
REMARK    5  A    between atoms: C_11  and  N_12
REMARK    6  A    between atoms: N_12  and  C_13
REMARK    7  A    between atoms: C_13  and  C_14
REMARK                            x       y       z     vdW  Elec       q    Type
REMARK                         _______ _______ _______ _____ _____    ______ ____
ROOT
ATOM      8  C   UNL     1      13.061   7.910  19.446  0.00  0.00    +0.169 C 
ATOM      9  O   UNL     1      13.561   8.507  19.173  0.00  0.00    -0.350 OA
ATOM     10  C   UNL     1      14.325   8.198  19.128  0.00  0.00    +0.162 C 
ATOM     11  C   UNL     1      14.297   7.411  19.373  0.00  0.00    +0.135 C 
ATOM     19  C   UNL     1      13.516   7.233  19.569  0.00  0.00    +0.199 C 
ATOM     20  O   UNL     1      13.237   6.505  19.841  0.00  0.00    -0.219 OA
ENDROOT
BRANCH   8   7
ATOM      7  C   UNL     1      12.249   7.979  19.573  0.00  0.00    +0.147 C 
BRANCH   7   6
ATOM      4  C   UNL     1      11.161   8.573  20.283  0.00  0.00    +0.272 C 
ATOM      5  O   UNL     1      10.637   8.303  19.707  0.00  0.00    -0.271 OA
ATOM      6  N   UNL     1      11.967   8.411  20.216  0.00  0.00    -0.201 NA
BRANCH   4   3
ATOM      3  C   UNL     1      10.878   9.006  20.927  0.00  0.00    +0.229 C 
BRANCH   3   2
ATOM      1  C   UNL     1      10.570   9.078  22.319  0.00  0.00    +0.175 C 
ATOM      2  O   UNL     1      10.948   8.703  21.690  0.00  0.00    -0.342 OA
ENDBRANCH   3   2
ENDBRANCH   4   3
ENDBRANCH   7   6
ENDBRANCH   8   7
BRANCH  11  12
ATOM     12  N   UNL     1      14.937   6.891  19.414  0.00  0.00    -0.209 NA
BRANCH  12  13
ATOM     13  C   UNL     1      15.704   7.174  19.298  0.00  0.00    +0.122 C 
BRANCH  13  14
ATOM     14  C   UNL     1      16.346   6.658  19.356  0.00  0.00    +0.025 A 
ATOM     15  C   UNL     1      16.607   6.142  18.768  0.00  0.00    +0.004 A 
ATOM     16  C   UNL     1      17.262   5.733  19.061  0.00  0.00    +0.007 A 
ATOM     17  C   UNL     1      17.405   5.999  19.829  0.00  0.00    +0.035 A 
ATOM     18  S   UNL     1      16.839   6.570  20.012  0.00  0.00    -0.089 S 
ENDBRANCH  13  14
ENDBRANCH  12  13
ENDBRANCH  11  12
TORSDOF 7
ENDMDL
MODEL 10
REMARK VINA RESULT:      -5.4      2.552      4.742
REMARK  Name = 
REMARK  7 active torsions:
REMARK  status: ('A' for Active; 'I' for Inactive)
REMARK    1  A    between atoms: O_2  and  C_3
REMARK    2  A    between atoms: C_3  and  C_4
REMARK    3  A    between atoms: N_6  and  C_7
REMARK    4  A    between atoms: C_7  and  C_8
REMARK    5  A    between atoms: C_11  and  N_12
REMARK    6  A    between atoms: N_12  and  C_13
REMARK    7  A    between atoms: C_13  and  C_14
REMARK                            x       y       z     vdW  Elec       q    Type
REMARK                         _______ _______ _______ _____ _____    ______ ____
ROOT
ATOM      8  C   UNL     1      -2.011   1.064  24.102  0.00  0.00    +0.169 C 
ATOM      9  O   UNL     1      -2.596   0.888  23.546  0.00  0.00    -0.350 OA
ATOM     10  C   UNL     1      -3.237   1.389  23.684  0.00  0.00    +0.162 C 
ATOM     11  C   UNL     1      -3.050   1.874  24.325  0.00  0.00    +0.135 C 
ATOM     19  C   UNL     1      -2.292   1.673  24.582  0.00  0.00    +0.199 C 
ATOM     20  O   UNL     1      -1.886   2.020  25.211  0.00  0.00    -0.219 OA
ENDROOT
BRANCH   8   7
ATOM      7  C   UNL     1      -1.276   0.696  24.164  0.00  0.00    +0.147 C 
BRANCH   7   6
ATOM      4  C   UNL     1      -0.547  -0.521  24.331  0.00  0.00    +0.272 C 
ATOM      5  O   UNL     1       0.075  -0.209  23.889  0.00  0.00    -0.271 OA
ATOM      6  N   UNL     1      -1.222  -0.069  24.469  0.00  0.00    -0.201 NA
BRANCH   4   3
ATOM      3  C   UNL     1      -0.492  -1.286  24.636  0.00  0.00    +0.229 C 
BRANCH   3   2
ATOM      1  C   UNL     1      -1.127  -2.562  24.727  0.00  0.00    +0.175 C 
ATOM      2  O   UNL     1      -0.912  -1.902  24.283  0.00  0.00    -0.342 OA
ENDBRANCH   3   2
ENDBRANCH   4   3
ENDBRANCH   7   6
ENDBRANCH   8   7
BRANCH  11  12
ATOM     12  N   UNL     1      -3.534   2.457  24.651  0.00  0.00    -0.209 NA
BRANCH  12  13
ATOM     13  C   UNL     1      -4.344   2.454  24.495  0.00  0.00    +0.122 C 
BRANCH  13  14
ATOM     14  C   UNL     1      -4.856   2.897  24.966  0.00  0.00    +0.025 A 
ATOM     15  C   UNL     1      -4.793   3.704  25.125  0.00  0.00    +0.004 A 
ATOM     16  C   UNL     1      -5.420   3.917  25.618  0.00  0.00    +0.007 A 
ATOM     17  C   UNL     1      -5.870   3.241  25.763  0.00  0.00    +0.035 A 
ATOM     18  S   UNL     1      -5.522   2.610  25.360  0.00  0.00    -0.089 S 
ENDBRANCH  13  14
ENDBRANCH  12  13
ENDBRANCH  11  12
TORSDOF 7
ENDMDL
