MODEL 1
REMARK VINA RESULT:     -11.4      0.000      0.000
REMARK  Name = 
REMARK  7 active torsions:
REMARK  status: ('A' for Active; 'I' for Inactive)
REMARK    1  A    between atoms: O_2  and  C_3
REMARK    2  A    between atoms: C_8  and  N_9
REMARK    3  A    between atoms: C_15  and  C_17
REMARK    4  A    between atoms: C_17  and  C_18
REMARK    5  A    between atoms: C_18  and  C_19
REMARK    6  A    between atoms: C_31  and  N_32
REMARK    7  A    between atoms: C_33  and  C_35
REMARK                            x       y       z     vdW  Elec       q    Type
REMARK                         _______ _______ _______ _____ _____    ______ ____
ROOT
ATOM     19  C   UNL     1      -3.552   3.149  25.256  0.00  0.00    +0.019 C 
ATOM     20  C   UNL     1      -4.124   2.731  24.832  0.00  0.00    +0.004 C 
ATOM     21  C   UNL     1      -4.925   2.884  24.957  0.00  0.00    +0.030 C 
ATOM     22  C   UNL     1      -5.154   3.455  25.506  0.00  0.00    +0.127 C 
ATOM     23  C   UNL     1      -5.895   3.205  25.241  0.00  0.00    +0.033 C 
ATOM     24  O   UNL     1      -5.642   3.940  25.964  0.00  0.00    -0.226 OA
ATOM     25  C   UNL     1      -4.584   3.873  25.931  0.00  0.00    +0.030 C 
ATOM     26  C   UNL     1      -3.782   3.720  25.805  0.00  0.00    +0.004 C 
ATOM     27  C   UNL     1      -3.100   4.042  26.139  0.00  0.00    +0.002 C 
ATOM     28  C   UNL     1      -3.632   4.502  26.570  0.00  0.00    +0.000 C 
ATOM     29  C   UNL     1      -2.529   4.460  26.563  0.00  0.00    +0.000 C 
ATOM     30  C   UNL     1      -2.449   3.670  25.796  0.00  0.00    +0.022 C 
ATOM     31  C   UNL     1      -2.729   3.118  25.250  0.00  0.00    +0.096 C 
ENDROOT
BRANCH  31  32
ATOM     32  N   UNL     1      -2.265   2.622  24.781  0.00  0.00    -0.203 NA
ATOM     33  C   UNL     1      -1.552   2.896  24.470  0.00  0.00    +0.266 C 
ATOM     34  O   UNL     1      -1.089   2.400  24.002  0.00  0.00    -0.268 OA
BRANCH  33  35
ATOM     35  C   UNL     1      -1.302   3.666  24.629  0.00  0.00    +0.074 A 
ATOM     36  C   UNL     1      -1.543   4.287  24.141  0.00  0.00    +0.008 A 
ATOM     37  C   UNL     1      -1.293   5.057  24.299  0.00  0.00    +0.021 A 
ATOM     38  C   UNL     1      -0.802   5.207  24.945  0.00  0.00    +0.099 A 
ATOM     39  N   UNL     1      -0.560   4.586  25.432  0.00  0.00    -0.242 NA
ATOM     40  C   UNL     1      -0.810   3.816  25.274  0.00  0.00    +0.103 A 
ENDBRANCH  33  35
ENDBRANCH  31  32
BRANCH  19  18
ATOM     18  C   UNL     1      -3.242   2.597  24.728  0.00  0.00    +0.011 C 
BRANCH  18  17
ATOM     17  C   UNL     1      -3.512   1.817  24.740  0.00  0.00    +0.085 C 
BRANCH  17  15
ATOM      9  N   UNL     1      -3.451  -1.110  24.213  0.00  0.00    -0.302 N 
ATOM     10  C   UNL     1      -3.482  -0.652  24.899  0.00  0.00    +0.112 C 
ATOM     11  C   UNL     1      -3.492   0.171  24.845  0.00  0.00    +0.115 C 
ATOM     12  N   UNL     1      -3.470   0.537  24.107  0.00  0.00    -0.276 N 
ATOM     13  C   UNL     1      -3.439   0.080  23.420  0.00  0.00    +0.115 C 
ATOM     14  C   UNL     1      -3.429  -0.744  23.474  0.00  0.00    +0.112 C 
ATOM     15  C   UNL     1      -3.480   1.361  24.054  0.00  0.00    +0.226 C 
ATOM     16  O   UNL     1      -3.459   1.726  23.314  0.00  0.00    -0.275 OA
BRANCH   9   8
ATOM      3  C   UNL     1      -2.739  -2.326  24.452  0.00  0.00    +0.152 A 
ATOM      4  C   UNL     1      -2.730  -3.149  24.504  0.00  0.00    +0.038 A 
ATOM      5  C   UNL     1      -3.422  -3.579  24.372  0.00  0.00    +0.003 A 
ATOM      6  C   UNL     1      -4.123  -3.185  24.186  0.00  0.00    +0.001 A 
ATOM      7  C   UNL     1      -4.132  -2.363  24.134  0.00  0.00    +0.018 A 
ATOM      8  C   UNL     1      -3.441  -1.933  24.266  0.00  0.00    +0.082 A 
BRANCH   3   2
ATOM      1  C   UNL     1      -1.340  -2.291  24.740  0.00  0.00    +0.253 C 
ATOM      2  O   UNL     1      -2.048  -1.896  24.584  0.00  0.00    -0.470 OA
ENDBRANCH   3   2
ENDBRANCH   9   8
ENDBRANCH  17  15
ENDBRANCH  18  17
ENDBRANCH  19  18
TORSDOF 7
ENDMDL
MODEL 2
REMARK VINA RESULT:      -9.3      1.530      6.119
REMARK  Name = 
REMARK  7 active torsions:
REMARK  status: ('A' for Active; 'I' for Inactive)
REMARK    1  A    between atoms: O_2  and  C_3
REMARK    2  A    between atoms: C_8  and  N_9
REMARK    3  A    between atoms: C_15  and  C_17
REMARK    4  A    between atoms: C_17  and  C_18
REMARK    5  A    between atoms: C_18  and  C_19
REMARK    6  A    between atoms: C_31  and  N_32
REMARK    7  A    between atoms: C_33  and  C_35
REMARK                            x       y       z     vdW  Elec       q    Type
REMARK                         _______ _______ _______ _____ _____    ______ ____
ROOT
ATOM     19  C   UNL     1      -1.380  -0.668  24.429  0.00  0.00    +0.019 C 
ATOM     20  C   UNL     1      -1.184  -0.030  23.943  0.00  0.00    +0.004 C 
ATOM     21  C   UNL     1      -0.439   0.009  23.593  0.00  0.00    +0.030 C 
ATOM     22  C   UNL     1       0.112  -0.590  23.728  0.00  0.00    +0.127 C 
ATOM     23  C   UNL     1       0.552  -0.101  23.229  0.00  0.00    +0.033 C 
ATOM     24  O   UNL     1       0.816  -1.019  23.689  0.00  0.00    -0.226 OA
ATOM     25  C   UNL     1      -0.082  -1.228  24.213  0.00  0.00    +0.030 C 
ATOM     26  C   UNL     1      -0.829  -1.267  24.564  0.00  0.00    +0.004 C 
ATOM     27  C   UNL     1      -1.175  -1.824  25.064  0.00  0.00    +0.002 C 
ATOM     28  C   UNL     1      -0.451  -2.212  24.991  0.00  0.00    +0.000 C 
ATOM     29  C   UNL     1      -1.370  -2.462  25.550  0.00  0.00    +0.000 C 
ATOM     30  C   UNL     1      -1.939  -1.569  25.239  0.00  0.00    +0.022 C 
ATOM     31  C   UNL     1      -2.066  -0.854  24.846  0.00  0.00    +0.096 C 
ENDROOT
BRANCH  31  32
ATOM     32  N   UNL     1      -2.758  -0.406  24.867  0.00  0.00    -0.203 NA
ATOM     33  C   UNL     1      -3.493  -0.777  24.821  0.00  0.00    +0.266 C 
ATOM     34  O   UNL     1      -4.184  -0.329  24.841  0.00  0.00    -0.268 OA
BRANCH  33  35
ATOM     35  C   UNL     1      -3.536  -1.598  24.753  0.00  0.00    +0.074 A 
ATOM     36  C   UNL     1      -3.595  -1.949  24.008  0.00  0.00    +0.008 A 
ATOM     37  C   UNL     1      -3.638  -2.770  23.941  0.00  0.00    +0.021 A 
ATOM     38  C   UNL     1      -3.622  -3.241  24.618  0.00  0.00    +0.099 A 
ATOM     39  N   UNL     1      -3.564  -2.891  25.363  0.00  0.00    -0.242 NA
ATOM     40  C   UNL     1      -3.521  -2.070  25.430  0.00  0.00    +0.103 A 
ENDBRANCH  33  35
ENDBRANCH  31  32
BRANCH  19  18
ATOM     18  C   UNL     1      -1.984  -0.113  24.345  0.00  0.00    +0.011 C 
BRANCH  18  17
ATOM     17  C   UNL     1      -1.838   0.683  24.506  0.00  0.00    +0.085 C 
BRANCH  17  15
ATOM      9  N   UNL     1      -2.055   3.637  24.779  0.00  0.00    -0.302 N 
ATOM     10  C   UNL     1      -1.654   3.052  25.199  0.00  0.00    +0.112 C 
ATOM     11  C   UNL     1      -1.716   2.262  24.968  0.00  0.00    +0.115 C 
ATOM     12  N   UNL     1      -2.178   2.058  24.316  0.00  0.00    -0.276 N 
ATOM     13  C   UNL     1      -2.579   2.643  23.895  0.00  0.00    +0.115 C 
ATOM     14  C   UNL     1      -2.517   3.433  24.126  0.00  0.00    +0.112 C 
ATOM     15  C   UNL     1      -2.239   1.268  24.085  0.00  0.00    +0.226 C 
ATOM     16  O   UNL     1      -2.701   1.065  23.433  0.00  0.00    -0.275 OA
BRANCH   9   8
ATOM      3  C   UNL     1      -2.522   4.737  25.563  0.00  0.00    +0.152 A 
ATOM      4  C   UNL     1      -2.460   5.526  25.794  0.00  0.00    +0.038 A 
ATOM      5  C   UNL     1      -1.871   6.006  25.472  0.00  0.00    +0.003 A 
ATOM      6  C   UNL     1      -1.343   5.695  24.919  0.00  0.00    +0.001 A 
ATOM      7  C   UNL     1      -1.405   4.906  24.688  0.00  0.00    +0.018 A 
ATOM      8  C   UNL     1      -1.994   4.426  25.010  0.00  0.00    +0.082 A 
BRANCH   3   2
ATOM      1  C   UNL     1      -3.577   4.538  26.505  0.00  0.00    +0.253 C 
ATOM      2  O   UNL     1      -3.111   4.257  25.885  0.00  0.00    -0.470 OA
ENDBRANCH   3   2
ENDBRANCH   9   8
ENDBRANCH  17  15
ENDBRANCH  18  17
ENDBRANCH  19  18
TORSDOF 7
ENDMDL
MODEL 3
REMARK VINA RESULT:      -9.2      1.023      2.542
REMARK  Name = 
REMARK  7 active torsions:
REMARK  status: ('A' for Active; 'I' for Inactive)
REMARK    1  A    between atoms: O_2  and  C_3
REMARK    2  A    between atoms: C_8  and  N_9
REMARK    3  A    between atoms: C_15  and  C_17
REMARK    4  A    between atoms: C_17  and  C_18
REMARK    5  A    between atoms: C_18  and  C_19
REMARK    6  A    between atoms: C_31  and  N_32
REMARK    7  A    between atoms: C_33  and  C_35
REMARK                            x       y       z     vdW  Elec       q    Type
REMARK                         _______ _______ _______ _____ _____    ______ ____
ROOT
ATOM     19  C   UNL     1      -2.754   3.209  25.087  0.00  0.00    +0.019 C 
ATOM     20  C   UNL     1      -2.277   2.874  24.503  0.00  0.00    +0.004 C 
ATOM     21  C   UNL     1      -1.506   3.146  24.394  0.00  0.00    +0.030 C 
ATOM     22  C   UNL     1      -1.212   3.753  24.869  0.00  0.00    +0.127 C 
ATOM     23  C   UNL     1      -0.553   3.612  24.392  0.00  0.00    +0.033 C 
ATOM     24  O   UNL     1      -0.687   4.311  25.179  0.00  0.00    -0.226 OA
ATOM     25  C   UNL     1      -1.688   4.088  25.453  0.00  0.00    +0.030 C 
ATOM     26  C   UNL     1      -2.460   3.815  25.562  0.00  0.00    +0.004 C 
ATOM     27  C   UNL     1      -3.053   4.037  26.089  0.00  0.00    +0.002 C 
ATOM     28  C   UNL     1      -2.491   4.577  26.361  0.00  0.00    +0.000 C 
ATOM     29  C   UNL     1      -3.530   4.373  26.674  0.00  0.00    +0.000 C 
ATOM     30  C   UNL     1      -3.715   3.568  25.940  0.00  0.00    +0.022 C 
ATOM     31  C   UNL     1      -3.530   3.056  25.320  0.00  0.00    +0.096 C 
ENDROOT
BRANCH  31  32
ATOM     32  N   UNL     1      -4.033   2.491  24.992  0.00  0.00    -0.203 NA
ATOM     33  C   UNL     1      -4.836   2.655  24.902  0.00  0.00    +0.266 C 
ATOM     34  O   UNL     1      -5.339   2.089  24.575  0.00  0.00    -0.268 OA
BRANCH  33  35
ATOM     35  C   UNL     1      -5.137   3.385  25.141  0.00  0.00    +0.074 A 
ATOM     36  C   UNL     1      -5.102   4.032  24.630  0.00  0.00    +0.008 A 
ATOM     37  C   UNL     1      -5.403   4.762  24.869  0.00  0.00    +0.021 A 
ATOM     38  C   UNL     1      -5.738   4.846  25.618  0.00  0.00    +0.099 A 
ATOM     39  N   UNL     1      -5.773   4.199  26.129  0.00  0.00    -0.242 NA
ATOM     40  C   UNL     1      -5.472   3.469  25.890  0.00  0.00    +0.103 A 
ENDBRANCH  33  35
ENDBRANCH  31  32
BRANCH  19  18
ATOM     18  C   UNL     1      -3.122   2.610  24.656  0.00  0.00    +0.011 C 
BRANCH  18  17
ATOM     17  C   UNL     1      -2.761   1.871  24.585  0.00  0.00    +0.085 C 
BRANCH  17  15
ATOM      9  N   UNL     1      -3.076  -1.067  24.248  0.00  0.00    -0.302 N 
ATOM     10  C   UNL     1      -2.898  -0.581  24.889  0.00  0.00    +0.112 C 
ATOM     11  C   UNL     1      -2.852   0.236  24.788  0.00  0.00    +0.115 C 
ATOM     12  N   UNL     1      -2.985   0.568  24.045  0.00  0.00    -0.276 N 
ATOM     13  C   UNL     1      -3.163   0.082  23.401  0.00  0.00    +0.115 C 
ATOM     14  C   UNL     1      -3.209  -0.736  23.503  0.00  0.00    +0.112 C 
ATOM     15  C   UNL     1      -2.939   1.386  23.943  0.00  0.00    +0.226 C 
ATOM     16  O   UNL     1      -3.071   1.716  23.199  0.00  0.00    -0.275 OA
BRANCH   9   8
ATOM      3  C   UNL     1      -2.435  -2.325  24.471  0.00  0.00    +0.152 A 
ATOM      4  C   UNL     1      -2.481  -3.142  24.572  0.00  0.00    +0.038 A 
ATOM      5  C   UNL     1      -3.214  -3.520  24.551  0.00  0.00    +0.003 A 
ATOM      6  C   UNL     1      -3.902  -3.079  24.429  0.00  0.00    +0.001 A 
ATOM      7  C   UNL     1      -3.855  -2.263  24.328  0.00  0.00    +0.018 A 
ATOM      8  C   UNL     1      -3.122  -1.885  24.349  0.00  0.00    +0.082 A 
BRANCH   3   2
ATOM      1  C   UNL     1      -1.015  -2.387  24.620  0.00  0.00    +0.253 C 
ATOM      2  O   UNL     1      -1.702  -1.947  24.492  0.00  0.00    -0.470 OA
ENDBRANCH   3   2
ENDBRANCH   9   8
ENDBRANCH  17  15
ENDBRANCH  18  17
ENDBRANCH  19  18
TORSDOF 7
ENDMDL
MODEL 4
REMARK VINA RESULT:      -8.9      2.482      4.046
REMARK  Name = 
REMARK  7 active torsions:
REMARK  status: ('A' for Active; 'I' for Inactive)
REMARK    1  A    between atoms: O_2  and  C_3
REMARK    2  A    between atoms: C_8  and  N_9
REMARK    3  A    between atoms: C_15  and  C_17
REMARK    4  A    between atoms: C_17  and  C_18
REMARK    5  A    between atoms: C_18  and  C_19
REMARK    6  A    between atoms: C_31  and  N_32
REMARK    7  A    between atoms: C_33  and  C_35
REMARK                            x       y       z     vdW  Elec       q    Type
REMARK                         _______ _______ _______ _____ _____    ______ ____
ROOT
ATOM     19  C   UNL     1      -2.889   2.804  24.933  0.00  0.00    +0.019 C 
ATOM     20  C   UNL     1      -2.121   2.654  25.195  0.00  0.00    +0.004 C 
ATOM     21  C   UNL     1      -1.654   3.271  25.481  0.00  0.00    +0.030 C 
ATOM     22  C   UNL     1      -1.955   4.039  25.504  0.00  0.00    +0.127 C 
ATOM     23  C   UNL     1      -1.201   4.171  25.812  0.00  0.00    +0.033 C 
ATOM     24  O   UNL     1      -1.994   4.853  25.635  0.00  0.00    -0.226 OA
ATOM     25  C   UNL     1      -2.723   4.190  25.243  0.00  0.00    +0.030 C 
ATOM     26  C   UNL     1      -3.190   3.572  24.957  0.00  0.00    +0.004 C 
ATOM     27  C   UNL     1      -3.960   3.553  24.663  0.00  0.00    +0.002 C 
ATOM     28  C   UNL     1      -3.945   4.364  24.813  0.00  0.00    +0.000 C 
ATOM     29  C   UNL     1      -4.728   3.704  24.401  0.00  0.00    +0.000 C 
ATOM     30  C   UNL     1      -4.136   2.774  24.458  0.00  0.00    +0.022 C 
ATOM     31  C   UNL     1      -3.473   2.310  24.625  0.00  0.00    +0.096 C 
ENDROOT
BRANCH  31  32
ATOM     32  N   UNL     1      -3.407   1.497  24.505  0.00  0.00    -0.203 NA
ATOM     33  C   UNL     1      -4.051   1.004  24.658  0.00  0.00    +0.266 C 
ATOM     34  O   UNL     1      -3.985   0.191  24.537  0.00  0.00    -0.268 OA
BRANCH  33  35
ATOM     35  C   UNL     1      -4.760   1.324  24.931  0.00  0.00    +0.074 A 
ATOM     36  C   UNL     1      -4.893   1.401  25.742  0.00  0.00    +0.008 A 
ATOM     37  C   UNL     1      -5.602   1.721  26.015  0.00  0.00    +0.021 A 
ATOM     38  C   UNL     1      -6.179   1.965  25.479  0.00  0.00    +0.099 A 
ATOM     39  N   UNL     1      -6.046   1.888  24.668  0.00  0.00    -0.242 NA
ATOM     40  C   UNL     1      -5.337   1.568  24.394  0.00  0.00    +0.103 A 
ENDBRANCH  33  35
ENDBRANCH  31  32
BRANCH  19  18
ATOM     18  C   UNL     1      -2.664   2.013  24.876  0.00  0.00    +0.011 C 
BRANCH  18  17
ATOM     17  C   UNL     1      -1.986   1.805  24.454  0.00  0.00    +0.085 C 
BRANCH  17  15
ATOM      9  N   UNL     1       0.304   0.337  23.250  0.00  0.00    -0.302 N 
ATOM     10  C   UNL     1      -0.144   0.989  23.016  0.00  0.00    +0.112 C 
ATOM     11  C   UNL     1      -0.758   1.261  23.496  0.00  0.00    +0.115 C 
ATOM     12  N   UNL     1      -0.924   0.881  24.209  0.00  0.00    -0.276 N 
ATOM     13  C   UNL     1      -0.477   0.228  24.443  0.00  0.00    +0.115 C 
ATOM     14  C   UNL     1       0.138  -0.044  23.963  0.00  0.00    +0.112 C 
ATOM     15  C   UNL     1      -1.538   1.153  24.688  0.00  0.00    +0.226 C 
ATOM     16  O   UNL     1      -1.704   0.773  25.401  0.00  0.00    -0.275 OA
BRANCH   9   8
ATOM      3  C   UNL     1       1.682   0.360  22.871  0.00  0.00    +0.152 A 
ATOM      4  C   UNL     1       2.294   0.088  22.392  0.00  0.00    +0.038 A 
ATOM      5  C   UNL     1       2.145  -0.480  21.812  0.00  0.00    +0.003 A 
ATOM      6  C   UNL     1       1.381  -0.775  21.712  0.00  0.00    +0.001 A 
ATOM      7  C   UNL     1       0.768  -0.502  22.191  0.00  0.00    +0.018 A 
ATOM      8  C   UNL     1       0.917   0.065  22.771  0.00  0.00    +0.082 A 
BRANCH   3   2
ATOM      1  C   UNL     1       2.577   1.278  23.502  0.00  0.00    +0.253 C 
ATOM      2  O   UNL     1       1.831   0.928  23.451  0.00  0.00    -0.470 OA
ENDBRANCH   3   2
ENDBRANCH   9   8
ENDBRANCH  17  15
ENDBRANCH  18  17
ENDBRANCH  19  18
TORSDOF 7
ENDMDL
MODEL 5
REMARK VINA RESULT:      -8.7      2.665      4.371
REMARK  Name = 
REMARK  7 active torsions:
REMARK  status: ('A' for Active; 'I' for Inactive)
REMARK    1  A    between atoms: O_2  and  C_3
REMARK    2  A    between atoms: C_8  and  N_9
REMARK    3  A    between atoms: C_15  and  C_17
REMARK    4  A    between atoms: C_17  and  C_18
REMARK    5  A    between atoms: C_18  and  C_19
REMARK    6  A    between atoms: C_31  and  N_32
REMARK    7  A    between atoms: C_33  and  C_35
REMARK                            x       y       z     vdW  Elec       q    Type
REMARK                         _______ _______ _______ _____ _____    ______ ____
ROOT
ATOM     19  C   UNL     1      -3.008   0.889  24.870  0.00  0.00    +0.019 C 
ATOM     20  C   UNL     1      -2.349   0.487  25.161  0.00  0.00    +0.004 C 
ATOM     21  C   UNL     1      -2.426  -0.285  25.440  0.00  0.00    +0.030 C 
ATOM     22  C   UNL     1      -3.163  -0.656  25.429  0.00  0.00    +0.127 C 
ATOM     23  C   UNL     1      -2.704  -1.259  25.756  0.00  0.00    +0.033 C 
ATOM     24  O   UNL     1      -3.741  -1.237  25.531  0.00  0.00    -0.226 OA
ATOM     25  C   UNL     1      -3.823  -0.255  25.138  0.00  0.00    +0.030 C 
ATOM     26  C   UNL     1      -3.745   0.518  24.858  0.00  0.00    +0.004 C 
ATOM     27  C   UNL     1      -4.292   1.047  24.541  0.00  0.00    +0.002 C 
ATOM     28  C   UNL     1      -4.829   0.433  24.665  0.00  0.00    +0.000 C 
ATOM     29  C   UNL     1      -4.952   1.449  24.250  0.00  0.00    +0.000 C 
ATOM     30  C   UNL     1      -3.894   1.746  24.357  0.00  0.00    +0.022 C 
ATOM     31  C   UNL     1      -3.100   1.647  24.560  0.00  0.00    +0.096 C 
ENDROOT
BRANCH  31  32
ATOM     32  N   UNL     1      -2.503   2.209  24.469  0.00  0.00    -0.203 NA
ATOM     33  C   UNL     1      -2.658   3.005  24.626  0.00  0.00    +0.266 C 
ATOM     34  O   UNL     1      -2.061   3.566  24.535  0.00  0.00    -0.268 OA
BRANCH  33  35
ATOM     35  C   UNL     1      -3.409   3.238  24.874  0.00  0.00    +0.074 A 
ATOM     36  C   UNL     1      -3.590   3.258  25.679  0.00  0.00    +0.008 A 
ATOM     37  C   UNL     1      -4.341   3.491  25.927  0.00  0.00    +0.021 A 
ATOM     38  C   UNL     1      -4.912   3.704  25.371  0.00  0.00    +0.099 A 
ATOM     39  N   UNL     1      -4.731   3.683  24.566  0.00  0.00    -0.242 NA
ATOM     40  C   UNL     1      -3.980   3.450  24.318  0.00  0.00    +0.103 A 
ENDBRANCH  33  35
ENDBRANCH  31  32
BRANCH  19  18
ATOM     18  C   UNL     1      -2.311   1.328  24.846  0.00  0.00    +0.011 C 
BRANCH  18  17
ATOM     17  C   UNL     1      -1.616   0.985  24.562  0.00  0.00    +0.085 C 
BRANCH  17  15
ATOM      9  N   UNL     1       1.156   0.787  23.502  0.00  0.00    -0.302 N 
ATOM     10  C   UNL     1       0.424   0.511  23.243  0.00  0.00    +0.112 C 
ATOM     11  C   UNL     1      -0.257   0.669  23.683  0.00  0.00    +0.115 C 
ATOM     12  N   UNL     1      -0.204   1.103  24.382  0.00  0.00    -0.276 N 
ATOM     13  C   UNL     1       0.529   1.380  24.642  0.00  0.00    +0.115 C 
ATOM     14  C   UNL     1       1.209   1.222  24.202  0.00  0.00    +0.112 C 
ATOM     15  C   UNL     1      -0.884   1.262  24.822  0.00  0.00    +0.226 C 
ATOM     16  O   UNL     1      -0.831   1.696  25.521  0.00  0.00    -0.275 OA
BRANCH   9   8
ATOM      3  C   UNL     1       1.808   0.091  22.438  0.00  0.00    +0.152 A 
ATOM      4  C   UNL     1       2.488  -0.066  21.999  0.00  0.00    +0.038 A 
ATOM      5  C   UNL     1       3.196   0.314  22.184  0.00  0.00    +0.003 A 
ATOM      6  C   UNL     1       3.224   0.853  22.809  0.00  0.00    +0.001 A 
ATOM      7  C   UNL     1       2.544   1.010  23.248  0.00  0.00    +0.018 A 
ATOM      8  C   UNL     1       1.836   0.630  23.063  0.00  0.00    +0.082 A 
BRANCH   3   2
ATOM      1  C   UNL     1       1.040  -0.736  21.561  0.00  0.00    +0.253 C 
ATOM      2  O   UNL     1       1.100  -0.289  22.253  0.00  0.00    -0.470 OA
ENDBRANCH   3   2
ENDBRANCH   9   8
ENDBRANCH  17  15
ENDBRANCH  18  17
ENDBRANCH  19  18
TORSDOF 7
ENDMDL
MODEL 6
REMARK VINA RESULT:      -8.4      1.693      5.146
REMARK  Name = 
REMARK  7 active torsions:
REMARK  status: ('A' for Active; 'I' for Inactive)
REMARK    1  A    between atoms: O_2  and  C_3
REMARK    2  A    between atoms: C_8  and  N_9
REMARK    3  A    between atoms: C_15  and  C_17
REMARK    4  A    between atoms: C_17  and  C_18
REMARK    5  A    between atoms: C_18  and  C_19
REMARK    6  A    between atoms: C_31  and  N_32
REMARK    7  A    between atoms: C_33  and  C_35
REMARK                            x       y       z     vdW  Elec       q    Type
REMARK                         _______ _______ _______ _____ _____    ______ ____
ROOT
ATOM     19  C   UNL     1      -2.116  -0.957  24.434  0.00  0.00    +0.019 C 
ATOM     20  C   UNL     1      -2.892  -0.906  24.157  0.00  0.00    +0.004 C 
ATOM     21  C   UNL     1      -3.376  -1.573  24.162  0.00  0.00    +0.030 C 
ATOM     22  C   UNL     1      -3.085  -2.292  24.443  0.00  0.00    +0.127 C 
ATOM     23  C   UNL     1      -3.853  -2.518  24.239  0.00  0.00    +0.033 C 
ATOM     24  O   UNL     1      -3.061  -3.090  24.653  0.00  0.00    -0.226 OA
ATOM     25  C   UNL     1      -2.310  -2.344  24.719  0.00  0.00    +0.030 C 
ATOM     26  C   UNL     1      -1.825  -1.676  24.714  0.00  0.00    +0.004 C 
ATOM     27  C   UNL     1      -1.043  -1.560  24.950  0.00  0.00    +0.002 C 
ATOM     28  C   UNL     1      -1.073  -2.361  25.143  0.00  0.00    +0.000 C 
ATOM     29  C   UNL     1      -0.267  -1.611  25.227  0.00  0.00    +0.000 C 
ATOM     30  C   UNL     1      -0.851  -0.769  24.816  0.00  0.00    +0.022 C 
ATOM     31  C   UNL     1      -1.514  -0.396  24.496  0.00  0.00    +0.096 C 
ENDROOT
BRANCH  31  32
ATOM     32  N   UNL     1      -1.566   0.397  24.278  0.00  0.00    -0.203 NA
ATOM     33  C   UNL     1      -0.943   0.755  23.871  0.00  0.00    +0.266 C 
ATOM     34  O   UNL     1      -0.995   1.548  23.653  0.00  0.00    -0.268 OA
BRANCH  33  35
ATOM     35  C   UNL     1      -0.269   0.319  23.684  0.00  0.00    +0.074 A 
ATOM     36  C   UNL     1      -0.222  -0.078  22.962  0.00  0.00    +0.008 A 
ATOM     37  C   UNL     1       0.453  -0.514  22.774  0.00  0.00    +0.021 A 
ATOM     38  C   UNL     1       1.081  -0.554  23.308  0.00  0.00    +0.099 A 
ATOM     39  N   UNL     1       1.034  -0.157  24.030  0.00  0.00    -0.242 NA
ATOM     40  C   UNL     1       0.359   0.280  24.218  0.00  0.00    +0.103 A 
ENDBRANCH  33  35
ENDBRANCH  31  32
BRANCH  19  18
ATOM     18  C   UNL     1      -2.329  -0.205  24.171  0.00  0.00    +0.011 C 
BRANCH  18  17
ATOM     17  C   UNL     1      -3.061   0.114  24.381  0.00  0.00    +0.085 C 
BRANCH  17  15
ATOM      9  N   UNL     1      -4.628   2.583  24.925  0.00  0.00    -0.302 N 
ATOM     10  C   UNL     1      -4.273   2.014  25.404  0.00  0.00    +0.112 C 
ATOM     11  C   UNL     1      -3.869   1.380  25.063  0.00  0.00    +0.115 C 
ATOM     12  N   UNL     1      -3.820   1.316  24.243  0.00  0.00    -0.276 N 
ATOM     13  C   UNL     1      -4.176   1.885  23.762  0.00  0.00    +0.115 C 
ATOM     14  C   UNL     1      -4.580   2.519  24.103  0.00  0.00    +0.112 C 
ATOM     15  C   UNL     1      -3.416   0.682  23.901  0.00  0.00    +0.226 C 
ATOM     16  O   UNL     1      -3.368   0.619  23.080  0.00  0.00    -0.275 OA
BRANCH   9   8
ATOM      3  C   UNL     1      -4.617   3.885  25.514  0.00  0.00    +0.152 A 
ATOM      4  C   UNL     1      -5.022   4.517  25.855  0.00  0.00    +0.038 A 
ATOM      5  C   UNL     1      -5.841   4.483  25.947  0.00  0.00    +0.003 A 
ATOM      6  C   UNL     1      -6.256   3.814  25.698  0.00  0.00    +0.001 A 
ATOM      7  C   UNL     1      -5.851   3.181  25.358  0.00  0.00    +0.018 A 
ATOM      8  C   UNL     1      -5.032   3.216  25.265  0.00  0.00    +0.082 A 
BRANCH   3   2
ATOM      1  C   UNL     1      -3.368   4.526  25.781  0.00  0.00    +0.253 C 
ATOM      2  O   UNL     1      -3.798   3.919  25.422  0.00  0.00    -0.470 OA
ENDBRANCH   3   2
ENDBRANCH   9   8
ENDBRANCH  17  15
ENDBRANCH  18  17
ENDBRANCH  19  18
TORSDOF 7
ENDMDL
