MODEL 1
REMARK VINA RESULT:     -10.0      0.000      0.000
REMARK  Name = 
REMARK  8 active torsions:
REMARK  status: ('A' for Active; 'I' for Inactive)
REMARK    1  A    between atoms: O_2  and  C_3
REMARK    2  A    between atoms: C_3  and  C_4
REMARK    3  A    between atoms: C_4  and  N_5
REMARK    4  A    between atoms: N_5  and  C_6
REMARK    5  A    between atoms: C_9  and  C_12
REMARK    6  A    between atoms: C_15  and  C_17
REMARK    7  A    between atoms: N_21  and  C_22
REMARK    8  A    between atoms: C_22  and  C_23
REMARK                            x       y       z     vdW  Elec       q    Type
REMARK                         _______ _______ _______ _____ _____    ______ ____
ROOT
ATOM     12  C   UNL     1      -0.745   0.015  24.633  0.00  0.00    +0.205 A 
ATOM     13  N   UNL     1      -0.779   0.337  25.391  0.00  0.00    -0.056 NA
ATOM     14  O   UNL     1      -1.522   0.167  25.708  0.00  0.00    -0.336 OA
ATOM     15  C   UNL     1      -1.947  -0.261  25.145  0.00  0.00    +0.251 A 
ATOM     16  N   UNL     1      -1.467  -0.355  24.481  0.00  0.00    -0.190 NA
ENDROOT
BRANCH  12   9
ATOM      6  C   UNL     1       1.184   0.135  23.088  0.00  0.00    +0.148 A 
ATOM      7  C   UNL     1       0.841   0.828  23.374  0.00  0.00    +0.036 A 
ATOM      8  C   UNL     1       0.199   0.788  23.889  0.00  0.00    +0.008 A 
ATOM      9  C   UNL     1      -0.102   0.056  24.118  0.00  0.00    +0.058 A 
ATOM     10  C   UNL     1       0.240  -0.639  23.831  0.00  0.00    +0.103 A 
ATOM     11  N   UNL     1       0.884  -0.599  23.316  0.00  0.00    -0.228 NA
BRANCH   6   5
ATOM      5  N   UNL     1       1.827   0.174  22.572  0.00  0.00    -0.218 NA
BRANCH   5   4
ATOM      4  C   UNL     1       2.562   0.429  22.847  0.00  0.00    +0.146 C 
BRANCH   4   3
ATOM      3  C   UNL     1       3.233   0.337  22.378  0.00  0.00    +0.166 C 
BRANCH   3   2
ATOM      1  C   UNL     1       4.579   0.443  22.847  0.00  0.00    +0.174 C 
ATOM      2  O   UNL     1       3.905   0.792  22.524  0.00  0.00    -0.349 OA
ENDBRANCH   3   2
ENDBRANCH   4   3
ENDBRANCH   5   4
ENDBRANCH   6   5
ENDBRANCH  12   9
BRANCH  15  17
ATOM     17  C   UNL     1      -2.717  -0.545  25.231  0.00  0.00    +0.138 C 
ATOM     18  C   UNL     1      -2.934  -1.253  25.595  0.00  0.00    +0.027 C 
ATOM     19  C   UNL     1      -3.756  -1.316  25.557  0.00  0.00    +0.019 C 
ATOM     20  C   UNL     1      -4.046  -0.647  25.171  0.00  0.00    +0.073 C 
ATOM     21  N   UNL     1      -3.404  -0.171  24.970  0.00  0.00    -0.260 NA
BRANCH  21  22
ATOM     22  C   UNL     1      -3.442   0.553  24.576  0.00  0.00    +0.138 C 
BRANCH  22  23
ATOM     23  C   UNL     1      -4.011   1.110  24.791  0.00  0.00    +0.139 A 
ATOM     24  C   UNL     1      -4.822   1.055  24.650  0.00  0.00    +0.037 A 
ATOM     25  C   UNL     1      -5.181   1.731  24.956  0.00  0.00    +0.037 A 
ATOM     26  C   UNL     1      -4.592   2.205  25.286  0.00  0.00    +0.145 A 
ATOM     27  O   UNL     1      -3.869   1.822  25.184  0.00  0.00    -0.456 OA
ATOM     28  C   UNL     1      -4.791   2.924  25.638  0.00  0.00    +0.037 A 
ATOM     29  C   UNL     1      -5.578   3.170  25.659  0.00  0.00    +0.003 A 
ATOM     30  C   UNL     1      -6.167   2.696  25.328  0.00  0.00    +0.000 A 
ATOM     31  C   UNL     1      -5.969   1.976  24.977  0.00  0.00    +0.003 A 
ENDBRANCH  22  23
ENDBRANCH  21  22
ENDBRANCH  15  17
TORSDOF 8
ENDMDL
MODEL 2
REMARK VINA RESULT:      -9.5      2.913      4.125
REMARK  Name = 
REMARK  8 active torsions:
REMARK  status: ('A' for Active; 'I' for Inactive)
REMARK    1  A    between atoms: O_2  and  C_3
REMARK    2  A    between atoms: C_3  and  C_4
REMARK    3  A    between atoms: C_4  and  N_5
REMARK    4  A    between atoms: N_5  and  C_6
REMARK    5  A    between atoms: C_9  and  C_12
REMARK    6  A    between atoms: C_15  and  C_17
REMARK    7  A    between atoms: N_21  and  C_22
REMARK    8  A    between atoms: C_22  and  C_23
REMARK                            x       y       z     vdW  Elec       q    Type
REMARK                         _______ _______ _______ _____ _____    ______ ____
ROOT
ATOM     12  C   UNL     1      -2.067   2.509  25.105  0.00  0.00    +0.205 A 
ATOM     13  N   UNL     1      -2.261   2.907  24.410  0.00  0.00    -0.056 NA
ATOM     14  O   UNL     1      -3.029   2.694  24.198  0.00  0.00    -0.336 OA
ATOM     15  C   UNL     1      -3.311   2.163  24.764  0.00  0.00    +0.251 A 
ATOM     16  N   UNL     1      -2.716   2.049  25.324  0.00  0.00    -0.190 NA
ENDROOT
BRANCH  12   9
ATOM      6  C   UNL     1       0.083   2.664  26.320  0.00  0.00    +0.148 A 
ATOM      7  C   UNL     1      -0.326   3.351  26.115  0.00  0.00    +0.036 A 
ATOM      8  C   UNL     1      -1.042   3.299  25.711  0.00  0.00    +0.008 A 
ATOM      9  C   UNL     1      -1.351   2.561  25.510  0.00  0.00    +0.058 A 
ATOM     10  C   UNL     1      -0.942   1.874  25.715  0.00  0.00    +0.103 A 
ATOM     11  N   UNL     1      -0.224   1.926  26.120  0.00  0.00    -0.228 NA
BRANCH   6   5
ATOM      5  N   UNL     1       0.801   2.716  26.725  0.00  0.00    -0.218 NA
BRANCH   5   4
ATOM      4  C   UNL     1       0.825   2.586  27.539  0.00  0.00    +0.146 C 
BRANCH   4   3
ATOM      3  C   UNL     1       1.531   2.691  27.952  0.00  0.00    +0.166 C 
BRANCH   3   2
ATOM      1  C   UNL     1       2.263   2.626  29.177  0.00  0.00    +0.174 C 
ATOM      2  O   UNL     1       1.545   2.606  28.773  0.00  0.00    -0.349 OA
ENDBRANCH   3   2
ENDBRANCH   4   3
ENDBRANCH   5   4
ENDBRANCH   6   5
ENDBRANCH  12   9
BRANCH  15  17
ATOM     17  C   UNL     1      -4.056   1.809  24.768  0.00  0.00    +0.138 C 
ATOM     18  C   UNL     1      -4.736   2.115  25.122  0.00  0.00    +0.027 C 
ATOM     19  C   UNL     1      -5.352   1.581  24.991  0.00  0.00    +0.019 C 
ATOM     20  C   UNL     1      -5.052   0.946  24.558  0.00  0.00    +0.073 C 
ATOM     21  N   UNL     1      -4.252   1.088  24.420  0.00  0.00    -0.260 NA
BRANCH  21  22
ATOM     22  C   UNL     1      -3.737   0.593  24.006  0.00  0.00    +0.138 C 
BRANCH  22  23
ATOM     23  C   UNL     1      -3.743  -0.220  24.146  0.00  0.00    +0.139 A 
ATOM     24  C   UNL     1      -4.101  -0.792  23.671  0.00  0.00    +0.037 A 
ATOM     25  C   UNL     1      -3.971  -1.528  24.018  0.00  0.00    +0.037 A 
ATOM     26  C   UNL     1      -3.534  -1.413  24.708  0.00  0.00    +0.145 A 
ATOM     27  O   UNL     1      -3.392  -0.604  24.788  0.00  0.00    -0.456 OA
ATOM     28  C   UNL     1      -3.321  -2.059  25.174  0.00  0.00    +0.037 A 
ATOM     29  C   UNL     1      -3.545  -2.821  24.952  0.00  0.00    +0.003 A 
ATOM     30  C   UNL     1      -3.982  -2.936  24.262  0.00  0.00    +0.000 A 
ATOM     31  C   UNL     1      -4.196  -2.291  23.795  0.00  0.00    +0.003 A 
ENDBRANCH  22  23
ENDBRANCH  21  22
ENDBRANCH  15  17
TORSDOF 8
ENDMDL
MODEL 3
REMARK VINA RESULT:      -9.4      2.304      3.994
REMARK  Name = 
REMARK  8 active torsions:
REMARK  status: ('A' for Active; 'I' for Inactive)
REMARK    1  A    between atoms: O_2  and  C_3
REMARK    2  A    between atoms: C_3  and  C_4
REMARK    3  A    between atoms: C_4  and  N_5
REMARK    4  A    between atoms: N_5  and  C_6
REMARK    5  A    between atoms: C_9  and  C_12
REMARK    6  A    between atoms: C_15  and  C_17
REMARK    7  A    between atoms: N_21  and  C_22
REMARK    8  A    between atoms: C_22  and  C_23
REMARK                            x       y       z     vdW  Elec       q    Type
REMARK                         _______ _______ _______ _____ _____    ______ ____
ROOT
ATOM     12  C   UNL     1      -0.488   1.660  25.325  0.00  0.00    +0.205 A 
ATOM     13  N   UNL     1       0.136   1.986  25.755  0.00  0.00    -0.056 NA
ATOM     14  O   UNL     1       0.036   2.805  25.770  0.00  0.00    -0.336 OA
ATOM     15  C   UNL     1      -0.651   2.985  25.349  0.00  0.00    +0.251 A 
ATOM     16  N   UNL     1      -0.974   2.277  25.074  0.00  0.00    -0.190 NA
ENDROOT
BRANCH  12   9
ATOM      6  C   UNL     1      -0.836  -0.747  24.867  0.00  0.00    +0.148 A 
ATOM      7  C   UNL     1      -1.068  -0.427  25.591  0.00  0.00    +0.036 A 
ATOM      8  C   UNL     1      -0.952   0.375  25.744  0.00  0.00    +0.008 A 
ATOM      9  C   UNL     1      -0.604   0.858  25.173  0.00  0.00    +0.058 A 
ATOM     10  C   UNL     1      -0.372   0.538  24.448  0.00  0.00    +0.103 A 
ATOM     11  N   UNL     1      -0.488  -0.265  24.295  0.00  0.00    -0.228 NA
BRANCH   6   5
ATOM      5  N   UNL     1      -0.952  -1.550  24.714  0.00  0.00    -0.218 NA
BRANCH   5   4
ATOM      4  C   UNL     1      -1.669  -1.811  24.403  0.00  0.00    +0.146 C 
BRANCH   4   3
ATOM      3  C   UNL     1      -1.914  -2.589  24.527  0.00  0.00    +0.166 C 
BRANCH   3   2
ATOM      1  C   UNL     1      -3.287  -2.985  24.530  0.00  0.00    +0.174 C 
ATOM      2  O   UNL     1      -2.574  -2.883  24.129  0.00  0.00    -0.349 OA
ENDBRANCH   3   2
ENDBRANCH   4   3
ENDBRANCH   5   4
ENDBRANCH   6   5
ENDBRANCH  12   9
BRANCH  15  17
ATOM     17  C   UNL     1      -0.960   3.740  25.225  0.00  0.00    +0.138 C 
ATOM     18  C   UNL     1      -0.622   4.332  24.760  0.00  0.00    +0.027 C 
ATOM     19  C   UNL     1      -1.114   4.993  24.792  0.00  0.00    +0.019 C 
ATOM     20  C   UNL     1      -1.756   4.809  25.277  0.00  0.00    +0.073 C 
ATOM     21  N   UNL     1      -1.661   4.035  25.544  0.00  0.00    -0.260 NA
BRANCH  21  22
ATOM     22  C   UNL     1      -2.177   3.628  26.043  0.00  0.00    +0.138 C 
BRANCH  22  23
ATOM     23  C   UNL     1      -2.977   3.568  25.851  0.00  0.00    +0.139 A 
ATOM     24  C   UNL     1      -3.578   4.066  26.117  0.00  0.00    +0.037 A 
ATOM     25  C   UNL     1      -4.288   3.806  25.789  0.00  0.00    +0.037 A 
ATOM     26  C   UNL     1      -4.126   3.148  25.319  0.00  0.00    +0.145 A 
ATOM     27  O   UNL     1      -3.316   3.000  25.357  0.00  0.00    -0.456 OA
ATOM     28  C   UNL     1      -4.739   2.767  24.918  0.00  0.00    +0.037 A 
ATOM     29  C   UNL     1      -5.512   3.045  24.986  0.00  0.00    +0.003 A 
ATOM     30  C   UNL     1      -5.674   3.704  25.456  0.00  0.00    +0.000 A 
ATOM     31  C   UNL     1      -5.062   4.085  25.857  0.00  0.00    +0.003 A 
ENDBRANCH  22  23
ENDBRANCH  21  22
ENDBRANCH  15  17
TORSDOF 8
ENDMDL
MODEL 4
REMARK VINA RESULT:      -9.3      1.374      2.794
REMARK  Name = 
REMARK  8 active torsions:
REMARK  status: ('A' for Active; 'I' for Inactive)
REMARK    1  A    between atoms: O_2  and  C_3
REMARK    2  A    between atoms: C_3  and  C_4
REMARK    3  A    between atoms: C_4  and  N_5
REMARK    4  A    between atoms: N_5  and  C_6
REMARK    5  A    between atoms: C_9  and  C_12
REMARK    6  A    between atoms: C_15  and  C_17
REMARK    7  A    between atoms: N_21  and  C_22
REMARK    8  A    between atoms: C_22  and  C_23
REMARK                            x       y       z     vdW  Elec       q    Type
REMARK                         _______ _______ _______ _____ _____    ______ ____
ROOT
ATOM     12  C   UNL     1      -0.466   1.313  24.286  0.00  0.00    +0.205 A 
ATOM     13  N   UNL     1      -0.530   1.649  25.036  0.00  0.00    -0.056 NA
ATOM     14  O   UNL     1      -1.329   1.793  25.185  0.00  0.00    -0.336 OA
ATOM     15  C   UNL     1      -1.759   1.546  24.525  0.00  0.00    +0.251 A 
ATOM     16  N   UNL     1      -1.226   1.250  23.970  0.00  0.00    -0.190 NA
ENDROOT
BRANCH  12   9
ATOM      6  C   UNL     1       1.637   0.622  23.179  0.00  0.00    +0.148 A 
ATOM      7  C   UNL     1       0.984   0.118  23.177  0.00  0.00    +0.036 A 
ATOM      8  C   UNL     1       0.284   0.348  23.546  0.00  0.00    +0.008 A 
ATOM      9  C   UNL     1       0.234   1.082  23.917  0.00  0.00    +0.058 A 
ATOM     10  C   UNL     1       0.887   1.588  23.919  0.00  0.00    +0.103 A 
ATOM     11  N   UNL     1       1.588   1.358  23.550  0.00  0.00    -0.228 NA
BRANCH   6   5
ATOM      5  N   UNL     1       2.338   0.392  22.810  0.00  0.00    -0.218 NA
BRANCH   5   4
ATOM      4  C   UNL     1       3.050   0.757  23.012  0.00  0.00    +0.146 C 
BRANCH   4   3
ATOM      3  C   UNL     1       3.766   0.429  22.767  0.00  0.00    +0.166 C 
BRANCH   3   2
ATOM      1  C   UNL     1       5.113   0.229  23.197  0.00  0.00    +0.174 C 
ATOM      2  O   UNL     1       4.478   0.733  23.051  0.00  0.00    -0.349 OA
ENDBRANCH   3   2
ENDBRANCH   4   3
ENDBRANCH   5   4
ENDBRANCH   6   5
ENDBRANCH  12   9
BRANCH  15  17
ATOM     17  C   UNL     1      -2.578   1.587  24.437  0.00  0.00    +0.138 C 
ATOM     18  C   UNL     1      -2.992   2.170  24.024  0.00  0.00    +0.027 C 
ATOM     19  C   UNL     1      -3.797   1.996  24.078  0.00  0.00    +0.019 C 
ATOM     20  C   UNL     1      -3.880   1.307  24.523  0.00  0.00    +0.073 C 
ATOM     21  N   UNL     1      -3.127   1.055  24.745  0.00  0.00    -0.260 NA
BRANCH  21  22
ATOM     22  C   UNL     1      -2.953   0.385  25.196  0.00  0.00    +0.138 C 
BRANCH  22  23
ATOM     23  C   UNL     1      -3.217  -0.357  24.951  0.00  0.00    +0.139 A 
ATOM     24  C   UNL     1      -3.002  -1.082  25.282  0.00  0.00    +0.037 A 
ATOM     25  C   UNL     1      -3.394  -1.677  24.868  0.00  0.00    +0.037 A 
ATOM     26  C   UNL     1      -3.853  -1.321  24.282  0.00  0.00    +0.145 A 
ATOM     27  O   UNL     1      -3.744  -0.505  24.333  0.00  0.00    -0.456 OA
ATOM     28  C   UNL     1      -4.311  -1.787  23.777  0.00  0.00    +0.037 A 
ATOM     29  C   UNL     1      -4.310  -2.607  23.859  0.00  0.00    +0.003 A 
ATOM     30  C   UNL     1      -3.852  -2.963  24.445  0.00  0.00    +0.000 A 
ATOM     31  C   UNL     1      -3.394  -2.499  24.950  0.00  0.00    +0.003 A 
ENDBRANCH  22  23
ENDBRANCH  21  22
ENDBRANCH  15  17
TORSDOF 8
ENDMDL
MODEL 5
REMARK VINA RESULT:      -9.3      3.013      4.672
REMARK  Name = 
REMARK  8 active torsions:
REMARK  status: ('A' for Active; 'I' for Inactive)
REMARK    1  A    between atoms: O_2  and  C_3
REMARK    2  A    between atoms: C_3  and  C_4
REMARK    3  A    between atoms: C_4  and  N_5
REMARK    4  A    between atoms: N_5  and  C_6
REMARK    5  A    between atoms: C_9  and  C_12
REMARK    6  A    between atoms: C_15  and  C_17
REMARK    7  A    between atoms: N_21  and  C_22
REMARK    8  A    between atoms: C_22  and  C_23
REMARK                            x       y       z     vdW  Elec       q    Type
REMARK                         _______ _______ _______ _____ _____    ______ ____
ROOT
ATOM     12  C   UNL     1      -4.739   0.600  24.824  0.00  0.00    +0.205 A 
ATOM     13  N   UNL     1      -5.472   0.738  24.471  0.00  0.00    -0.056 NA
ATOM     14  O   UNL     1      -5.675   1.526  24.605  0.00  0.00    -0.336 OA
ATOM     15  C   UNL     1      -5.068   1.876  25.041  0.00  0.00    +0.251 A 
ATOM     16  N   UNL     1      -4.490   1.303  25.176  0.00  0.00    -0.190 NA
ENDROOT
BRANCH  12   9
ATOM      6  C   UNL     1      -3.509  -1.547  24.827  0.00  0.00    +0.148 A 
ATOM      7  C   UNL     1      -3.829  -1.256  24.125  0.00  0.00    +0.036 A 
ATOM      8  C   UNL     1      -4.239  -0.541  24.124  0.00  0.00    +0.008 A 
ATOM      9  C   UNL     1      -4.330  -0.116  24.825  0.00  0.00    +0.058 A 
ATOM     10  C   UNL     1      -4.010  -0.407  25.528  0.00  0.00    +0.103 A 
ATOM     11  N   UNL     1      -3.600  -1.123  25.529  0.00  0.00    -0.228 NA
BRANCH   6   5
ATOM      5  N   UNL     1      -3.099  -2.264  24.829  0.00  0.00    -0.218 NA
BRANCH   5   4
ATOM      4  C   UNL     1      -2.335  -2.303  24.520  0.00  0.00    +0.146 C 
BRANCH   4   3
ATOM      3  C   UNL     1      -1.748  -2.719  24.923  0.00  0.00    +0.166 C 
BRANCH   3   2
ATOM      1  C   UNL     1      -0.400  -2.291  25.118  0.00  0.00    +0.174 C 
ATOM      2  O   UNL     1      -0.966  -2.683  24.665  0.00  0.00    -0.349 OA
ENDBRANCH   3   2
ENDBRANCH   4   3
ENDBRANCH   5   4
ENDBRANCH   6   5
ENDBRANCH  12   9
BRANCH  15  17
ATOM     17  C   UNL     1      -5.043   2.660  25.296  0.00  0.00    +0.138 C 
ATOM     18  C   UNL     1      -5.574   3.017  25.817  0.00  0.00    +0.027 C 
ATOM     19  C   UNL     1      -5.341   3.802  25.918  0.00  0.00    +0.019 C 
ATOM     20  C   UNL     1      -4.668   3.930  25.460  0.00  0.00    +0.073 C 
ATOM     21  N   UNL     1      -4.484   3.224  25.076  0.00  0.00    -0.260 NA
BRANCH  21  22
ATOM     22  C   UNL     1      -3.850   3.104  24.561  0.00  0.00    +0.138 C 
BRANCH  22  23
ATOM     23  C   UNL     1      -3.132   3.489  24.692  0.00  0.00    +0.139 A 
ATOM     24  C   UNL     1      -2.411   3.128  24.862  0.00  0.00    +0.037 A 
ATOM     25  C   UNL     1      -1.844   3.719  24.951  0.00  0.00    +0.037 A 
ATOM     26  C   UNL     1      -2.214   4.447  24.836  0.00  0.00    +0.145 A 
ATOM     27  O   UNL     1      -3.011   4.306  24.676  0.00  0.00    -0.456 OA
ATOM     28  C   UNL     1      -1.778   5.145  24.892  0.00  0.00    +0.037 A 
ATOM     29  C   UNL     1      -0.972   5.116  25.063  0.00  0.00    +0.003 A 
ATOM     30  C   UNL     1      -0.601   4.387  25.178  0.00  0.00    +0.000 A 
ATOM     31  C   UNL     1      -1.037   3.689  25.122  0.00  0.00    +0.003 A 
ENDBRANCH  22  23
ENDBRANCH  21  22
ENDBRANCH  15  17
TORSDOF 8
ENDMDL
MODEL 6
REMARK VINA RESULT:      -9.2      1.611      3.141
REMARK  Name = 
REMARK  8 active torsions:
REMARK  status: ('A' for Active; 'I' for Inactive)
REMARK    1  A    between atoms: O_2  and  C_3
REMARK    2  A    between atoms: C_3  and  C_4
REMARK    3  A    between atoms: C_4  and  N_5
REMARK    4  A    between atoms: N_5  and  C_6
REMARK    5  A    between atoms: C_9  and  C_12
REMARK    6  A    between atoms: C_15  and  C_17
REMARK    7  A    between atoms: N_21  and  C_22
REMARK    8  A    between atoms: C_22  and  C_23
REMARK                            x       y       z     vdW  Elec       q    Type
REMARK                         _______ _______ _______ _____ _____    ______ ____
ROOT
ATOM     12  C   UNL     1      -2.003   2.343  24.915  0.00  0.00    +0.205 A 
ATOM     13  N   UNL     1      -2.278   2.937  25.417  0.00  0.00    -0.056 NA
ATOM     14  O   UNL     1      -3.097   2.861  25.477  0.00  0.00    -0.336 OA
ATOM     15  C   UNL     1      -3.329   2.220  25.012  0.00  0.00    +0.251 A 
ATOM     16  N   UNL     1      -2.652   1.900  24.665  0.00  0.00    -0.190 NA
ENDROOT
BRANCH  12   9
ATOM      6  C   UNL     1       0.357   1.962  24.273  0.00  0.00    +0.148 A 
ATOM      7  C   UNL     1       0.089   1.730  25.017  0.00  0.00    +0.036 A 
ATOM      8  C   UNL     1      -0.697   1.856  25.232  0.00  0.00    +0.008 A 
ATOM      9  C   UNL     1      -1.216   2.216  24.702  0.00  0.00    +0.058 A 
ATOM     10  C   UNL     1      -0.949   2.449  23.956  0.00  0.00    +0.103 A 
ATOM     11  N   UNL     1      -0.162   2.322  23.741  0.00  0.00    -0.228 NA
BRANCH   6   5
ATOM      5  N   UNL     1       1.144   1.835  24.058  0.00  0.00    -0.218 NA
BRANCH   5   4
ATOM      4  C   UNL     1       1.343   1.193  23.581  0.00  0.00    +0.146 C 
BRANCH   4   3
ATOM      3  C   UNL     1       2.124   1.082  23.343  0.00  0.00    +0.166 C 
BRANCH   3   2
ATOM      1  C   UNL     1       3.086   0.390  22.544  0.00  0.00    +0.174 C 
ATOM      2  O   UNL     1       2.317   0.462  22.835  0.00  0.00    -0.349 OA
ENDBRANCH   3   2
ENDBRANCH   4   3
ENDBRANCH   5   4
ENDBRANCH   6   5
ENDBRANCH  12   9
BRANCH  15  17
ATOM     17  C   UNL     1      -4.100   1.946  24.912  0.00  0.00    +0.138 C 
ATOM     18  C   UNL     1      -4.724   2.368  24.573  0.00  0.00    +0.027 C 
ATOM     19  C   UNL     1      -5.393   1.885  24.585  0.00  0.00    +0.019 C 
ATOM     20  C   UNL     1      -5.183   1.166  24.931  0.00  0.00    +0.073 C 
ATOM     21  N   UNL     1      -4.385   1.205  25.133  0.00  0.00    -0.260 NA
BRANCH  21  22
ATOM     22  C   UNL     1      -3.947   0.605  25.493  0.00  0.00    +0.138 C 
BRANCH  22  23
ATOM     23  C   UNL     1      -3.948  -0.156  25.174  0.00  0.00    +0.139 A 
ATOM     24  C   UNL     1      -3.633  -0.831  25.528  0.00  0.00    +0.037 A 
ATOM     25  C   UNL     1      -3.755  -1.467  25.018  0.00  0.00    +0.037 A 
ATOM     26  C   UNL     1      -4.146  -1.185  24.348  0.00  0.00    +0.145 A 
ATOM     27  O   UNL     1      -4.265  -0.375  24.444  0.00  0.00    -0.456 OA
ATOM     28  C   UNL     1      -4.342  -1.704  23.737  0.00  0.00    +0.037 A 
ATOM     29  C   UNL     1      -4.148  -2.503  23.795  0.00  0.00    +0.003 A 
ATOM     30  C   UNL     1      -3.758  -2.785  24.465  0.00  0.00    +0.000 A 
ATOM     31  C   UNL     1      -3.561  -2.267  25.076  0.00  0.00    +0.003 A 
ENDBRANCH  22  23
ENDBRANCH  21  22
ENDBRANCH  15  17
TORSDOF 8
ENDMDL
MODEL 7
REMARK VINA RESULT:      -9.1      2.045      2.582
REMARK  Name = 
REMARK  8 active torsions:
REMARK  status: ('A' for Active; 'I' for Inactive)
REMARK    1  A    between atoms: O_2  and  C_3
REMARK    2  A    between atoms: C_3  and  C_4
REMARK    3  A    between atoms: C_4  and  N_5
REMARK    4  A    between atoms: N_5  and  C_6
REMARK    5  A    between atoms: C_9  and  C_12
REMARK    6  A    between atoms: C_15  and  C_17
REMARK    7  A    between atoms: N_21  and  C_22
REMARK    8  A    between atoms: C_22  and  C_23
REMARK                            x       y       z     vdW  Elec       q    Type
REMARK                         _______ _______ _______ _____ _____    ______ ____
ROOT
ATOM     12  C   UNL     1      -0.262   0.255  23.844  0.00  0.00    +0.205 A 
ATOM     13  N   UNL     1      -0.533  -0.271  24.419  0.00  0.00    -0.056 NA
ATOM     14  O   UNL     1      -1.313  -0.073  24.600  0.00  0.00    -0.336 OA
ATOM     15  C   UNL     1      -1.524   0.577  24.137  0.00  0.00    +0.251 A 
ATOM     16  N   UNL     1      -0.874   0.779  23.670  0.00  0.00    -0.190 NA
ENDROOT
BRANCH  12   9
ATOM      6  C   UNL     1       1.993   0.260  22.826  0.00  0.00    +0.148 A 
ATOM      7  C   UNL     1       1.458  -0.339  22.640  0.00  0.00    +0.036 A 
ATOM      8  C   UNL     1       0.707  -0.341  22.979  0.00  0.00    +0.008 A 
ATOM      9  C   UNL     1       0.490   0.256  23.505  0.00  0.00    +0.058 A 
ATOM     10  C   UNL     1       1.025   0.856  23.691  0.00  0.00    +0.103 A 
ATOM     11  N   UNL     1       1.777   0.858  23.351  0.00  0.00    -0.228 NA
BRANCH   6   5
ATOM      5  N   UNL     1       2.746   0.262  22.486  0.00  0.00    -0.218 NA
BRANCH   5   4
ATOM      4  C   UNL     1       3.402   0.475  22.938  0.00  0.00    +0.146 C 
BRANCH   4   3
ATOM      3  C   UNL     1       4.163   0.345  22.648  0.00  0.00    +0.166 C 
BRANCH   3   2
ATOM      1  C   UNL     1       5.406   0.149  23.323  0.00  0.00    +0.174 C 
ATOM      2  O   UNL     1       4.815   0.653  23.047  0.00  0.00    -0.349 OA
ENDBRANCH   3   2
ENDBRANCH   4   3
ENDBRANCH   5   4
ENDBRANCH   6   5
ENDBRANCH  12   9
BRANCH  15  17
ATOM     17  C   UNL     1      -2.256   0.958  24.140  0.00  0.00    +0.138 C 
ATOM     18  C   UNL     1      -2.901   0.773  23.659  0.00  0.00    +0.027 C 
ATOM     19  C   UNL     1      -3.515   1.291  23.847  0.00  0.00    +0.019 C 
ATOM     20  C   UNL     1      -3.250   1.795  24.444  0.00  0.00    +0.073 C 
ATOM     21  N   UNL     1      -2.472   1.589  24.625  0.00  0.00    -0.260 NA
BRANCH  21  22
ATOM     22  C   UNL     1      -1.994   1.952  25.192  0.00  0.00    +0.138 C 
BRANCH  22  23
ATOM     23  C   UNL     1      -1.904   2.772  25.192  0.00  0.00    +0.139 A 
ATOM     24  C   UNL     1      -2.435   3.318  25.508  0.00  0.00    +0.037 A 
ATOM     25  C   UNL     1      -2.126   4.073  25.388  0.00  0.00    +0.037 A 
ATOM     26  C   UNL     1      -1.404   3.993  24.997  0.00  0.00    +0.145 A 
ATOM     27  O   UNL     1      -1.266   3.190  24.876  0.00  0.00    -0.456 OA
ATOM     28  C   UNL     1      -0.965   4.665  24.802  0.00  0.00    +0.037 A 
ATOM     29  C   UNL     1      -1.247   5.414  24.998  0.00  0.00    +0.003 A 
ATOM     30  C   UNL     1      -1.970   5.493  25.389  0.00  0.00    +0.000 A 
ATOM     31  C   UNL     1      -2.409   4.823  25.584  0.00  0.00    +0.003 A 
ENDBRANCH  22  23
ENDBRANCH  21  22
ENDBRANCH  15  17
TORSDOF 8
ENDMDL
MODEL 8
REMARK VINA RESULT:      -9.0      1.976      5.464
REMARK  Name = 
REMARK  8 active torsions:
REMARK  status: ('A' for Active; 'I' for Inactive)
REMARK    1  A    between atoms: O_2  and  C_3
REMARK    2  A    between atoms: C_3  and  C_4
REMARK    3  A    between atoms: C_4  and  N_5
REMARK    4  A    between atoms: N_5  and  C_6
REMARK    5  A    between atoms: C_9  and  C_12
REMARK    6  A    between atoms: C_15  and  C_17
REMARK    7  A    between atoms: N_21  and  C_22
REMARK    8  A    between atoms: C_22  and  C_23
REMARK                            x       y       z     vdW  Elec       q    Type
REMARK                         _______ _______ _______ _____ _____    ______ ____
ROOT
ATOM     12  C   UNL     1      -1.065   2.205  24.821  0.00  0.00    +0.205 A 
ATOM     13  N   UNL     1      -0.298   2.325  25.099  0.00  0.00    -0.056 NA
ATOM     14  O   UNL     1       0.169   1.696  24.839  0.00  0.00    -0.336 OA
ATOM     15  C   UNL     1      -0.310   1.188  24.400  0.00  0.00    +0.251 A 
ATOM     16  N   UNL     1      -1.072   1.502  24.389  0.00  0.00    -0.190 NA
ENDROOT
BRANCH  12   9
ATOM      6  C   UNL     1      -3.003   3.693  25.214  0.00  0.00    +0.148 A 
ATOM      7  C   UNL     1      -2.431   3.596  25.801  0.00  0.00    +0.036 A 
ATOM      8  C   UNL     1      -1.786   3.100  25.670  0.00  0.00    +0.008 A 
ATOM      9  C   UNL     1      -1.711   2.701  24.953  0.00  0.00    +0.058 A 
ATOM     10  C   UNL     1      -2.282   2.798  24.365  0.00  0.00    +0.103 A 
ATOM     11  N   UNL     1      -2.929   3.294  24.496  0.00  0.00    -0.228 NA
BRANCH   6   5
ATOM      5  N   UNL     1      -3.649   4.189  25.345  0.00  0.00    -0.218 NA
BRANCH   5   4
ATOM      4  C   UNL     1      -4.337   3.890  25.688  0.00  0.00    +0.146 C 
BRANCH   4   3
ATOM      3  C   UNL     1      -5.075   4.137  25.417  0.00  0.00    +0.166 C 
BRANCH   3   2
ATOM      1  C   UNL     1      -6.098   3.177  25.688  0.00  0.00    +0.174 C 
ATOM      2  O   UNL     1      -5.759   3.917  25.822  0.00  0.00    -0.349 OA
ENDBRANCH   3   2
ENDBRANCH   4   3
ENDBRANCH   5   4
ENDBRANCH   6   5
ENDBRANCH  12   9
BRANCH  15  17
ATOM     17  C   UNL     1      -0.069   0.488  24.035  0.00  0.00    +0.138 C 
ATOM     18  C   UNL     1       0.431   0.429  23.381  0.00  0.00    +0.027 C 
ATOM     19  C   UNL     1       0.523  -0.371  23.203  0.00  0.00    +0.019 C 
ATOM     20  C   UNL     1       0.081  -0.807  23.747  0.00  0.00    +0.073 C 
ATOM     21  N   UNL     1      -0.284  -0.275  24.261  0.00  0.00    -0.260 NA
BRANCH  21  22
ATOM     22  C   UNL     1      -0.780  -0.473  24.891  0.00  0.00    +0.138 C 
BRANCH  22  23
ATOM     23  C   UNL     1      -1.410  -0.993  24.773  0.00  0.00    +0.139 A 
ATOM     24  C   UNL     1      -1.382  -1.814  24.843  0.00  0.00    +0.037 A 
ATOM     25  C   UNL     1      -2.133  -2.110  24.678  0.00  0.00    +0.037 A 
ATOM     26  C   UNL     1      -2.626  -1.472  24.504  0.00  0.00    +0.145 A 
ATOM     27  O   UNL     1      -2.180  -0.781  24.563  0.00  0.00    -0.456 OA
ATOM     28  C   UNL     1      -3.419  -1.603  24.315  0.00  0.00    +0.037 A 
ATOM     29  C   UNL     1      -3.718  -2.371  24.300  0.00  0.00    +0.003 A 
ATOM     30  C   UNL     1      -3.225  -3.009  24.473  0.00  0.00    +0.000 A 
ATOM     31  C   UNL     1      -2.432  -2.879  24.662  0.00  0.00    +0.003 A 
ENDBRANCH  22  23
ENDBRANCH  21  22
ENDBRANCH  15  17
TORSDOF 8
ENDMDL
MODEL 9
REMARK VINA RESULT:      -8.8      1.521      2.156
REMARK  Name = 
REMARK  8 active torsions:
REMARK  status: ('A' for Active; 'I' for Inactive)
REMARK    1  A    between atoms: O_2  and  C_3
REMARK    2  A    between atoms: C_3  and  C_4
REMARK    3  A    between atoms: C_4  and  N_5
REMARK    4  A    between atoms: N_5  and  C_6
REMARK    5  A    between atoms: C_9  and  C_12
REMARK    6  A    between atoms: C_15  and  C_17
REMARK    7  A    between atoms: N_21  and  C_22
REMARK    8  A    between atoms: C_22  and  C_23
REMARK                            x       y       z     vdW  Elec       q    Type
REMARK                         _______ _______ _______ _____ _____    ______ ____
ROOT
ATOM     12  C   UNL     1      -0.225   1.352  24.556  0.00  0.00    +0.205 A 
ATOM     13  N   UNL     1      -0.623   0.906  25.124  0.00  0.00    -0.056 NA
ATOM     14  O   UNL     1      -1.211   1.381  25.456  0.00  0.00    -0.336 OA
ATOM     15  C   UNL     1      -1.176   2.121  25.092  0.00  0.00    +0.251 A 
ATOM     16  N   UNL     1      -0.567   2.102  24.536  0.00  0.00    -0.190 NA
ENDROOT
BRANCH  12   9
ATOM      6  C   UNL     1       1.663   0.574  23.158  0.00  0.00    +0.148 A 
ATOM      7  C   UNL     1       0.984   0.112  23.228  0.00  0.00    +0.036 A 
ATOM      8  C   UNL     1       0.355   0.371  23.693  0.00  0.00    +0.008 A 
ATOM      9  C   UNL     1       0.404   1.092  24.090  0.00  0.00    +0.058 A 
ATOM     10  C   UNL     1       1.084   1.555  24.020  0.00  0.00    +0.103 A 
ATOM     11  N   UNL     1       1.714   1.296  23.554  0.00  0.00    -0.228 NA
BRANCH   6   5
ATOM      5  N   UNL     1       2.294   0.315  22.692  0.00  0.00    -0.218 NA
BRANCH   5   4
ATOM      4  C   UNL     1       3.051   0.618  22.816  0.00  0.00    +0.146 C 
BRANCH   4   3
ATOM      3  C   UNL     1       3.713   0.166  22.625  0.00  0.00    +0.166 C 
BRANCH   3   2
ATOM      1  C   UNL     1       5.050   0.183  23.125  0.00  0.00    +0.174 C 
ATOM      2  O   UNL     1       4.464   0.505  22.643  0.00  0.00    -0.349 OA
ENDBRANCH   3   2
ENDBRANCH   4   3
ENDBRANCH   5   4
ENDBRANCH   6   5
ENDBRANCH  12   9
BRANCH  15  17
ATOM     17  C   UNL     1      -1.665   2.765  25.255  0.00  0.00    +0.138 C 
ATOM     18  C   UNL     1      -1.463   3.423  25.711  0.00  0.00    +0.027 C 
ATOM     19  C   UNL     1      -2.115   3.929  25.728  0.00  0.00    +0.019 C 
ATOM     20  C   UNL     1      -2.718   3.583  25.284  0.00  0.00    +0.073 C 
ATOM     21  N   UNL     1      -2.440   2.865  24.992  0.00  0.00    -0.260 NA
BRANCH  21  22
ATOM     22  C   UNL     1      -2.863   2.337  24.519  0.00  0.00    +0.138 C 
BRANCH  22  23
ATOM     23  C   UNL     1      -3.660   2.189  24.677  0.00  0.00    +0.139 A 
ATOM     24  C   UNL     1      -4.298   2.642  24.416  0.00  0.00    +0.037 A 
ATOM     25  C   UNL     1      -4.989   2.295  24.701  0.00  0.00    +0.037 A 
ATOM     26  C   UNL     1      -4.779   1.628  25.138  0.00  0.00    +0.145 A 
ATOM     27  O   UNL     1      -3.957   1.562  25.123  0.00  0.00    -0.456 OA
ATOM     28  C   UNL     1      -5.364   1.166  25.492  0.00  0.00    +0.037 A 
ATOM     29  C   UNL     1      -6.158   1.372  25.410  0.00  0.00    +0.003 A 
ATOM     30  C   UNL     1      -6.369   2.039  24.973  0.00  0.00    +0.000 A 
ATOM     31  C   UNL     1      -5.785   2.501  24.618  0.00  0.00    +0.003 A 
ENDBRANCH  22  23
ENDBRANCH  21  22
ENDBRANCH  15  17
TORSDOF 8
ENDMDL
