MODEL 1
REMARK VINA RESULT:     -11.7      0.000      0.000
REMARK  Name = 
REMARK  6 active torsions:
REMARK  status: ('A' for Active; 'I' for Inactive)
REMARK    1  A    between atoms: O_2  and  C_3
REMARK    2  A    between atoms: C_3  and  C_5
REMARK    3  A    between atoms: N_10  and  S_11
REMARK    4  A    between atoms: S_11  and  C_14
REMARK    5  A    between atoms: C_16  and  C_20
REMARK    6  A    between atoms: N_24  and  C_27
REMARK                            x       y       z     vdW  Elec       q    Type
REMARK                         _______ _______ _______ _____ _____    ______ ____
ROOT
ATOM      5  C   UNL     1      -1.575   1.030  24.724  0.00  0.00    +0.184 C 
ATOM      6  C   UNL     1      -1.257   1.784  24.626  0.00  0.00    +0.076 C 
ATOM      7  C   UNL     1      -1.751   2.445  24.632  0.00  0.00    +0.076 A 
ATOM      8  C   UNL     1      -2.564   2.351  24.737  0.00  0.00    +0.070 A 
ATOM      9  C   UNL     1      -2.883   1.596  24.835  0.00  0.00    +0.141 C 
ATOM     10  N   UNL     1      -2.388   0.936  24.828  0.00  0.00    -0.140 NA
ATOM     24  N   UNL     1      -2.911   3.099  24.719  0.00  0.00    -0.313 N 
ATOM     25  C   UNL     1      -2.313   3.655  24.603  0.00  0.00    +0.178 A 
ATOM     26  N   UNL     1      -1.597   3.251  24.550  0.00  0.00    -0.229 NA
ENDROOT
BRANCH  10  11
ATOM     11  S   UNL     1      -2.708   0.182  24.926  0.00  0.00    +0.064 S 
ATOM     12  O   UNL     1      -2.819   0.122  24.112  0.00  0.00    -0.153 OA
ATOM     13  O   UNL     1      -2.596   0.241  25.742  0.00  0.00    -0.153 OA
BRANCH  11  14
ATOM     14  C   UNL     1      -3.027  -0.572  25.026  0.00  0.00    +0.122 A 
ATOM     15  C   UNL     1      -3.426  -0.936  24.402  0.00  0.00    +0.024 A 
ATOM     16  C   UNL     1      -3.746  -1.690  24.501  0.00  0.00    +0.073 A 
ATOM     17  C   UNL     1      -3.666  -2.081  25.224  0.00  0.00    +0.004 A 
ATOM     18  C   UNL     1      -3.266  -1.717  25.847  0.00  0.00    +0.001 A 
ATOM     19  C   UNL     1      -2.947  -0.963  25.748  0.00  0.00    +0.020 A 
BRANCH  16  20
ATOM     20  C   UNL     1      -4.146  -2.054  23.877  0.00  0.00    +0.419 C 
ATOM     21  F   UNL     1      -4.545  -2.418  23.254  0.00  0.00    -0.166 F 
ATOM     22  F   UNL     1      -4.788  -1.552  23.996  0.00  0.00    -0.166 F 
ATOM     23  F   UNL     1      -3.503  -2.557  23.758  0.00  0.00    -0.166 F 
ENDBRANCH  16  20
ENDBRANCH  11  14
ENDBRANCH  10  11
BRANCH  24  27
ATOM     27  C   UNL     1      -3.716   3.262  24.802  0.00  0.00    +0.087 C 
ATOM     28  C   UNL     1      -4.210   3.248  24.141  0.00  0.00    +0.025 C 
ATOM     29  C   UNL     1      -4.026   3.438  25.546  0.00  0.00    +0.025 C 
ENDBRANCH  24  27
BRANCH   5   3
ATOM      3  C   UNL     1      -1.082   0.370  24.717  0.00  0.00    +0.334 C 
ATOM      4  O   UNL     1      -0.842   0.028  25.428  0.00  0.00    -0.249 OA
BRANCH   3   2
ATOM      1  C   UNL     1      -0.054  -0.223  23.921  0.00  0.00    +0.256 C 
ATOM      2  O   UNL     1      -0.827   0.051  24.000  0.00  0.00    -0.443 OA
ENDBRANCH   3   2
ENDBRANCH   5   3
TORSDOF 6
ENDMDL
MODEL 2
REMARK VINA RESULT:     -11.5      1.520      2.766
REMARK  Name = 
REMARK  6 active torsions:
REMARK  status: ('A' for Active; 'I' for Inactive)
REMARK    1  A    between atoms: O_2  and  C_3
REMARK    2  A    between atoms: C_3  and  C_5
REMARK    3  A    between atoms: N_10  and  S_11
REMARK    4  A    between atoms: S_11  and  C_14
REMARK    5  A    between atoms: C_16  and  C_20
REMARK    6  A    between atoms: N_24  and  C_27
REMARK                            x       y       z     vdW  Elec       q    Type
REMARK                         _______ _______ _______ _____ _____    ______ ____
ROOT
ATOM      5  C   UNL     1      -3.706   2.647  24.950  0.00  0.00    +0.184 C 
ATOM      6  C   UNL     1      -3.523   3.436  25.099  0.00  0.00    +0.076 C 
ATOM      7  C   UNL     1      -2.735   3.677  25.145  0.00  0.00    +0.076 A 
ATOM      8  C   UNL     1      -2.130   3.126  25.042  0.00  0.00    +0.070 A 
ATOM      9  C   UNL     1      -2.312   2.335  24.892  0.00  0.00    +0.141 C 
ATOM     10  N   UNL     1      -3.100   2.096  24.847  0.00  0.00    -0.140 NA
ATOM     24  N   UNL     1      -1.410   3.521  25.117  0.00  0.00    -0.313 N 
ATOM     25  C   UNL     1      -1.570   4.316  25.267  0.00  0.00    +0.178 A 
ATOM     26  N   UNL     1      -2.389   4.412  25.284  0.00  0.00    -0.229 NA
ENDROOT
BRANCH  10  11
ATOM     11  S   UNL     1      -3.282   1.305  24.697  0.00  0.00    +0.064 S 
ATOM     12  O   UNL     1      -3.317   1.465  23.889  0.00  0.00    -0.153 OA
ATOM     13  O   UNL     1      -3.248   1.145  25.507  0.00  0.00    -0.153 OA
BRANCH  11  14
ATOM     14  C   UNL     1      -3.464   0.514  24.549  0.00  0.00    +0.122 A 
ATOM     15  C   UNL     1      -3.415  -0.041  25.158  0.00  0.00    +0.024 A 
ATOM     16  C   UNL     1      -3.597  -0.832  25.011  0.00  0.00    +0.073 A 
ATOM     17  C   UNL     1      -3.828  -1.068  24.255  0.00  0.00    +0.004 A 
ATOM     18  C   UNL     1      -3.877  -0.514  23.646  0.00  0.00    +0.001 A 
ATOM     19  C   UNL     1      -3.695   0.278  23.794  0.00  0.00    +0.020 A 
BRANCH  16  20
ATOM     20  C   UNL     1      -3.548  -1.387  25.620  0.00  0.00    +0.419 C 
ATOM     21  F   UNL     1      -3.498  -1.942  26.229  0.00  0.00    -0.166 F 
ATOM     22  F   UNL     1      -4.227  -1.070  25.963  0.00  0.00    -0.166 F 
ATOM     23  F   UNL     1      -2.868  -1.704  25.276  0.00  0.00    -0.166 F 
ENDBRANCH  16  20
ENDBRANCH  11  14
ENDBRANCH  10  11
BRANCH  24  27
ATOM     27  C   UNL     1      -0.660   3.181  25.053  0.00  0.00    +0.087 C 
ATOM     28  C   UNL     1      -0.283   2.884  25.725  0.00  0.00    +0.025 C 
ATOM     29  C   UNL     1      -0.288   3.137  24.318  0.00  0.00    +0.025 C 
ENDBRANCH  24  27
BRANCH   5   3
ATOM      3  C   UNL     1      -4.493   2.407  24.904  0.00  0.00    +0.334 C 
ATOM      4  O   UNL     1      -4.855   2.320  24.168  0.00  0.00    -0.249 OA
BRANCH   3   2
ATOM      1  C   UNL     1      -5.708   2.486  25.652  0.00  0.00    +0.256 C 
ATOM      2  O   UNL     1      -4.920   2.254  25.594  0.00  0.00    -0.443 OA
ENDBRANCH   3   2
ENDBRANCH   5   3
TORSDOF 6
ENDMDL
MODEL 3
REMARK VINA RESULT:     -11.3      2.290      4.184
REMARK  Name = 
REMARK  6 active torsions:
REMARK  status: ('A' for Active; 'I' for Inactive)
REMARK    1  A    between atoms: O_2  and  C_3
REMARK    2  A    between atoms: C_3  and  C_5
REMARK    3  A    between atoms: N_10  and  S_11
REMARK    4  A    between atoms: S_11  and  C_14
REMARK    5  A    between atoms: C_16  and  C_20
REMARK    6  A    between atoms: N_24  and  C_27
REMARK                            x       y       z     vdW  Elec       q    Type
REMARK                         _______ _______ _______ _____ _____    ______ ____
ROOT
ATOM      5  C   UNL     1      -1.372   0.642  24.358  0.00  0.00    +0.184 C 
ATOM      6  C   UNL     1      -0.973  -0.080  24.371  0.00  0.00    +0.076 C 
ATOM      7  C   UNL     1      -1.390  -0.780  24.497  0.00  0.00    +0.076 A 
ATOM      8  C   UNL     1      -2.207  -0.759  24.610  0.00  0.00    +0.070 A 
ATOM      9  C   UNL     1      -2.607  -0.036  24.598  0.00  0.00    +0.141 C 
ATOM     10  N   UNL     1      -2.189   0.664  24.472  0.00  0.00    -0.140 NA
ATOM     24  N   UNL     1      -2.470  -1.532  24.721  0.00  0.00    -0.313 N 
ATOM     25  C   UNL     1      -1.816  -2.032  24.677  0.00  0.00    +0.178 A 
ATOM     26  N   UNL     1      -1.149  -1.567  24.538  0.00  0.00    -0.229 NA
ENDROOT
BRANCH  10  11
ATOM     11  S   UNL     1      -2.588   1.385  24.459  0.00  0.00    +0.064 S 
ATOM     12  O   UNL     1      -2.656   1.334  23.639  0.00  0.00    -0.153 OA
ATOM     13  O   UNL     1      -2.521   1.436  25.280  0.00  0.00    -0.153 OA
BRANCH  11  14
ATOM     14  C   UNL     1      -2.988   2.107  24.448  0.00  0.00    +0.122 A 
ATOM     15  C   UNL     1      -2.952   2.608  25.103  0.00  0.00    +0.024 A 
ATOM     16  C   UNL     1      -3.351   3.329  25.093  0.00  0.00    +0.073 A 
ATOM     17  C   UNL     1      -3.787   3.551  24.427  0.00  0.00    +0.004 A 
ATOM     18  C   UNL     1      -3.822   3.050  23.772  0.00  0.00    +0.001 A 
ATOM     19  C   UNL     1      -3.423   2.328  23.783  0.00  0.00    +0.020 A 
BRANCH  16  20
ATOM     20  C   UNL     1      -3.316   3.830  25.747  0.00  0.00    +0.419 C 
ATOM     21  F   UNL     1      -3.280   4.331  26.402  0.00  0.00    -0.166 F 
ATOM     22  F   UNL     1      -4.036   3.532  26.015  0.00  0.00    -0.166 F 
ATOM     23  F   UNL     1      -2.595   4.129  25.479  0.00  0.00    -0.166 F 
ENDBRANCH  16  20
ENDBRANCH  11  14
ENDBRANCH  10  11
BRANCH  24  27
ATOM     27  C   UNL     1      -3.251  -1.765  24.854  0.00  0.00    +0.087 C 
ATOM     28  C   UNL     1      -3.546  -1.800  25.624  0.00  0.00    +0.025 C 
ATOM     29  C   UNL     1      -3.736  -1.963  24.217  0.00  0.00    +0.025 C 
ENDBRANCH  24  27
BRANCH   5   3
ATOM      3  C   UNL     1      -0.954   1.341  24.233  0.00  0.00    +0.334 C 
ATOM      4  O   UNL     1      -0.961   1.697  23.488  0.00  0.00    -0.249 OA
BRANCH   3   2
ATOM      1  C   UNL     1       0.203   2.033  24.705  0.00  0.00    +0.256 C 
ATOM      2  O   UNL     1      -0.531   1.687  24.851  0.00  0.00    -0.443 OA
ENDBRANCH   3   2
ENDBRANCH   5   3
TORSDOF 6
ENDMDL
