MODEL 1
REMARK VINA RESULT:     -10.1      0.000      0.000
REMARK  Name = 
REMARK  6 active torsions:
REMARK  status: ('A' for Active; 'I' for Inactive)
REMARK    1  A    between atoms: C_4  and  C_15
REMARK    2  A    between atoms: C_6  and  C_8
REMARK    3  A    between atoms: C_22  and  C_23
REMARK    4  A    between atoms: C_23  and  N_24
REMARK    5  A    between atoms: N_24  and  S_25
REMARK    6  A    between atoms: S_25  and  C_28
REMARK                            x       y       z     vdW  Elec       q    Type
REMARK                         _______ _______ _______ _____ _____    ______ ____
ROOT
ATOM     15  C   UNL     1      -1.074   0.591  24.257  0.00  0.00    +0.056 C 
ATOM     16  C   UNL     1      -0.538   0.255  24.711  0.00  0.00    +0.078 C 
ATOM     17  N   UNL     1      -0.393   0.691  24.025  0.00  0.00    -0.272 NA
ATOM     18  C   UNL     1      -1.322   1.003  23.653  0.00  0.00    +0.072 C 
ATOM     19  C   UNL     1      -1.677   1.320  23.206  0.00  0.00    +0.018 C 
ATOM     20  C   UNL     1      -0.923   1.017  23.586  0.00  0.00    +0.010 C 
ATOM     21  C   UNL     1      -0.175   1.226  23.178  0.00  0.00    +0.018 C 
ATOM     22  C   UNL     1       0.382   0.912  23.596  0.00  0.00    +0.077 C 
ENDROOT
BRANCH  15   4
ATOM      1  C   UNL     1      -3.474   1.702  25.343  0.00  0.00    +0.074 C 
ATOM      2  C   UNL     1      -3.064   1.061  25.023  0.00  0.00    +0.139 A 
ATOM      3  N   UNL     1      -2.275   1.146  24.801  0.00  0.00    -0.235 NA
ATOM      4  C   UNL     1      -1.865   0.505  24.480  0.00  0.00    +0.063 A 
ATOM      5  C   UNL     1      -2.244  -0.220  24.382  0.00  0.00    +0.034 A 
ATOM      6  C   UNL     1      -3.034  -0.305  24.605  0.00  0.00    +0.084 A 
ATOM      7  N   UNL     1      -3.444   0.335  24.925  0.00  0.00    -0.231 NA
BRANCH   6   8
ATOM      8  C   UNL     1      -3.415  -1.030  24.507  0.00  0.00    +0.024 A 
ATOM      9  C   UNL     1      -3.395  -1.591  25.113  0.00  0.00    +0.036 A 
ATOM     10 BR   UNL     1      -2.996  -1.425  25.815  0.00  0.00    -0.049 Br
ATOM     11  C   UNL     1      -3.776  -2.316  25.016  0.00  0.00    +0.007 A 
ATOM     12  C   UNL     1      -4.176  -2.481  24.313  0.00  0.00    +0.001 A 
ATOM     13  C   UNL     1      -4.195  -1.921  23.708  0.00  0.00    +0.000 A 
ATOM     14  C   UNL     1      -3.815  -1.196  23.805  0.00  0.00    +0.002 A 
ENDBRANCH   6   8
ENDBRANCH  15   4
BRANCH  22  23
ATOM     23  C   UNL     1       1.200   0.825  23.635  0.00  0.00    +0.131 C 
BRANCH  23  24
ATOM     24  N   UNL     1       1.626   0.620  22.959  0.00  0.00    -0.076 NA
BRANCH  24  25
ATOM     25  S   UNL     1       2.441   0.502  23.003  0.00  0.00    +0.077 S 
ATOM     26  O   UNL     1       2.359  -0.214  22.603  0.00  0.00    -0.152 OA
ATOM     27  O   UNL     1       2.523   1.219  23.404  0.00  0.00    -0.152 OA
BRANCH  25  28
ATOM     28  C   UNL     1       3.256   0.384  23.047  0.00  0.00    +0.124 A 
ATOM     29  C   UNL     1       3.773   0.977  22.800  0.00  0.00    +0.021 A 
ATOM     30  C   UNL     1       4.589   0.859  22.845  0.00  0.00    +0.013 A 
ATOM     31  C   UNL     1       4.887   0.147  23.136  0.00  0.00    +0.058 A 
ATOM     32 CL   UNL     1       5.703   0.029  23.180  0.00  0.00    -0.082 Cl
ATOM     33  C   UNL     1       4.370  -0.447  23.383  0.00  0.00    +0.013 A 
ATOM     34  C   UNL     1       3.555  -0.328  23.339  0.00  0.00    +0.021 A 
ENDBRANCH  25  28
ENDBRANCH  24  25
ENDBRANCH  23  24
ENDBRANCH  22  23
TORSDOF 6
ENDMDL
MODEL 2
REMARK VINA RESULT:      -8.9      3.095      4.254
REMARK  Name = 
REMARK  6 active torsions:
REMARK  status: ('A' for Active; 'I' for Inactive)
REMARK    1  A    between atoms: C_4  and  C_15
REMARK    2  A    between atoms: C_6  and  C_8
REMARK    3  A    between atoms: C_22  and  C_23
REMARK    4  A    between atoms: C_23  and  N_24
REMARK    5  A    between atoms: N_24  and  S_25
REMARK    6  A    between atoms: S_25  and  C_28
REMARK                            x       y       z     vdW  Elec       q    Type
REMARK                         _______ _______ _______ _____ _____    ______ ____
ROOT
ATOM     15  C   UNL     1      -0.721  -0.132  24.902  0.00  0.00    +0.056 C 
ATOM     16  C   UNL     1      -0.967   0.347  25.465  0.00  0.00    +0.078 C 
ATOM     17  N   UNL     1      -0.482   0.551  24.828  0.00  0.00    -0.272 NA
ATOM     18  C   UNL     1      -0.339  -0.317  24.257  0.00  0.00    +0.072 C 
ATOM     19  C   UNL     1      -0.077  -0.621  23.742  0.00  0.00    +0.018 C 
ATOM     20  C   UNL     1      -0.246   0.076  24.281  0.00  0.00    +0.010 C 
ATOM     21  C   UNL     1       0.121   0.839  24.050  0.00  0.00    +0.018 C 
ATOM     22  C   UNL     1      -0.097   1.341  24.582  0.00  0.00    +0.077 C 
ENDROOT
BRANCH  15   4
ATOM      1  C   UNL     1      -0.163  -2.872  25.495  0.00  0.00    +0.074 C 
ATOM      2  C   UNL     1      -0.688  -2.289  25.239  0.00  0.00    +0.139 A 
ATOM      3  N   UNL     1      -0.442  -1.502  25.198  0.00  0.00    -0.235 NA
ATOM      4  C   UNL     1      -0.967  -0.919  24.942  0.00  0.00    +0.063 A 
ATOM      5  C   UNL     1      -1.736  -1.122  24.727  0.00  0.00    +0.034 A 
ATOM      6  C   UNL     1      -1.982  -1.909  24.767  0.00  0.00    +0.084 A 
ATOM      7  N   UNL     1      -1.458  -2.492  25.023  0.00  0.00    -0.231 NA
BRANCH   6   8
ATOM      8  C   UNL     1      -2.752  -2.113  24.552  0.00  0.00    +0.024 A 
ATOM      9  C   UNL     1      -3.368  -2.026  25.094  0.00  0.00    +0.036 A 
ATOM     10 BR   UNL     1      -3.214  -1.736  25.850  0.00  0.00    -0.049 Br
ATOM     11  C   UNL     1      -4.138  -2.230  24.879  0.00  0.00    +0.007 A 
ATOM     12  C   UNL     1      -4.292  -2.521  24.122  0.00  0.00    +0.001 A 
ATOM     13  C   UNL     1      -3.676  -2.607  23.581  0.00  0.00    +0.000 A 
ATOM     14  C   UNL     1      -2.905  -2.403  23.795  0.00  0.00    +0.002 A 
ENDBRANCH   6   8
ENDBRANCH  15   4
BRANCH  22  23
ATOM     23  C   UNL     1      -0.027   2.132  24.804  0.00  0.00    +0.131 C 
BRANCH  23  24
ATOM     24  N   UNL     1      -0.192   2.729  24.259  0.00  0.00    -0.076 NA
BRANCH  24  25
ATOM     25  S   UNL     1      -0.584   3.413  24.502  0.00  0.00    +0.077 S 
ATOM     26  O   UNL     1      -1.087   3.354  23.850  0.00  0.00    -0.152 OA
ATOM     27  O   UNL     1      -0.081   3.471  25.153  0.00  0.00    -0.152 OA
BRANCH  25  28
ATOM     28  C   UNL     1      -0.977   4.097  24.744  0.00  0.00    +0.124 A 
ATOM     29  C   UNL     1      -1.718   4.042  25.102  0.00  0.00    +0.021 A 
ATOM     30  C   UNL     1      -2.111   4.726  25.344  0.00  0.00    +0.013 A 
ATOM     31  C   UNL     1      -1.763   5.465  25.228  0.00  0.00    +0.058 A 
ATOM     32 CL   UNL     1      -2.156   6.148  25.470  0.00  0.00    -0.082 Cl
ATOM     33  C   UNL     1      -1.021   5.520  24.870  0.00  0.00    +0.013 A 
ATOM     34  C   UNL     1      -0.628   4.836  24.628  0.00  0.00    +0.021 A 
ENDBRANCH  25  28
ENDBRANCH  24  25
ENDBRANCH  23  24
ENDBRANCH  22  23
TORSDOF 6
ENDMDL
MODEL 3
REMARK VINA RESULT:      -8.8      3.423      5.112
REMARK  Name = 
REMARK  6 active torsions:
REMARK  status: ('A' for Active; 'I' for Inactive)
REMARK    1  A    between atoms: C_4  and  C_15
REMARK    2  A    between atoms: C_6  and  C_8
REMARK    3  A    between atoms: C_22  and  C_23
REMARK    4  A    between atoms: C_23  and  N_24
REMARK    5  A    between atoms: N_24  and  S_25
REMARK    6  A    between atoms: S_25  and  C_28
REMARK                            x       y       z     vdW  Elec       q    Type
REMARK                         _______ _______ _______ _____ _____    ______ ____
ROOT
ATOM     15  C   UNL     1      -1.353   2.054  24.931  0.00  0.00    +0.056 C 
ATOM     16  C   UNL     1      -1.609   1.621  24.337  0.00  0.00    +0.078 C 
ATOM     17  N   UNL     1      -1.074   1.383  24.918  0.00  0.00    -0.272 NA
ATOM     18  C   UNL     1      -0.939   2.194  25.567  0.00  0.00    +0.072 C 
ATOM     19  C   UNL     1      -0.660   2.459  26.095  0.00  0.00    +0.018 C 
ATOM     20  C   UNL     1      -0.827   1.812  25.497  0.00  0.00    +0.010 C 
ATOM     21  C   UNL     1      -0.406   1.052  25.623  0.00  0.00    +0.018 C 
ATOM     22  C   UNL     1      -0.633   0.596  25.055  0.00  0.00    +0.077 C 
ENDROOT
BRANCH  15   4
ATOM      1  C   UNL     1      -0.908   4.876  24.846  0.00  0.00    +0.074 C 
ATOM      2  C   UNL     1      -1.419   4.236  24.947  0.00  0.00    +0.139 A 
ATOM      3  N   UNL     1      -1.131   3.466  24.889  0.00  0.00    -0.235 NA
ATOM      4  C   UNL     1      -1.642   2.825  24.989  0.00  0.00    +0.063 A 
ATOM      5  C   UNL     1      -2.440   2.956  25.148  0.00  0.00    +0.034 A 
ATOM      6  C   UNL     1      -2.728   3.726  25.206  0.00  0.00    +0.084 A 
ATOM      7  N   UNL     1      -2.218   4.367  25.105  0.00  0.00    -0.231 NA
BRANCH   6   8
ATOM      8  C   UNL     1      -3.527   3.858  25.365  0.00  0.00    +0.024 A 
ATOM      9  C   UNL     1      -4.067   3.911  24.743  0.00  0.00    +0.036 A 
ATOM     10 BR   UNL     1      -3.809   3.833  23.964  0.00  0.00    -0.049 Br
ATOM     11  C   UNL     1      -4.867   4.042  24.901  0.00  0.00    +0.007 A 
ATOM     12  C   UNL     1      -5.125   4.120  25.681  0.00  0.00    +0.001 A 
ATOM     13  C   UNL     1      -4.585   4.067  26.301  0.00  0.00    +0.000 A 
ATOM     14  C   UNL     1      -3.786   3.936  26.144  0.00  0.00    +0.002 A 
ENDBRANCH   6   8
ENDBRANCH  15   4
BRANCH  22  23
ATOM     23  C   UNL     1      -0.536  -0.163  24.747  0.00  0.00    +0.131 C 
BRANCH  23  24
ATOM     24  N   UNL     1      -0.682  -0.822  25.221  0.00  0.00    -0.076 NA
BRANCH  24  25
ATOM     25  S   UNL     1      -1.285  -1.348  25.022  0.00  0.00    +0.077 S 
ATOM     26  O   UNL     1      -1.577  -1.303  25.792  0.00  0.00    -0.152 OA
ATOM     27  O   UNL     1      -0.993  -1.394  24.252  0.00  0.00    -0.152 OA
BRANCH  25  28
ATOM     28  C   UNL     1      -1.889  -1.875  24.824  0.00  0.00    +0.124 A 
ATOM     29  C   UNL     1      -1.725  -2.532  24.353  0.00  0.00    +0.021 A 
ATOM     30  C   UNL     1      -2.329  -3.058  24.155  0.00  0.00    +0.013 A 
ATOM     31  C   UNL     1      -3.097  -2.927  24.428  0.00  0.00    +0.058 A 
ATOM     32 CL   UNL     1      -3.700  -3.454  24.230  0.00  0.00    -0.082 Cl
ATOM     33  C   UNL     1      -3.260  -2.270  24.899  0.00  0.00    +0.013 A 
ATOM     34  C   UNL     1      -2.657  -1.744  25.097  0.00  0.00    +0.021 A 
ENDBRANCH  25  28
ENDBRANCH  24  25
ENDBRANCH  23  24
ENDBRANCH  22  23
TORSDOF 6
ENDMDL
MODEL 4
REMARK VINA RESULT:      -8.8      1.389      2.457
REMARK  Name = 
REMARK  6 active torsions:
REMARK  status: ('A' for Active; 'I' for Inactive)
REMARK    1  A    between atoms: C_4  and  C_15
REMARK    2  A    between atoms: C_6  and  C_8
REMARK    3  A    between atoms: C_22  and  C_23
REMARK    4  A    between atoms: C_23  and  N_24
REMARK    5  A    between atoms: N_24  and  S_25
REMARK    6  A    between atoms: S_25  and  C_28
REMARK                            x       y       z     vdW  Elec       q    Type
REMARK                         _______ _______ _______ _____ _____    ______ ____
ROOT
ATOM     15  C   UNL     1      -0.647   0.930  24.235  0.00  0.00    +0.056 C 
ATOM     16  C   UNL     1      -0.103   1.317  24.634  0.00  0.00    +0.078 C 
ATOM     17  N   UNL     1       0.024   0.847  23.967  0.00  0.00    -0.272 NA
ATOM     18  C   UNL     1      -0.909   0.471  23.672  0.00  0.00    +0.072 C 
ATOM     19  C   UNL     1      -1.274   0.110  23.268  0.00  0.00    +0.018 C 
ATOM     20  C   UNL     1      -0.515   0.470  23.581  0.00  0.00    +0.010 C 
ATOM     21  C   UNL     1       0.217   0.270  23.141  0.00  0.00    +0.018 C 
ATOM     22  C   UNL     1       0.781   0.634  23.505  0.00  0.00    +0.077 C 
ENDROOT
BRANCH  15   4
ATOM      1  C   UNL     1      -2.889  -0.180  25.618  0.00  0.00    +0.074 C 
ATOM      2  C   UNL     1      -2.547   0.438  25.192  0.00  0.00    +0.139 A 
ATOM      3  N   UNL     1      -1.769   0.375  24.927  0.00  0.00    -0.235 NA
ATOM      4  C   UNL     1      -1.427   0.993  24.500  0.00  0.00    +0.063 A 
ATOM      5  C   UNL     1      -1.863   1.674  24.339  0.00  0.00    +0.034 A 
ATOM      6  C   UNL     1      -2.641   1.737  24.604  0.00  0.00    +0.084 A 
ATOM      7  N   UNL     1      -2.984   1.119  25.030  0.00  0.00    -0.231 NA
BRANCH   6   8
ATOM      8  C   UNL     1      -3.079   2.418  24.443  0.00  0.00    +0.024 A 
ATOM      9  C   UNL     1      -3.061   3.053  24.969  0.00  0.00    +0.036 A 
ATOM     10 BR   UNL     1      -2.605   3.008  25.655  0.00  0.00    -0.049 Br
ATOM     11  C   UNL     1      -3.498   3.735  24.809  0.00  0.00    +0.007 A 
ATOM     12  C   UNL     1      -3.953   3.780  24.122  0.00  0.00    +0.001 A 
ATOM     13  C   UNL     1      -3.972   3.145  23.597  0.00  0.00    +0.000 A 
ATOM     14  C   UNL     1      -3.534   2.463  23.757  0.00  0.00    +0.002 A 
ENDBRANCH   6   8
ENDBRANCH  15   4
BRANCH  22  23
ATOM     23  C   UNL     1       1.596   0.761  23.488  0.00  0.00    +0.131 C 
BRANCH  23  24
ATOM     24  N   UNL     1       2.054   0.420  22.893  0.00  0.00    -0.076 NA
BRANCH  24  25
ATOM     25  S   UNL     1       2.866   0.325  23.000  0.00  0.00    +0.077 S 
ATOM     26  O   UNL     1       2.942   1.136  23.131  0.00  0.00    -0.152 OA
ATOM     27  O   UNL     1       2.789  -0.486  22.869  0.00  0.00    -0.152 OA
BRANCH  25  28
ATOM     28  C   UNL     1       3.679   0.231  23.108  0.00  0.00    +0.124 A 
ATOM     29  C   UNL     1       3.973  -0.463  23.444  0.00  0.00    +0.021 A 
ATOM     30  C   UNL     1       4.786  -0.557  23.551  0.00  0.00    +0.013 A 
ATOM     31  C   UNL     1       5.304   0.043  23.322  0.00  0.00    +0.058 A 
ATOM     32 CL   UNL     1       6.116  -0.052  23.429  0.00  0.00    -0.082 Cl
ATOM     33  C   UNL     1       5.010   0.736  22.986  0.00  0.00    +0.013 A 
ATOM     34  C   UNL     1       4.197   0.830  22.878  0.00  0.00    +0.021 A 
ENDBRANCH  25  28
ENDBRANCH  24  25
ENDBRANCH  23  24
ENDBRANCH  22  23
TORSDOF 6
ENDMDL
MODEL 5
REMARK VINA RESULT:      -8.2      4.319      6.200
REMARK  Name = 
REMARK  6 active torsions:
REMARK  status: ('A' for Active; 'I' for Inactive)
REMARK    1  A    between atoms: C_4  and  C_15
REMARK    2  A    between atoms: C_6  and  C_8
REMARK    3  A    between atoms: C_22  and  C_23
REMARK    4  A    between atoms: C_23  and  N_24
REMARK    5  A    between atoms: N_24  and  S_25
REMARK    6  A    between atoms: S_25  and  C_28
REMARK                            x       y       z     vdW  Elec       q    Type
REMARK                         _______ _______ _______ _____ _____    ______ ____
ROOT
ATOM     15  C   UNL     1      -3.663   2.544  25.292  0.00  0.00    +0.056 C 
ATOM     16  C   UNL     1      -3.392   1.868  25.567  0.00  0.00    +0.078 C 
ATOM     17  N   UNL     1      -4.012   1.962  25.031  0.00  0.00    -0.272 NA
ATOM     18  C   UNL     1      -4.127   2.991  24.867  0.00  0.00    +0.072 C 
ATOM     19  C   UNL     1      -4.432   3.489  24.575  0.00  0.00    +0.018 C 
ATOM     20  C   UNL     1      -4.273   2.628  24.766  0.00  0.00    +0.010 C 
ATOM     21  C   UNL     1      -4.788   2.042  24.364  0.00  0.00    +0.018 C 
ATOM     22  C   UNL     1      -4.551   1.358  24.610  0.00  0.00    +0.077 C 
ENDROOT
BRANCH  15   4
ATOM      1  C   UNL     1      -3.619   4.801  27.046  0.00  0.00    +0.074 C 
ATOM      2  C   UNL     1      -3.276   4.363  26.436  0.00  0.00    +0.139 A 
ATOM      3  N   UNL     1      -3.641   3.673  26.169  0.00  0.00    -0.235 NA
ATOM      4  C   UNL     1      -3.298   3.235  25.560  0.00  0.00    +0.063 A 
ATOM      5  C   UNL     1      -2.592   3.487  25.217  0.00  0.00    +0.034 A 
ATOM      6  C   UNL     1      -2.227   4.177  25.484  0.00  0.00    +0.084 A 
ATOM      7  N   UNL     1      -2.569   4.615  26.094  0.00  0.00    -0.231 NA
BRANCH   6   8
ATOM      8  C   UNL     1      -1.520   4.430  25.142  0.00  0.00    +0.024 A 
ATOM      9  C   UNL     1      -0.820   4.020  25.293  0.00  0.00    +0.036 A 
ATOM     10 BR   UNL     1      -0.827   3.359  25.785  0.00  0.00    -0.049 Br
ATOM     11  C   UNL     1      -0.112   4.272  24.951  0.00  0.00    +0.007 A 
ATOM     12  C   UNL     1      -0.106   4.935  24.458  0.00  0.00    +0.001 A 
ATOM     13  C   UNL     1      -0.806   5.343  24.308  0.00  0.00    +0.000 A 
ATOM     14  C   UNL     1      -1.514   5.091  24.649  0.00  0.00    +0.002 A 
ENDBRANCH   6   8
ENDBRANCH  15   4
BRANCH  22  23
ATOM     23  C   UNL     1      -4.698   0.550  24.537  0.00  0.00    +0.131 C 
BRANCH  23  24
ATOM     24  N   UNL     1      -4.316   0.114  23.950  0.00  0.00    -0.076 NA
BRANCH  24  25
ATOM     25  S   UNL     1      -4.134  -0.680  24.079  0.00  0.00    +0.077 S 
ATOM     26  O   UNL     1      -3.412  -0.577  23.693  0.00  0.00    -0.152 OA
ATOM     27  O   UNL     1      -4.856  -0.784  24.465  0.00  0.00    -0.152 OA
BRANCH  25  28
ATOM     28  C   UNL     1      -3.952  -1.475  24.207  0.00  0.00    +0.124 A 
ATOM     29  C   UNL     1      -4.267  -2.055  23.713  0.00  0.00    +0.021 A 
ATOM     30  C   UNL     1      -4.084  -2.850  23.841  0.00  0.00    +0.013 A 
ATOM     31  C   UNL     1      -3.587  -3.064  24.463  0.00  0.00    +0.058 A 
ATOM     32 CL   UNL     1      -3.405  -3.858  24.591  0.00  0.00    -0.082 Cl
ATOM     33  C   UNL     1      -3.272  -2.484  24.958  0.00  0.00    +0.013 A 
ATOM     34  C   UNL     1      -3.454  -1.689  24.829  0.00  0.00    +0.021 A 
ENDBRANCH  25  28
ENDBRANCH  24  25
ENDBRANCH  23  24
ENDBRANCH  22  23
TORSDOF 6
ENDMDL
MODEL 6
REMARK VINA RESULT:      -8.1      3.894      4.991
REMARK  Name = 
REMARK  6 active torsions:
REMARK  status: ('A' for Active; 'I' for Inactive)
REMARK    1  A    between atoms: C_4  and  C_15
REMARK    2  A    between atoms: C_6  and  C_8
REMARK    3  A    between atoms: C_22  and  C_23
REMARK    4  A    between atoms: C_23  and  N_24
REMARK    5  A    between atoms: N_24  and  S_25
REMARK    6  A    between atoms: S_25  and  C_28
REMARK                            x       y       z     vdW  Elec       q    Type
REMARK                         _______ _______ _______ _____ _____    ______ ____
ROOT
ATOM     15  C   UNL     1      -3.770   0.521  24.393  0.00  0.00    +0.056 C 
ATOM     16  C   UNL     1      -3.342   0.991  23.944  0.00  0.00    +0.078 C 
ATOM     17  N   UNL     1      -3.873   1.227  24.531  0.00  0.00    -0.272 NA
ATOM     18  C   UNL     1      -4.283   0.356  24.945  0.00  0.00    +0.072 C 
ATOM     19  C   UNL     1      -4.684   0.064  25.371  0.00  0.00    +0.018 C 
ATOM     20  C   UNL     1      -4.289   0.760  24.966  0.00  0.00    +0.010 C 
ATOM     21  C   UNL     1      -4.525   1.556  25.252  0.00  0.00    +0.018 C 
ATOM     22  C   UNL     1      -4.123   2.051  24.832  0.00  0.00    +0.077 C 
ENDROOT
BRANCH  15   4
ATOM      1  C   UNL     1      -4.848  -1.972  23.500  0.00  0.00    +0.074 C 
ATOM      2  C   UNL     1      -4.227  -1.538  23.828  0.00  0.00    +0.139 A 
ATOM      3  N   UNL     1      -4.309  -0.726  23.946  0.00  0.00    -0.235 NA
ATOM      4  C   UNL     1      -3.688  -0.293  24.274  0.00  0.00    +0.063 A 
ATOM      5  C   UNL     1      -2.986  -0.671  24.483  0.00  0.00    +0.034 A 
ATOM      6  C   UNL     1      -2.904  -1.483  24.364  0.00  0.00    +0.084 A 
ATOM      7  N   UNL     1      -3.524  -1.917  24.037  0.00  0.00    -0.231 NA
BRANCH   6   8
ATOM      8  C   UNL     1      -2.202  -1.862  24.573  0.00  0.00    +0.024 A 
ATOM      9  C   UNL     1      -2.217  -2.498  25.099  0.00  0.00    +0.036 A 
ATOM     10 BR   UNL     1      -2.935  -2.754  25.415  0.00  0.00    -0.049 Br
ATOM     11  C   UNL     1      -1.515  -2.878  25.308  0.00  0.00    +0.007 A 
ATOM     12  C   UNL     1      -0.798  -2.622  24.991  0.00  0.00    +0.001 A 
ATOM     13  C   UNL     1      -0.783  -1.986  24.466  0.00  0.00    +0.000 A 
ATOM     14  C   UNL     1      -1.484  -1.606  24.256  0.00  0.00    +0.002 A 
ENDBRANCH   6   8
ENDBRANCH  15   4
BRANCH  22  23
ATOM     23  C   UNL     1      -3.992   2.857  24.719  0.00  0.00    +0.131 C 
BRANCH  23  24
ATOM     24  N   UNL     1      -3.723   3.323  25.345  0.00  0.00    -0.076 NA
BRANCH  24  25
ATOM     25  S   UNL     1      -3.058   3.801  25.248  0.00  0.00    +0.077 S 
ATOM     26  O   UNL     1      -2.768   3.541  25.976  0.00  0.00    -0.152 OA
ATOM     27  O   UNL     1      -3.349   4.060  24.521  0.00  0.00    -0.152 OA
BRANCH  25  28
ATOM     28  C   UNL     1      -2.392   4.279  25.153  0.00  0.00    +0.124 A 
ATOM     29  C   UNL     1      -1.654   3.935  25.021  0.00  0.00    +0.021 A 
ATOM     30  C   UNL     1      -0.988   4.413  24.926  0.00  0.00    +0.013 A 
ATOM     31  C   UNL     1      -1.060   5.234  24.962  0.00  0.00    +0.058 A 
ATOM     32 CL   UNL     1      -0.394   5.711  24.866  0.00  0.00    -0.082 Cl
ATOM     33  C   UNL     1      -1.799   5.578  25.093  0.00  0.00    +0.013 A 
ATOM     34  C   UNL     1      -2.465   5.100  25.189  0.00  0.00    +0.021 A 
ENDBRANCH  25  28
ENDBRANCH  24  25
ENDBRANCH  23  24
ENDBRANCH  22  23
TORSDOF 6
ENDMDL
