MODEL 1
REMARK VINA RESULT:     -10.7      0.000      0.000
REMARK  Name = 
REMARK  4 active torsions:
REMARK  status: ('A' for Active; 'I' for Inactive)
REMARK    1  A    between atoms: C_2  and  O_5
REMARK    2  A    between atoms: O_5  and  C_6
REMARK    3  A    between atoms: C_8  and  C_9
REMARK    4  A    between atoms: C_9  and  N_10
REMARK                            x       y       z     vdW  Elec       q    Type
REMARK                         _______ _______ _______ _____ _____    ______ ____
ROOT
ATOM      6  C   UNL     1      -3.619  -1.322  24.918  0.00  0.00    +0.147 A 
ATOM      7  C   UNL     1      -3.873  -0.663  24.492  0.00  0.00    +0.034 A 
ATOM      8  C   UNL     1      -3.434   0.035  24.512  0.00  0.00    -0.003 A 
ATOM     20  C   UNL     1      -2.741   0.074  24.957  0.00  0.00    -0.003 A 
ATOM     21  C   UNL     1      -2.486  -0.585  25.383  0.00  0.00    +0.003 A 
ATOM     22  C   UNL     1      -2.926  -1.284  25.364  0.00  0.00    +0.037 A 
ENDROOT
BRANCH   6   5
ATOM      5  O   UNL     1      -4.058  -2.021  24.899  0.00  0.00    -0.404 OA
BRANCH   5   2
ATOM      1  F   UNL     1      -3.494  -3.327  24.063  0.00  0.00    -0.133 F 
ATOM      2  C   UNL     1      -3.776  -2.674  24.481  0.00  0.00    +0.575 C 
ATOM      3  F   UNL     1      -3.417  -2.958  25.167  0.00  0.00    -0.133 F 
ATOM      4  F   UNL     1      -4.135  -2.390  23.795  0.00  0.00    -0.133 F 
ENDBRANCH   5   2
ENDBRANCH   6   5
BRANCH   8   9
ATOM      9  C   UNL     1      -3.688   0.694  24.086  0.00  0.00    +0.099 C 
BRANCH   9  10
ATOM     10  N   UNL     1      -4.067   1.316  24.475  0.00  0.00    -0.266 NA
ATOM     11  C   UNL     1      -4.857   1.240  24.702  0.00  0.00    +0.094 C 
ATOM     12  C   UNL     1      -5.235   1.862  25.090  0.00  0.00    +0.112 C 
ATOM     13  N   UNL     1      -4.824   2.559  25.252  0.00  0.00    -0.260 N 
ATOM     14  C   UNL     1      -4.035   2.635  25.024  0.00  0.00    +0.115 C 
ATOM     15  C   UNL     1      -3.773   3.381  25.255  0.00  0.00    +0.138 C 
ATOM     16  N   UNL     1      -4.400   3.768  25.626  0.00  0.00    -0.187 NA
ATOM     17  C   UNL     1      -5.050   3.259  25.623  0.00  0.00    +0.323 C 
ATOM     18  O   UNL     1      -5.795   3.423  25.938  0.00  0.00    -0.251 OA
ATOM     19  C   UNL     1      -3.656   2.013  24.635  0.00  0.00    +0.094 C 
ENDBRANCH   9  10
ENDBRANCH   8   9
TORSDOF 4
ENDMDL
MODEL 2
REMARK VINA RESULT:     -10.2      1.819      2.406
REMARK  Name = 
REMARK  4 active torsions:
REMARK  status: ('A' for Active; 'I' for Inactive)
REMARK    1  A    between atoms: C_2  and  O_5
REMARK    2  A    between atoms: O_5  and  C_6
REMARK    3  A    between atoms: C_8  and  C_9
REMARK    4  A    between atoms: C_9  and  N_10
REMARK                            x       y       z     vdW  Elec       q    Type
REMARK                         _______ _______ _______ _____ _____    ______ ____
ROOT
ATOM      6  C   UNL     1      -3.860  -0.174  24.402  0.00  0.00    +0.147 A 
ATOM      7  C   UNL     1      -3.584   0.489  23.996  0.00  0.00    +0.034 A 
ATOM      8  C   UNL     1      -3.875   1.238  24.184  0.00  0.00    -0.003 A 
ATOM     20  C   UNL     1      -4.442   1.324  24.777  0.00  0.00    -0.003 A 
ATOM     21  C   UNL     1      -4.718   0.661  25.182  0.00  0.00    +0.003 A 
ATOM     22  C   UNL     1      -4.427  -0.089  24.995  0.00  0.00    +0.037 A 
ENDROOT
BRANCH   6   5
ATOM      5  O   UNL     1      -3.569  -0.923  24.214  0.00  0.00    -0.404 OA
BRANCH   5   2
ATOM      1  F   UNL     1      -4.611  -2.133  23.797  0.00  0.00    -0.133 F 
ATOM      2  C   UNL     1      -4.090  -1.528  24.005  0.00  0.00    +0.575 C 
ATOM      3  F   UNL     1      -4.098  -1.253  23.228  0.00  0.00    -0.133 F 
ATOM      4  F   UNL     1      -4.082  -1.803  24.783  0.00  0.00    -0.133 F 
ENDBRANCH   5   2
ENDBRANCH   6   5
BRANCH   8   9
ATOM      9  C   UNL     1      -3.599   1.901  23.778  0.00  0.00    +0.099 C 
BRANCH   9  10
ATOM     10  N   UNL     1      -3.000   2.366  24.105  0.00  0.00    -0.266 NA
ATOM     11  C   UNL     1      -2.209   2.169  23.978  0.00  0.00    +0.094 C 
ATOM     12  C   UNL     1      -1.611   2.633  24.305  0.00  0.00    +0.112 C 
ATOM     13  N   UNL     1      -1.803   3.294  24.760  0.00  0.00    -0.260 N 
ATOM     14  C   UNL     1      -2.595   3.491  24.888  0.00  0.00    +0.115 C 
ATOM     15  C   UNL     1      -2.617   4.169  25.356  0.00  0.00    +0.138 C 
ATOM     16  N   UNL     1      -1.839   4.392  25.518  0.00  0.00    -0.187 NA
ATOM     17  C   UNL     1      -1.337   3.851  25.150  0.00  0.00    +0.323 C 
ATOM     18  O   UNL     1      -0.512   3.865  25.168  0.00  0.00    -0.251 OA
ATOM     19  C   UNL     1      -3.193   3.026  24.560  0.00  0.00    +0.094 C 
ENDBRANCH   9  10
ENDBRANCH   8   9
TORSDOF 4
ENDMDL
MODEL 3
REMARK VINA RESULT:     -10.0      1.490      1.784
REMARK  Name = 
REMARK  4 active torsions:
REMARK  status: ('A' for Active; 'I' for Inactive)
REMARK    1  A    between atoms: C_2  and  O_5
REMARK    2  A    between atoms: O_5  and  C_6
REMARK    3  A    between atoms: C_8  and  C_9
REMARK    4  A    between atoms: C_9  and  N_10
REMARK                            x       y       z     vdW  Elec       q    Type
REMARK                         _______ _______ _______ _____ _____    ______ ____
ROOT
ATOM      6  C   UNL     1      -2.273  -0.503  25.282  0.00  0.00    +0.147 A 
ATOM      7  C   UNL     1      -2.713   0.003  24.802  0.00  0.00    +0.034 A 
ATOM      8  C   UNL     1      -3.532  -0.077  24.760  0.00  0.00    -0.003 A 
ATOM     20  C   UNL     1      -3.913  -0.664  25.198  0.00  0.00    -0.003 A 
ATOM     21  C   UNL     1      -3.473  -1.171  25.678  0.00  0.00    +0.003 A 
ATOM     22  C   UNL     1      -2.652  -1.090  25.720  0.00  0.00    +0.037 A 
ENDROOT
BRANCH   6   5
ATOM      5  O   UNL     1      -1.452  -0.423  25.324  0.00  0.00    -0.404 OA
BRANCH   5   2
ATOM      1  F   UNL     1      -0.489  -1.762  25.295  0.00  0.00    -0.133 F 
ATOM      2  C   UNL     1      -0.971  -1.092  25.310  0.00  0.00    +0.575 C 
ATOM      3  F   UNL     1      -1.008  -1.101  24.486  0.00  0.00    -0.133 F 
ATOM      4  F   UNL     1      -0.933  -1.083  26.134  0.00  0.00    -0.133 F 
ENDBRANCH   5   2
ENDBRANCH   6   5
BRANCH   8   9
ATOM      9  C   UNL     1      -3.972   0.429  24.280  0.00  0.00    +0.099 C 
BRANCH   9  10
ATOM     10  N   UNL     1      -4.286   1.126  24.593  0.00  0.00    -0.266 NA
ATOM     11  C   UNL     1      -5.005   1.110  24.998  0.00  0.00    +0.094 C 
ATOM     12  C   UNL     1      -5.318   1.806  25.310  0.00  0.00    +0.112 C 
ATOM     13  N   UNL     1      -4.912   2.519  25.218  0.00  0.00    -0.260 N 
ATOM     14  C   UNL     1      -4.193   2.535  24.814  0.00  0.00    +0.115 C 
ATOM     15  C   UNL     1      -3.920   3.313  24.810  0.00  0.00    +0.138 C 
ATOM     16  N   UNL     1      -4.470   3.778  25.212  0.00  0.00    -0.187 NA
ATOM     17  C   UNL     1      -5.083   3.287  25.464  0.00  0.00    +0.323 C 
ATOM     18  O   UNL     1      -5.750   3.523  25.888  0.00  0.00    -0.251 OA
ATOM     19  C   UNL     1      -3.880   1.838  24.501  0.00  0.00    +0.094 C 
ENDBRANCH   9  10
ENDBRANCH   8   9
TORSDOF 4
ENDMDL
MODEL 4
REMARK VINA RESULT:     -10.0      3.272      4.962
REMARK  Name = 
REMARK  4 active torsions:
REMARK  status: ('A' for Active; 'I' for Inactive)
REMARK    1  A    between atoms: C_2  and  O_5
REMARK    2  A    between atoms: O_5  and  C_6
REMARK    3  A    between atoms: C_8  and  C_9
REMARK    4  A    between atoms: C_9  and  N_10
REMARK                            x       y       z     vdW  Elec       q    Type
REMARK                         _______ _______ _______ _____ _____    ______ ____
ROOT
ATOM      6  C   UNL     1      -2.561   3.709  25.476  0.00  0.00    +0.147 A 
ATOM      7  C   UNL     1      -2.592   3.069  24.956  0.00  0.00    +0.034 A 
ATOM      8  C   UNL     1      -3.318   2.726  24.769  0.00  0.00    -0.003 A 
ATOM     20  C   UNL     1      -4.013   3.022  25.101  0.00  0.00    -0.003 A 
ATOM     21  C   UNL     1      -3.982   3.662  25.621  0.00  0.00    +0.003 A 
ATOM     22  C   UNL     1      -3.255   4.006  25.808  0.00  0.00    +0.037 A 
ENDROOT
BRANCH   6   5
ATOM      5  O   UNL     1      -1.834   4.053  25.663  0.00  0.00    -0.404 OA
BRANCH   5   2
ATOM      1  F   UNL     1      -1.338   5.416  24.876  0.00  0.00    -0.133 F 
ATOM      2  C   UNL     1      -1.586   4.734  25.270  0.00  0.00    +0.575 C 
ATOM      3  F   UNL     1      -1.167   4.270  24.731  0.00  0.00    -0.133 F 
ATOM      4  F   UNL     1      -2.005   5.198  25.808  0.00  0.00    -0.133 F 
ENDBRANCH   5   2
ENDBRANCH   6   5
BRANCH   8   9
ATOM      9  C   UNL     1      -3.350   2.085  24.250  0.00  0.00    +0.099 C 
BRANCH   9  10
ATOM     10  N   UNL     1      -3.336   1.314  24.544  0.00  0.00    -0.266 NA
ATOM     11  C   UNL     1      -4.041   0.941  24.757  0.00  0.00    +0.094 C 
ATOM     12  C   UNL     1      -4.027   0.171  25.050  0.00  0.00    +0.112 C 
ATOM     13  N   UNL     1      -3.309  -0.228  25.131  0.00  0.00    -0.260 N 
ATOM     14  C   UNL     1      -2.604   0.145  24.918  0.00  0.00    +0.115 C 
ATOM     15  C   UNL     1      -1.985  -0.381  25.058  0.00  0.00    +0.138 C 
ATOM     16  N   UNL     1      -2.306  -1.079  25.357  0.00  0.00    -0.187 NA
ATOM     17  C   UNL     1      -3.124  -0.984  25.402  0.00  0.00    +0.323 C 
ATOM     18  O   UNL     1      -3.663  -1.547  25.672  0.00  0.00    -0.251 OA
ATOM     19  C   UNL     1      -2.618   0.917  24.624  0.00  0.00    +0.094 C 
ENDBRANCH   9  10
ENDBRANCH   8   9
TORSDOF 4
ENDMDL
