MODEL 1
REMARK VINA RESULT:     -12.1      0.000      0.000
REMARK  Name = 
REMARK  7 active torsions:
REMARK  status: ('A' for Active; 'I' for Inactive)
REMARK    1  A    between atoms: C_5  and  S_8
REMARK    2  A    between atoms: S_8  and  C_11
REMARK    3  A    between atoms: C_11  and  C_12
REMARK    4  A    between atoms: C_15  and  C_17
REMARK    5  A    between atoms: N_22  and  C_23
REMARK    6  A    between atoms: C_23  and  C_24
REMARK    7  A    between atoms: C_27  and  C_30
REMARK                            x       y       z     vdW  Elec       q    Type
REMARK                         _______ _______ _______ _____ _____    ______ ____
ROOT
ATOM     12  C   UNL     1      -0.608   0.564  24.694  0.00  0.00    +0.205 A 
ATOM     13  N   UNL     1      -0.411   0.768  23.919  0.00  0.00    -0.059 NA
ATOM     14  O   UNL     1      -0.573   1.571  23.817  0.00  0.00    -0.336 OA
ATOM     15  C   UNL     1      -0.870   1.863  24.529  0.00  0.00    +0.251 A 
ATOM     16  N   UNL     1      -0.891   1.241  25.071  0.00  0.00    -0.192 NA
ENDROOT
BRANCH  15  17
ATOM     17  C   UNL     1      -1.104   2.640  24.675  0.00  0.00    +0.140 C 
ATOM     18  C   UNL     1      -0.618   3.252  24.941  0.00  0.00    +0.060 C 
ATOM     19  C   UNL     1      -1.078   3.932  25.010  0.00  0.00    +0.170 C 
ATOM     20  O   UNL     1      -0.815   4.673  25.259  0.00  0.00    -0.222 OA
ATOM     21  C   UNL     1      -1.850   3.742  24.787  0.00  0.00    +0.106 C 
ATOM     22  N   UNL     1      -1.866   2.943  24.580  0.00  0.00    -0.260 NA
BRANCH  22  23
ATOM     23  C   UNL     1      -2.527   2.522  24.323  0.00  0.00    +0.100 C 
BRANCH  23  24
ATOM     24  C   UNL     1      -3.277   2.724  24.598  0.00  0.00    -0.006 A 
ATOM     25  C   UNL     1      -3.555   2.407  25.307  0.00  0.00    -0.003 A 
ATOM     26  C   UNL     1      -4.307   2.609  25.583  0.00  0.00    +0.006 A 
ATOM     27  C   UNL     1      -4.779   3.127  25.149  0.00  0.00    +0.080 A 
ATOM     28  C   UNL     1      -4.501   3.444  24.440  0.00  0.00    +0.006 A 
ATOM     29  C   UNL     1      -3.751   3.243  24.165  0.00  0.00    -0.003 A 
BRANCH  27  30
ATOM     30  C   UNL     1      -5.531   3.329  25.425  0.00  0.00    +0.388 C 
ATOM     31  O   UNL     1      -5.680   4.096  25.691  0.00  0.00    -0.241 OA
ATOM     32  O   UNL     1      -6.131   2.763  25.435  0.00  0.00    -0.241 OA
ENDBRANCH  27  30
ENDBRANCH  23  24
ENDBRANCH  22  23
ENDBRANCH  15  17
BRANCH  12  11
ATOM     11  C   UNL     1      -0.534  -0.185  25.033  0.00  0.00    +0.224 C 
BRANCH  11   8
ATOM      8  S   UNL     1      -1.152  -0.727  24.971  0.00  0.00    +0.016 S 
ATOM      9  O   UNL     1      -1.393  -0.540  25.738  0.00  0.00    -0.168 OA
ATOM     10  O   UNL     1      -0.912  -0.914  24.205  0.00  0.00    -0.168 OA
BRANCH   8   5
ATOM      1  C   UNL     1      -3.625  -2.899  24.727  0.00  0.00    +0.031 C 
ATOM      2  C   UNL     1      -3.007  -2.356  24.788  0.00  0.00    -0.022 A 
ATOM      3  C   UNL     1      -3.131  -1.629  25.157  0.00  0.00    -0.003 A 
ATOM      4  C   UNL     1      -2.513  -1.086  25.218  0.00  0.00    +0.018 A 
ATOM      5  C   UNL     1      -1.771  -1.270  24.910  0.00  0.00    +0.106 A 
ATOM      6  C   UNL     1      -1.646  -1.998  24.540  0.00  0.00    +0.018 A 
ATOM      7  C   UNL     1      -2.264  -2.540  24.480  0.00  0.00    -0.003 A 
ENDBRANCH   8   5
ENDBRANCH  11   8
ENDBRANCH  12  11
TORSDOF 7
ENDMDL
MODEL 2
REMARK VINA RESULT:     -12.0      1.617      4.580
REMARK  Name = 
REMARK  7 active torsions:
REMARK  status: ('A' for Active; 'I' for Inactive)
REMARK    1  A    between atoms: C_5  and  S_8
REMARK    2  A    between atoms: S_8  and  C_11
REMARK    3  A    between atoms: C_11  and  C_12
REMARK    4  A    between atoms: C_15  and  C_17
REMARK    5  A    between atoms: N_22  and  C_23
REMARK    6  A    between atoms: C_23  and  C_24
REMARK    7  A    between atoms: C_27  and  C_30
REMARK                            x       y       z     vdW  Elec       q    Type
REMARK                         _______ _______ _______ _____ _____    ______ ____
ROOT
ATOM     12  C   UNL     1      -0.921   2.851  25.236  0.00  0.00    +0.205 A 
ATOM     13  N   UNL     1      -0.420   2.603  25.844  0.00  0.00    -0.059 NA
ATOM     14  O   UNL     1      -0.132   1.855  25.648  0.00  0.00    -0.336 OA
ATOM     15  C   UNL     1      -0.455   1.640  24.919  0.00  0.00    +0.251 A 
ATOM     16  N   UNL     1      -0.942   2.256  24.665  0.00  0.00    -0.192 NA
ENDROOT
BRANCH  15  17
ATOM     17  C   UNL     1      -0.315   0.935  24.516  0.00  0.00    +0.140 C 
ATOM     18  C   UNL     1       0.258   0.814  23.935  0.00  0.00    +0.060 C 
ATOM     19  C   UNL     1       0.204   0.030  23.682  0.00  0.00    +0.170 C 
ATOM     20  O   UNL     1       0.674  -0.327  23.106  0.00  0.00    -0.222 OA
ATOM     21  C   UNL     1      -0.403  -0.333  24.107  0.00  0.00    +0.106 C 
ATOM     22  N   UNL     1      -0.724   0.226  24.622  0.00  0.00    -0.260 NA
BRANCH  22  23
ATOM     23  C   UNL     1      -1.344   0.099  25.151  0.00  0.00    +0.100 C 
BRANCH  23  24
ATOM     24  C   UNL     1      -1.904  -0.487  24.996  0.00  0.00    -0.006 A 
ATOM     25  C   UNL     1      -1.758  -1.267  25.219  0.00  0.00    -0.003 A 
ATOM     26  C   UNL     1      -2.319  -1.853  25.065  0.00  0.00    +0.006 A 
ATOM     27  C   UNL     1      -3.025  -1.657  24.687  0.00  0.00    +0.080 A 
ATOM     28  C   UNL     1      -3.172  -0.877  24.464  0.00  0.00    +0.006 A 
ATOM     29  C   UNL     1      -2.612  -0.292  24.618  0.00  0.00    -0.003 A 
BRANCH  27  30
ATOM     30  C   UNL     1      -3.586  -2.243  24.532  0.00  0.00    +0.388 C 
ATOM     31  O   UNL     1      -3.623  -2.915  25.010  0.00  0.00    -0.241 OA
ATOM     32  O   UNL     1      -4.109  -2.156  23.900  0.00  0.00    -0.241 OA
ENDBRANCH  27  30
ENDBRANCH  23  24
ENDBRANCH  22  23
ENDBRANCH  15  17
BRANCH  12  11
ATOM     11  C   UNL     1      -1.328   3.568  25.205  0.00  0.00    +0.224 C 
BRANCH  11   8
ATOM      8  S   UNL     1      -2.151   3.577  25.264  0.00  0.00    +0.016 S 
ATOM      9  O   UNL     1      -2.208   3.619  24.441  0.00  0.00    -0.168 OA
ATOM     10  O   UNL     1      -2.094   3.534  26.085  0.00  0.00    -0.168 OA
BRANCH   8   5
ATOM      1  C   UNL     1      -5.443   3.614  25.495  0.00  0.00    +0.031 C 
ATOM      2  C   UNL     1      -4.620   3.604  25.437  0.00  0.00    -0.022 A 
ATOM      3  C   UNL     1      -4.258   3.343  24.743  0.00  0.00    -0.003 A 
ATOM      4  C   UNL     1      -3.435   3.334  24.685  0.00  0.00    +0.018 A 
ATOM      5  C   UNL     1      -2.974   3.586  25.321  0.00  0.00    +0.106 A 
ATOM      6  C   UNL     1      -3.336   3.847  26.016  0.00  0.00    +0.018 A 
ATOM      7  C   UNL     1      -4.159   3.856  26.073  0.00  0.00    -0.003 A 
ENDBRANCH   8   5
ENDBRANCH  11   8
ENDBRANCH  12  11
TORSDOF 7
ENDMDL
MODEL 3
REMARK VINA RESULT:     -11.5      1.673      3.237
REMARK  Name = 
REMARK  7 active torsions:
REMARK  status: ('A' for Active; 'I' for Inactive)
REMARK    1  A    between atoms: C_5  and  S_8
REMARK    2  A    between atoms: S_8  and  C_11
REMARK    3  A    between atoms: C_11  and  C_12
REMARK    4  A    between atoms: C_15  and  C_17
REMARK    5  A    between atoms: N_22  and  C_23
REMARK    6  A    between atoms: C_23  and  C_24
REMARK    7  A    between atoms: C_27  and  C_30
REMARK                            x       y       z     vdW  Elec       q    Type
REMARK                         _______ _______ _______ _____ _____    ______ ____
ROOT
ATOM     12  C   UNL     1      -4.337  -0.247  24.982  0.00  0.00    +0.205 A 
ATOM     13  N   UNL     1      -4.617  -0.074  24.225  0.00  0.00    -0.059 NA
ATOM     14  O   UNL     1      -4.829   0.723  24.207  0.00  0.00    -0.336 OA
ATOM     15  C   UNL     1      -4.680   1.043  24.953  0.00  0.00    +0.251 A 
ATOM     16  N   UNL     1      -4.376   0.444  25.432  0.00  0.00    -0.192 NA
ENDROOT
BRANCH  15  17
ATOM     17  C   UNL     1      -4.812   1.825  25.180  0.00  0.00    +0.140 C 
ATOM     18  C   UNL     1      -5.496   2.118  25.536  0.00  0.00    +0.060 C 
ATOM     19  C   UNL     1      -5.391   2.925  25.668  0.00  0.00    +0.170 C 
ATOM     20  O   UNL     1      -5.938   3.436  26.014  0.00  0.00    -0.222 OA
ATOM     21  C   UNL     1      -4.640   3.132  25.393  0.00  0.00    +0.106 C 
ATOM     22  N   UNL     1      -4.283   2.452  25.091  0.00  0.00    -0.260 NA
BRANCH  22  23
ATOM     23  C   UNL     1      -3.529   2.407  24.759  0.00  0.00    +0.100 C 
BRANCH  23  24
ATOM     24  C   UNL     1      -2.995   3.027  24.862  0.00  0.00    -0.006 A 
ATOM     25  C   UNL     1      -2.467   3.015  25.495  0.00  0.00    -0.003 A 
ATOM     26  C   UNL     1      -1.932   3.636  25.599  0.00  0.00    +0.006 A 
ATOM     27  C   UNL     1      -1.927   4.268  25.068  0.00  0.00    +0.080 A 
ATOM     28  C   UNL     1      -2.456   4.280  24.436  0.00  0.00    +0.006 A 
ATOM     29  C   UNL     1      -2.990   3.660  24.333  0.00  0.00    -0.003 A 
BRANCH  27  30
ATOM     30  C   UNL     1      -1.393   4.888  25.172  0.00  0.00    +0.388 C 
ATOM     31  O   UNL     1      -1.670   5.652  25.320  0.00  0.00    -0.241 OA
ATOM     32  O   UNL     1      -0.582   4.745  25.127  0.00  0.00    -0.241 OA
ENDBRANCH  27  30
ENDBRANCH  23  24
ENDBRANCH  22  23
ENDBRANCH  15  17
BRANCH  12  11
ATOM     11  C   UNL     1      -4.066  -0.981  25.243  0.00  0.00    +0.224 C 
BRANCH  11   8
ATOM      8  S   UNL     1      -3.261  -1.160  25.206  0.00  0.00    +0.016 S 
ATOM      9  O   UNL     1      -3.193  -1.016  26.016  0.00  0.00    -0.168 OA
ATOM     10  O   UNL     1      -3.330  -1.303  24.397  0.00  0.00    -0.168 OA
BRANCH   8   5
ATOM      1  C   UNL     1      -0.043  -1.876  25.061  0.00  0.00    +0.031 C 
ATOM      2  C   UNL     1      -0.848  -1.696  25.098  0.00  0.00    -0.022 A 
ATOM      3  C   UNL     1      -1.104  -1.032  25.514  0.00  0.00    -0.003 A 
ATOM      4  C   UNL     1      -1.908  -0.853  25.550  0.00  0.00    +0.018 A 
ATOM      5  C   UNL     1      -2.457  -1.338  25.170  0.00  0.00    +0.106 A 
ATOM      6  C   UNL     1      -2.200  -2.003  24.754  0.00  0.00    +0.018 A 
ATOM      7  C   UNL     1      -1.396  -2.182  24.718  0.00  0.00    -0.003 A 
ENDBRANCH   8   5
ENDBRANCH  11   8
ENDBRANCH  12  11
TORSDOF 7
ENDMDL
MODEL 4
REMARK VINA RESULT:     -11.4      1.897      4.617
REMARK  Name = 
REMARK  7 active torsions:
REMARK  status: ('A' for Active; 'I' for Inactive)
REMARK    1  A    between atoms: C_5  and  S_8
REMARK    2  A    between atoms: S_8  and  C_11
REMARK    3  A    between atoms: C_11  and  C_12
REMARK    4  A    between atoms: C_15  and  C_17
REMARK    5  A    between atoms: N_22  and  C_23
REMARK    6  A    between atoms: C_23  and  C_24
REMARK    7  A    between atoms: C_27  and  C_30
REMARK                            x       y       z     vdW  Elec       q    Type
REMARK                         _______ _______ _______ _____ _____    ______ ____
ROOT
ATOM     12  C   UNL     1      -3.182   3.701  25.088  0.00  0.00    +0.205 A 
ATOM     13  N   UNL     1      -3.686   3.995  24.504  0.00  0.00    -0.059 NA
ATOM     14  O   UNL     1      -4.373   3.536  24.507  0.00  0.00    -0.336 OA
ATOM     15  C   UNL     1      -4.292   2.960  25.092  0.00  0.00    +0.251 A 
ATOM     16  N   UNL     1      -3.556   3.062  25.451  0.00  0.00    -0.192 NA
ENDROOT
BRANCH  15  17
ATOM     17  C   UNL     1      -4.849   2.383  25.285  0.00  0.00    +0.140 C 
ATOM     18  C   UNL     1      -5.521   2.494  25.751  0.00  0.00    +0.060 C 
ATOM     19  C   UNL     1      -5.920   1.774  25.800  0.00  0.00    +0.170 C 
ATOM     20  O   UNL     1      -6.621   1.635  26.212  0.00  0.00    -0.222 OA
ATOM     21  C   UNL     1      -5.494   1.217  25.364  0.00  0.00    +0.106 C 
ATOM     22  N   UNL     1      -4.833   1.594  25.046  0.00  0.00    -0.260 NA
BRANCH  22  23
ATOM     23  C   UNL     1      -4.256   1.243  24.572  0.00  0.00    +0.100 C 
BRANCH  23  24
ATOM     24  C   UNL     1      -4.108   0.434  24.633  0.00  0.00    -0.006 A 
ATOM     25  C   UNL     1      -3.588   0.152  25.208  0.00  0.00    -0.003 A 
ATOM     26  C   UNL     1      -3.439  -0.658  25.270  0.00  0.00    +0.006 A 
ATOM     27  C   UNL     1      -3.812  -1.185  24.756  0.00  0.00    +0.080 A 
ATOM     28  C   UNL     1      -4.332  -0.903  24.181  0.00  0.00    +0.006 A 
ATOM     29  C   UNL     1      -4.480  -0.094  24.120  0.00  0.00    -0.003 A 
BRANCH  27  30
ATOM     30  C   UNL     1      -3.663  -1.995  24.818  0.00  0.00    +0.388 C 
ATOM     31  O   UNL     1      -3.561  -2.340  25.560  0.00  0.00    -0.241 OA
ATOM     32  O   UNL     1      -3.617  -2.458  24.137  0.00  0.00    -0.241 OA
ENDBRANCH  27  30
ENDBRANCH  23  24
ENDBRANCH  22  23
ENDBRANCH  15  17
BRANCH  12  11
ATOM     11  C   UNL     1      -2.434   3.996  25.275  0.00  0.00    +0.224 C 
BRANCH  11   8
ATOM      8  S   UNL     1      -1.763   3.535  25.138  0.00  0.00    +0.016 S 
ATOM      9  O   UNL     1      -1.763   3.302  25.931  0.00  0.00    -0.168 OA
ATOM     10  O   UNL     1      -1.764   3.767  24.347  0.00  0.00    -0.168 OA
BRANCH   8   5
ATOM      1  C   UNL     1       0.918   1.689  24.594  0.00  0.00    +0.031 C 
ATOM      2  C   UNL     1       0.247   2.150  24.731  0.00  0.00    -0.022 A 
ATOM      3  C   UNL     1       0.023   2.334  25.502  0.00  0.00    -0.003 A 
ATOM      4  C   UNL     1      -0.647   2.795  25.639  0.00  0.00    +0.018 A 
ATOM      5  C   UNL     1      -1.093   3.073  25.003  0.00  0.00    +0.106 A 
ATOM      6  C   UNL     1      -0.869   2.889  24.230  0.00  0.00    +0.018 A 
ATOM      7  C   UNL     1      -0.198   2.428  24.094  0.00  0.00    -0.003 A 
ENDBRANCH   8   5
ENDBRANCH  11   8
ENDBRANCH  12  11
TORSDOF 7
ENDMDL
