MODEL 1
REMARK VINA RESULT:     -12.8      0.000      0.000
REMARK  Name = 
REMARK  5 active torsions:
REMARK  status: ('A' for Active; 'I' for Inactive)
REMARK    1  A    between atoms: C_2  and  C_3
REMARK    2  A    between atoms: C_2  and  C_25
REMARK    3  A    between atoms: C_10  and  N_11
REMARK    4  A    between atoms: C_12  and  C_14
REMARK    5  A    between atoms: N_27  and  C_28
REMARK                            x       y       z     vdW  Elec       q    Type
REMARK                         _______ _______ _______ _____ _____    ______ ____
ROOT
ATOM      3  C   UNL     1      -4.064   3.107  24.509  0.00  0.00    +0.039 C 
ATOM      4  C   UNL     1      -4.698   3.163  25.035  0.00  0.00    +0.003 C 
ATOM      5  C   UNL     1      -5.061   2.479  25.316  0.00  0.00    +0.000 C 
ATOM      6  C   UNL     1      -4.793   1.739  25.071  0.00  0.00    +0.002 C 
ATOM      7  C   UNL     1      -5.425   1.794  25.596  0.00  0.00    +0.000 C 
ATOM      8  C   UNL     1      -5.157   1.053  25.352  0.00  0.00    +0.002 C 
ATOM      9  C   UNL     1      -4.888   0.313  25.108  0.00  0.00    +0.022 C 
ATOM     10  C   UNL     1      -4.254   0.258  24.581  0.00  0.00    +0.096 C 
ATOM     20  C   UNL     1      -3.890   0.942  24.301  0.00  0.00    +0.022 C 
ATOM     21  C   UNL     1      -3.257   0.886  23.775  0.00  0.00    +0.002 C 
ATOM     22  C   UNL     1      -4.159   1.683  24.545  0.00  0.00    +0.032 C 
ATOM     23  C   UNL     1      -3.795   2.367  24.264  0.00  0.00    +0.152 C 
ATOM     24  O   UNL     1      -3.161   2.312  23.738  0.00  0.00    -0.223 OA
ENDROOT
BRANCH  10  11
ATOM     11  N   UNL     1      -3.985  -0.483  24.337  0.00  0.00    -0.202 NA
ATOM     12  C   UNL     1      -3.805  -1.062  24.896  0.00  0.00    +0.282 C 
ATOM     13  O   UNL     1      -3.893  -0.900  25.701  0.00  0.00    -0.267 OA
BRANCH  12  14
ATOM     14  C   UNL     1      -3.536  -1.803  24.652  0.00  0.00    +0.136 A 
ATOM     15  N   UNL     1      -2.753  -2.023  24.785  0.00  0.00    -0.239 NA
ATOM     16  C   UNL     1      -2.484  -2.764  24.540  0.00  0.00    +0.099 A 
ATOM     17  C   UNL     1      -3.000  -3.285  24.163  0.00  0.00    +0.021 A 
ATOM     18  C   UNL     1      -3.784  -3.065  24.029  0.00  0.00    +0.003 A 
ATOM     19  C   UNL     1      -4.052  -2.324  24.274  0.00  0.00    +0.024 A 
ENDBRANCH  12  14
ENDBRANCH  10  11
BRANCH   3   2
ATOM      1  C   UNL     1      -3.914   4.101  23.493  0.00  0.00    +0.010 C 
ATOM      2  C   UNL     1      -3.700   3.793  24.228  0.00  0.00    +0.081 C 
BRANCH   2  25
ATOM     25  C   UNL     1      -3.122   4.170  24.681  0.00  0.00    +0.241 C 
ATOM     26  O   UNL     1      -3.318   4.485  25.419  0.00  0.00    -0.273 OA
ATOM     27  N   UNL     1      -2.351   4.232  24.397  0.00  0.00    -0.207 NA
BRANCH  27  28
ATOM     28  C   UNL     1      -1.774   4.609  24.850  0.00  0.00    +0.095 C 
ATOM     29  C   UNL     1      -1.535   5.247  25.316  0.00  0.00    +0.023 C 
ATOM     30  C   UNL     1      -1.013   4.625  25.170  0.00  0.00    +0.023 C 
ENDBRANCH  27  28
ENDBRANCH   2  25
ENDBRANCH   3   2
TORSDOF 5
ENDMDL
MODEL 2
REMARK VINA RESULT:     -11.7      0.908      5.179
REMARK  Name = 
REMARK  5 active torsions:
REMARK  status: ('A' for Active; 'I' for Inactive)
REMARK    1  A    between atoms: C_2  and  C_3
REMARK    2  A    between atoms: C_2  and  C_25
REMARK    3  A    between atoms: C_10  and  N_11
REMARK    4  A    between atoms: C_12  and  C_14
REMARK    5  A    between atoms: N_27  and  C_28
REMARK                            x       y       z     vdW  Elec       q    Type
REMARK                         _______ _______ _______ _____ _____    ______ ____
ROOT
ATOM      3  C   UNL     1      -4.232   0.026  24.385  0.00  0.00    +0.039 C 
ATOM      4  C   UNL     1      -4.921   0.217  24.798  0.00  0.00    +0.003 C 
ATOM      5  C   UNL     1      -5.029   0.981  25.088  0.00  0.00    +0.000 C 
ATOM      6  C   UNL     1      -4.451   1.555  24.965  0.00  0.00    +0.002 C 
ATOM      7  C   UNL     1      -5.138   1.745  25.378  0.00  0.00    +0.000 C 
ATOM      8  C   UNL     1      -4.559   2.320  25.255  0.00  0.00    +0.002 C 
ATOM      9  C   UNL     1      -3.980   2.894  25.132  0.00  0.00    +0.022 C 
ATOM     10  C   UNL     1      -3.291   2.703  24.718  0.00  0.00    +0.096 C 
ATOM     20  C   UNL     1      -3.182   1.939  24.428  0.00  0.00    +0.022 C 
ATOM     21  C   UNL     1      -2.494   1.749  24.015  0.00  0.00    +0.002 C 
ATOM     22  C   UNL     1      -3.761   1.364  24.551  0.00  0.00    +0.032 C 
ATOM     23  C   UNL     1      -3.653   0.600  24.262  0.00  0.00    +0.152 C 
ATOM     24  O   UNL     1      -2.965   0.410  23.849  0.00  0.00    -0.223 OA
ENDROOT
BRANCH  10  11
ATOM     11  N   UNL     1      -2.712   3.278  24.595  0.00  0.00    -0.202 NA
ATOM     12  C   UNL     1      -2.413   3.706  25.233  0.00  0.00    +0.282 C 
ATOM     13  O   UNL     1      -2.694   3.560  25.996  0.00  0.00    -0.267 OA
BRANCH  12  14
ATOM     14  C   UNL     1      -1.834   4.281  25.110  0.00  0.00    +0.136 A 
ATOM     15  N   UNL     1      -1.056   4.057  24.956  0.00  0.00    -0.239 NA
ATOM     16  C   UNL     1      -0.477   4.632  24.833  0.00  0.00    +0.099 A 
ATOM     17  C   UNL     1      -0.677   5.432  24.865  0.00  0.00    +0.021 A 
ATOM     18  C   UNL     1      -1.456   5.656  25.019  0.00  0.00    +0.003 A 
ATOM     19  C   UNL     1      -2.034   5.081  25.142  0.00  0.00    +0.024 A 
ENDBRANCH  12  14
ENDBRANCH  10  11
BRANCH   3   2
ATOM      1  C   UNL     1      -4.322  -0.916  23.314  0.00  0.00    +0.010 C 
ATOM      2  C   UNL     1      -4.123  -0.739  24.095  0.00  0.00    +0.081 C 
BRANCH   2  25
ATOM     25  C   UNL     1      -3.817  -1.328  24.585  0.00  0.00    +0.241 C 
ATOM     26  O   UNL     1      -4.008  -1.336  25.389  0.00  0.00    -0.273 OA
ATOM     27  N   UNL     1      -3.320  -1.907  24.274  0.00  0.00    -0.207 NA
BRANCH  27  28
ATOM     28  C   UNL     1      -3.014  -2.495  24.764  0.00  0.00    +0.095 C 
ATOM     29  C   UNL     1      -3.119  -3.052  25.364  0.00  0.00    +0.023 C 
ATOM     30  C   UNL     1      -2.378  -2.958  25.015  0.00  0.00    +0.023 C 
ENDBRANCH  27  28
ENDBRANCH   2  25
ENDBRANCH   3   2
TORSDOF 5
ENDMDL
MODEL 3
REMARK VINA RESULT:     -11.4      1.866      5.862
REMARK  Name = 
REMARK  5 active torsions:
REMARK  status: ('A' for Active; 'I' for Inactive)
REMARK    1  A    between atoms: C_2  and  C_3
REMARK    2  A    between atoms: C_2  and  C_25
REMARK    3  A    between atoms: C_10  and  N_11
REMARK    4  A    between atoms: C_12  and  C_14
REMARK    5  A    between atoms: N_27  and  C_28
REMARK                            x       y       z     vdW  Elec       q    Type
REMARK                         _______ _______ _______ _____ _____    ______ ____
ROOT
ATOM      3  C   UNL     1      -2.277  -0.882  25.323  0.00  0.00    +0.039 C 
ATOM      4  C   UNL     1      -1.518  -1.180  25.193  0.00  0.00    +0.003 C 
ATOM      5  C   UNL     1      -0.901  -0.667  25.005  0.00  0.00    +0.000 C 
ATOM      6  C   UNL     1      -1.041   0.143  24.947  0.00  0.00    +0.002 C 
ATOM      7  C   UNL     1      -0.284  -0.154  24.817  0.00  0.00    +0.000 C 
ATOM      8  C   UNL     1      -0.424   0.657  24.758  0.00  0.00    +0.002 C 
ATOM      9  C   UNL     1      -0.564   1.467  24.700  0.00  0.00    +0.022 C 
ATOM     10  C   UNL     1      -1.323   1.765  24.830  0.00  0.00    +0.096 C 
ATOM     20  C   UNL     1      -1.940   1.252  25.018  0.00  0.00    +0.022 C 
ATOM     21  C   UNL     1      -2.699   1.549  25.149  0.00  0.00    +0.002 C 
ATOM     22  C   UNL     1      -1.800   0.441  25.077  0.00  0.00    +0.032 C 
ATOM     23  C   UNL     1      -2.418  -0.072  25.265  0.00  0.00    +0.152 C 
ATOM     24  O   UNL     1      -3.176   0.225  25.395  0.00  0.00    -0.223 OA
ENDROOT
BRANCH  10  11
ATOM     11  N   UNL     1      -1.463   2.576  24.772  0.00  0.00    -0.202 NA
ATOM     12  C   UNL     1      -0.990   3.108  25.187  0.00  0.00    +0.282 C 
ATOM     13  O   UNL     1      -0.375   2.829  25.662  0.00  0.00    -0.267 OA
BRANCH  12  14
ATOM     14  C   UNL     1      -1.130   3.919  25.129  0.00  0.00    +0.136 A 
ATOM     15  N   UNL     1      -1.816   4.244  25.450  0.00  0.00    -0.239 NA
ATOM     16  C   UNL     1      -1.956   5.055  25.391  0.00  0.00    +0.099 A 
ATOM     17  C   UNL     1      -1.409   5.541  25.011  0.00  0.00    +0.021 A 
ATOM     18  C   UNL     1      -0.721   5.216  24.690  0.00  0.00    +0.003 A 
ATOM     19  C   UNL     1      -0.582   4.405  24.749  0.00  0.00    +0.024 A 
ENDBRANCH  12  14
ENDBRANCH  10  11
BRANCH   3   2
ATOM      1  C   UNL     1      -3.246  -1.362  26.257  0.00  0.00    +0.010 C 
ATOM      2  C   UNL     1      -2.895  -1.397  25.512  0.00  0.00    +0.081 C 
BRANCH   2  25
ATOM     25  C   UNL     1      -3.161  -1.945  24.955  0.00  0.00    +0.241 C 
ATOM     26  O   UNL     1      -2.720  -2.627  24.805  0.00  0.00    -0.273 OA
ATOM     27  N   UNL     1      -3.867  -1.813  24.550  0.00  0.00    -0.207 NA
BRANCH  27  28
ATOM     28  C   UNL     1      -4.132  -2.361  23.995  0.00  0.00    +0.095 C 
ATOM     29  C   UNL     1      -4.142  -3.131  23.699  0.00  0.00    +0.023 C 
ATOM     30  C   UNL     1      -4.583  -2.540  23.327  0.00  0.00    +0.023 C 
ENDBRANCH  27  28
ENDBRANCH   2  25
ENDBRANCH   3   2
TORSDOF 5
ENDMDL
MODEL 4
REMARK VINA RESULT:     -10.9      2.716      3.970
REMARK  Name = 
REMARK  5 active torsions:
REMARK  status: ('A' for Active; 'I' for Inactive)
REMARK    1  A    between atoms: C_2  and  C_3
REMARK    2  A    between atoms: C_2  and  C_25
REMARK    3  A    between atoms: C_10  and  N_11
REMARK    4  A    between atoms: C_12  and  C_14
REMARK    5  A    between atoms: N_27  and  C_28
REMARK                            x       y       z     vdW  Elec       q    Type
REMARK                         _______ _______ _______ _____ _____    ______ ____
ROOT
ATOM      3  C   UNL     1      -3.317   3.467  24.913  0.00  0.00    +0.039 C 
ATOM      4  C   UNL     1      -3.009   3.803  25.602  0.00  0.00    +0.003 C 
ATOM      5  C   UNL     1      -2.219   3.681  25.803  0.00  0.00    +0.000 C 
ATOM      6  C   UNL     1      -1.736   3.224  25.316  0.00  0.00    +0.002 C 
ATOM      7  C   UNL     1      -1.429   3.559  26.004  0.00  0.00    +0.000 C 
ATOM      8  C   UNL     1      -0.945   3.102  25.517  0.00  0.00    +0.002 C 
ATOM      9  C   UNL     1      -0.461   2.645  25.030  0.00  0.00    +0.022 C 
ATOM     10  C   UNL     1      -0.768   2.309  24.341  0.00  0.00    +0.096 C 
ATOM     20  C   UNL     1      -1.558   2.431  24.140  0.00  0.00    +0.022 C 
ATOM     21  C   UNL     1      -1.865   2.095  23.452  0.00  0.00    +0.002 C 
ATOM     22  C   UNL     1      -2.043   2.888  24.627  0.00  0.00    +0.032 C 
ATOM     23  C   UNL     1      -2.833   3.010  24.426  0.00  0.00    +0.152 C 
ATOM     24  O   UNL     1      -3.140   2.674  23.738  0.00  0.00    -0.223 OA
ENDROOT
BRANCH  10  11
ATOM     11  N   UNL     1      -0.284   1.851  23.854  0.00  0.00    -0.202 NA
ATOM     12  C   UNL     1       0.166   1.240  24.176  0.00  0.00    +0.282 C 
ATOM     13  O   UNL     1       0.132   1.085  24.987  0.00  0.00    -0.267 OA
BRANCH  12  14
ATOM     14  C   UNL     1       0.651   0.783  23.690  0.00  0.00    +0.136 A 
ATOM     15  N   UNL     1       1.413   1.038  23.509  0.00  0.00    -0.239 NA
ATOM     16  C   UNL     1       1.898   0.581  23.022  0.00  0.00    +0.099 A 
ATOM     17  C   UNL     1       1.618  -0.133  22.716  0.00  0.00    +0.021 A 
ATOM     18  C   UNL     1       0.855  -0.389  22.897  0.00  0.00    +0.003 A 
ATOM     19  C   UNL     1       0.371   0.069  23.384  0.00  0.00    +0.024 A 
ENDBRANCH  12  14
ENDBRANCH  10  11
BRANCH   3   2
ATOM      1  C   UNL     1      -4.301   4.083  24.080  0.00  0.00    +0.010 C 
ATOM      2  C   UNL     1      -4.108   3.589  24.712  0.00  0.00    +0.081 C 
BRANCH   2  25
ATOM     25  C   UNL     1      -4.706   3.218  25.143  0.00  0.00    +0.241 C 
ATOM     26  O   UNL     1      -4.899   3.489  25.899  0.00  0.00    -0.273 OA
ATOM     27  N   UNL     1      -5.111   2.577  24.820  0.00  0.00    -0.207 NA
BRANCH  27  28
ATOM     28  C   UNL     1      -5.709   2.207  25.250  0.00  0.00    +0.095 C 
ATOM     29  C   UNL     1      -6.217   2.192  25.900  0.00  0.00    +0.023 C 
ATOM     30  C   UNL     1      -6.237   1.579  25.347  0.00  0.00    +0.023 C 
ENDBRANCH  27  28
ENDBRANCH   2  25
ENDBRANCH   3   2
TORSDOF 5
ENDMDL
MODEL 5
REMARK VINA RESULT:     -10.5      2.248      4.826
REMARK  Name = 
REMARK  5 active torsions:
REMARK  status: ('A' for Active; 'I' for Inactive)
REMARK    1  A    between atoms: C_2  and  C_3
REMARK    2  A    between atoms: C_2  and  C_25
REMARK    3  A    between atoms: C_10  and  N_11
REMARK    4  A    between atoms: C_12  and  C_14
REMARK    5  A    between atoms: N_27  and  C_28
REMARK                            x       y       z     vdW  Elec       q    Type
REMARK                         _______ _______ _______ _____ _____    ______ ____
ROOT
ATOM      3  C   UNL     1      -1.633  -1.127  24.700  0.00  0.00    +0.039 C 
ATOM      4  C   UNL     1      -2.126  -1.721  24.406  0.00  0.00    +0.003 C 
ATOM      5  C   UNL     1      -2.940  -1.597  24.365  0.00  0.00    +0.000 C 
ATOM      6  C   UNL     1      -3.262  -0.881  24.616  0.00  0.00    +0.002 C 
ATOM      7  C   UNL     1      -3.754  -1.474  24.323  0.00  0.00    +0.000 C 
ATOM      8  C   UNL     1      -4.077  -0.757  24.575  0.00  0.00    +0.002 C 
ATOM      9  C   UNL     1      -4.399  -0.041  24.826  0.00  0.00    +0.022 C 
ATOM     10  C   UNL     1      -3.905   0.553  25.120  0.00  0.00    +0.096 C 
ATOM     20  C   UNL     1      -3.091   0.429  25.162  0.00  0.00    +0.022 C 
ATOM     21  C   UNL     1      -2.598   1.022  25.455  0.00  0.00    +0.002 C 
ATOM     22  C   UNL     1      -2.769  -0.288  24.910  0.00  0.00    +0.032 C 
ATOM     23  C   UNL     1      -1.955  -0.411  24.952  0.00  0.00    +0.152 C 
ATOM     24  O   UNL     1      -1.462   0.182  25.245  0.00  0.00    -0.223 OA
ENDROOT
BRANCH  10  11
ATOM     11  N   UNL     1      -4.228   1.269  25.372  0.00  0.00    -0.202 NA
ATOM     12  C   UNL     1      -4.735   1.690  24.877  0.00  0.00    +0.282 C 
ATOM     13  O   UNL     1      -4.921   1.394  24.128  0.00  0.00    -0.267 OA
BRANCH  12  14
ATOM     14  C   UNL     1      -5.058   2.407  25.129  0.00  0.00    +0.136 A 
ATOM     15  N   UNL     1      -4.660   3.114  24.979  0.00  0.00    -0.239 NA
ATOM     16  C   UNL     1      -4.983   3.830  25.231  0.00  0.00    +0.099 A 
ATOM     17  C   UNL     1      -5.704   3.839  25.632  0.00  0.00    +0.021 A 
ATOM     18  C   UNL     1      -6.102   3.132  25.782  0.00  0.00    +0.003 A 
ATOM     19  C   UNL     1      -5.779   2.416  25.530  0.00  0.00    +0.024 A 
ENDBRANCH  12  14
ENDBRANCH  10  11
BRANCH   3   2
ATOM      1  C   UNL     1      -0.479  -1.527  25.441  0.00  0.00    +0.010 C 
ATOM      2  C   UNL     1      -0.818  -1.252  24.742  0.00  0.00    +0.081 C 
BRANCH   2  25
ATOM     25  C   UNL     1      -0.343  -1.101  24.084  0.00  0.00    +0.241 C 
ATOM     26  O   UNL     1      -0.411  -1.571  23.409  0.00  0.00    -0.273 OA
ATOM     27  N   UNL     1       0.201  -0.481  24.101  0.00  0.00    -0.207 NA
BRANCH  27  28
ATOM     28  C   UNL     1       0.676  -0.331  23.444  0.00  0.00    +0.095 C 
ATOM     29  C   UNL     1       0.814  -0.393  22.634  0.00  0.00    +0.023 C 
ATOM     30  C   UNL     1       1.361  -0.008  23.117  0.00  0.00    +0.023 C 
ENDBRANCH  27  28
ENDBRANCH   2  25
ENDBRANCH   3   2
TORSDOF 5
ENDMDL
MODEL 6
REMARK VINA RESULT:     -10.5      2.136      3.144
REMARK  Name = 
REMARK  5 active torsions:
REMARK  status: ('A' for Active; 'I' for Inactive)
REMARK    1  A    between atoms: C_2  and  C_3
REMARK    2  A    between atoms: C_2  and  C_25
REMARK    3  A    between atoms: C_10  and  N_11
REMARK    4  A    between atoms: C_12  and  C_14
REMARK    5  A    between atoms: N_27  and  C_28
REMARK                            x       y       z     vdW  Elec       q    Type
REMARK                         _______ _______ _______ _____ _____    ______ ____
ROOT
ATOM      3  C   UNL     1      -0.401   2.256  25.219  0.00  0.00    +0.039 C 
ATOM      4  C   UNL     1       0.261   2.075  24.758  0.00  0.00    +0.003 C 
ATOM      5  C   UNL     1       0.273   1.385  24.308  0.00  0.00    +0.000 C 
ATOM      6  C   UNL     1      -0.374   0.875  24.317  0.00  0.00    +0.002 C 
ATOM      7  C   UNL     1       0.286   0.695  23.858  0.00  0.00    +0.000 C 
ATOM      8  C   UNL     1      -0.362   0.184  23.867  0.00  0.00    +0.002 C 
ATOM      9  C   UNL     1      -1.010  -0.327  23.876  0.00  0.00    +0.022 C 
ATOM     10  C   UNL     1      -1.671  -0.146  24.337  0.00  0.00    +0.096 C 
ATOM     20  C   UNL     1      -1.683   0.544  24.787  0.00  0.00    +0.022 C 
ATOM     21  C   UNL     1      -2.344   0.725  25.247  0.00  0.00    +0.002 C 
ATOM     22  C   UNL     1      -1.036   1.055  24.778  0.00  0.00    +0.032 C 
ATOM     23  C   UNL     1      -1.048   1.746  25.228  0.00  0.00    +0.152 C 
ATOM     24  O   UNL     1      -1.709   1.926  25.688  0.00  0.00    -0.223 OA
ENDROOT
BRANCH  10  11
ATOM     11  N   UNL     1      -2.319  -0.657  24.345  0.00  0.00    -0.202 NA
ATOM     12  C   UNL     1      -2.202  -1.473  24.339  0.00  0.00    +0.282 C 
ATOM     13  O   UNL     1      -1.435  -1.779  24.324  0.00  0.00    -0.267 OA
BRANCH  12  14
ATOM     14  C   UNL     1      -2.849  -1.984  24.348  0.00  0.00    +0.136 A 
ATOM     15  N   UNL     1      -3.504  -1.830  23.871  0.00  0.00    -0.239 NA
ATOM     16  C   UNL     1      -4.151  -2.341  23.880  0.00  0.00    +0.099 A 
ATOM     17  C   UNL     1      -4.144  -3.006  24.367  0.00  0.00    +0.021 A 
ATOM     18  C   UNL     1      -3.489  -3.161  24.845  0.00  0.00    +0.003 A 
ATOM     19  C   UNL     1      -2.842  -2.650  24.836  0.00  0.00    +0.024 A 
ENDBRANCH  12  14
ENDBRANCH  10  11
BRANCH   3   2
ATOM      1  C   UNL     1      -0.238   2.917  26.475  0.00  0.00    +0.010 C 
ATOM      2  C   UNL     1      -0.412   2.947  25.670  0.00  0.00    +0.081 C 
BRANCH   2  25
ATOM     25  C   UNL     1      -0.598   3.669  25.315  0.00  0.00    +0.241 C 
ATOM     26  O   UNL     1      -0.152   3.942  24.676  0.00  0.00    -0.273 OA
ATOM     27  N   UNL     1      -1.229   4.118  25.599  0.00  0.00    -0.207 NA
BRANCH  27  28
ATOM     28  C   UNL     1      -1.414   4.839  25.244  0.00  0.00    +0.095 C 
ATOM     29  C   UNL     1      -1.175   5.529  24.860  0.00  0.00    +0.023 C 
ATOM     30  C   UNL     1      -1.975   5.399  25.014  0.00  0.00    +0.023 C 
ENDBRANCH  27  28
ENDBRANCH   2  25
ENDBRANCH   3   2
TORSDOF 5
ENDMDL
MODEL 7
REMARK VINA RESULT:      -9.9      2.986      4.223
REMARK  Name = 
REMARK  5 active torsions:
REMARK  status: ('A' for Active; 'I' for Inactive)
REMARK    1  A    between atoms: C_2  and  C_3
REMARK    2  A    between atoms: C_2  and  C_25
REMARK    3  A    between atoms: C_10  and  N_11
REMARK    4  A    between atoms: C_12  and  C_14
REMARK    5  A    between atoms: N_27  and  C_28
REMARK                            x       y       z     vdW  Elec       q    Type
REMARK                         _______ _______ _______ _____ _____    ______ ____
ROOT
ATOM      3  C   UNL     1      -3.643   0.209  24.833  0.00  0.00    +0.039 C 
ATOM      4  C   UNL     1      -3.565  -0.304  25.475  0.00  0.00    +0.003 C 
ATOM      5  C   UNL     1      -2.821  -0.589  25.687  0.00  0.00    +0.000 C 
ATOM      6  C   UNL     1      -2.155  -0.361  25.258  0.00  0.00    +0.002 C 
ATOM      7  C   UNL     1      -2.077  -0.874  25.899  0.00  0.00    +0.000 C 
ATOM      8  C   UNL     1      -1.410  -0.646  25.469  0.00  0.00    +0.002 C 
ATOM      9  C   UNL     1      -0.744  -0.419  25.040  0.00  0.00    +0.022 C 
ATOM     10  C   UNL     1      -0.822   0.095  24.398  0.00  0.00    +0.096 C 
ATOM     20  C   UNL     1      -1.566   0.379  24.186  0.00  0.00    +0.022 C 
ATOM     21  C   UNL     1      -1.644   0.892  23.545  0.00  0.00    +0.002 C 
ATOM     22  C   UNL     1      -2.233   0.152  24.616  0.00  0.00    +0.032 C 
ATOM     23  C   UNL     1      -2.977   0.437  24.404  0.00  0.00    +0.152 C 
ATOM     24  O   UNL     1      -3.055   0.949  23.763  0.00  0.00    -0.223 OA
ENDROOT
BRANCH  10  11
ATOM     11  N   UNL     1      -0.155   0.322  23.969  0.00  0.00    -0.202 NA
ATOM     12  C   UNL     1       0.387  -0.245  23.716  0.00  0.00    +0.282 C 
ATOM     13  O   UNL     1       0.262  -1.043  23.892  0.00  0.00    -0.267 OA
BRANCH  12  14
ATOM     14  C   UNL     1       1.054  -0.018  23.287  0.00  0.00    +0.136 A 
ATOM     15  N   UNL     1       1.536   0.590  23.565  0.00  0.00    -0.239 NA
ATOM     16  C   UNL     1       2.204   0.817  23.136  0.00  0.00    +0.099 A 
ATOM     17  C   UNL     1       2.387   0.436  22.427  0.00  0.00    +0.021 A 
ATOM     18  C   UNL     1       1.904  -0.173  22.149  0.00  0.00    +0.003 A 
ATOM     19  C   UNL     1       1.238  -0.399  22.579  0.00  0.00    +0.024 A 
ENDBRANCH  12  14
ENDBRANCH  10  11
BRANCH   3   2
ATOM      1  C   UNL     1      -4.759   0.213  23.940  0.00  0.00    +0.010 C 
ATOM      2  C   UNL     1      -4.388   0.494  24.622  0.00  0.00    +0.081 C 
BRANCH   2  25
ATOM     25  C   UNL     1      -4.764   1.059  25.091  0.00  0.00    +0.241 C 
ATOM     26  O   UNL     1      -5.076   0.845  25.825  0.00  0.00    -0.273 OA
ATOM     27  N   UNL     1      -4.828   1.838  24.828  0.00  0.00    -0.207 NA
BRANCH  27  28
ATOM     28  C   UNL     1      -5.203   2.403  25.297  0.00  0.00    +0.095 C 
ATOM     29  C   UNL     1      -5.735   2.593  25.897  0.00  0.00    +0.023 C 
ATOM     30  C   UNL     1      -5.320   3.192  25.510  0.00  0.00    +0.023 C 
ENDBRANCH  27  28
ENDBRANCH   2  25
ENDBRANCH   3   2
TORSDOF 5
ENDMDL
MODEL 8
REMARK VINA RESULT:      -9.8      3.072      4.953
REMARK  Name = 
REMARK  5 active torsions:
REMARK  status: ('A' for Active; 'I' for Inactive)
REMARK    1  A    between atoms: C_2  and  C_3
REMARK    2  A    between atoms: C_2  and  C_25
REMARK    3  A    between atoms: C_10  and  N_11
REMARK    4  A    between atoms: C_12  and  C_14
REMARK    5  A    between atoms: N_27  and  C_28
REMARK                            x       y       z     vdW  Elec       q    Type
REMARK                         _______ _______ _______ _____ _____    ______ ____
ROOT
ATOM      3  C   UNL     1      -0.156   0.647  24.092  0.00  0.00    +0.039 C 
ATOM      4  C   UNL     1       0.251   1.362  24.168  0.00  0.00    +0.003 C 
ATOM      5  C   UNL     1      -0.147   2.037  24.424  0.00  0.00    +0.000 C 
ATOM      6  C   UNL     1      -0.951   1.999  24.603  0.00  0.00    +0.002 C 
ATOM      7  C   UNL     1      -0.546   2.712  24.679  0.00  0.00    +0.000 C 
ATOM      8  C   UNL     1      -1.350   2.674  24.859  0.00  0.00    +0.002 C 
ATOM      9  C   UNL     1      -2.154   2.636  25.039  0.00  0.00    +0.022 C 
ATOM     10  C   UNL     1      -2.560   1.921  24.963  0.00  0.00    +0.096 C 
ATOM     20  C   UNL     1      -2.162   1.246  24.708  0.00  0.00    +0.022 C 
ATOM     21  C   UNL     1      -2.568   0.532  24.632  0.00  0.00    +0.002 C 
ATOM     22  C   UNL     1      -1.358   1.284  24.528  0.00  0.00    +0.032 C 
ATOM     23  C   UNL     1      -0.959   0.609  24.272  0.00  0.00    +0.152 C 
ATOM     24  O   UNL     1      -1.365  -0.106  24.196  0.00  0.00    -0.223 OA
ENDROOT
BRANCH  10  11
ATOM     11  N   UNL     1      -3.365   1.883  25.143  0.00  0.00    -0.202 NA
ATOM     12  C   UNL     1      -3.871   2.485  24.897  0.00  0.00    +0.282 C 
ATOM     13  O   UNL     1      -3.574   3.127  24.470  0.00  0.00    -0.267 OA
BRANCH  12  14
ATOM     14  C   UNL     1      -4.676   2.447  25.077  0.00  0.00    +0.136 A 
ATOM     15  N   UNL     1      -5.176   1.963  24.635  0.00  0.00    -0.239 NA
ATOM     16  C   UNL     1      -5.980   1.926  24.815  0.00  0.00    +0.099 A 
ATOM     17  C   UNL     1      -6.284   2.373  25.438  0.00  0.00    +0.021 A 
ATOM     18  C   UNL     1      -5.784   2.858  25.881  0.00  0.00    +0.003 A 
ATOM     19  C   UNL     1      -4.980   2.895  25.700  0.00  0.00    +0.024 A 
ENDBRANCH  12  14
ENDBRANCH  10  11
BRANCH   3   2
ATOM      1  C   UNL     1       0.143  -0.743  24.237  0.00  0.00    +0.010 C 
ATOM      2  C   UNL     1       0.243  -0.029  23.837  0.00  0.00    +0.081 C 
BRANCH   2  25
ATOM     25  C   UNL     1       0.742   0.009  23.181  0.00  0.00    +0.241 C 
ATOM     26  O   UNL     1       0.425   0.122  22.427  0.00  0.00    -0.273 OA
ATOM     27  N   UNL     1       1.558  -0.067  23.277  0.00  0.00    -0.207 NA
BRANCH  27  28
ATOM     28  C   UNL     1       2.056  -0.029  22.622  0.00  0.00    +0.095 C 
ATOM     29  C   UNL     1       2.197  -0.175  21.822  0.00  0.00    +0.023 C 
ATOM     30  C   UNL     1       2.779   0.183  22.285  0.00  0.00    +0.023 C 
ENDBRANCH  27  28
ENDBRANCH   2  25
ENDBRANCH   3   2
TORSDOF 5
ENDMDL
