MODEL 1
REMARK VINA RESULT:     -10.8      0.000      0.000
REMARK  Name = 
REMARK  8 active torsions:
REMARK  status: ('A' for Active; 'I' for Inactive)
REMARK    1  A    between atoms: O_2  and  C_3
REMARK    2  A    between atoms: C_3  and  C_4
REMARK    3  A    between atoms: N_8  and  C_9
REMARK    4  A    between atoms: C_9  and  C_10
REMARK    5  A    between atoms: C_17  and  C_18
REMARK    6  A    between atoms: C_18  and  N_19
REMARK    7  A    between atoms: C_20  and  C_22
REMARK    8  A    between atoms: C_25  and  C_28
REMARK                            x       y       z     vdW  Elec       q    Type
REMARK                         _______ _______ _______ _____ _____    ______ ____
ROOT
ATOM     10  C   UNL     1      -3.212  -0.022  24.929  0.00  0.00    +0.032 C 
ATOM     11  C   UNL     1      -2.651   0.500  25.063  0.00  0.00    +0.073 C 
ATOM     12  N   UNL     1      -3.450   0.665  24.939  0.00  0.00    -0.272 NA
ATOM     13  C   UNL     1      -3.935  -0.253  24.788  0.00  0.00    +0.072 C 
ATOM     14  C   UNL     1      -4.479  -0.595  24.669  0.00  0.00    +0.017 C 
ATOM     15  C   UNL     1      -3.994   0.147  24.807  0.00  0.00    +0.005 C 
ATOM     16  C   UNL     1      -4.436   0.905  24.787  0.00  0.00    +0.018 C 
ATOM     17  C   UNL     1      -3.916   1.449  24.917  0.00  0.00    +0.079 C 
ENDROOT
BRANCH  10   9
ATOM      9  C   UNL     1      -2.990  -0.818  24.908  0.00  0.00    +0.073 C 
BRANCH   9   8
ATOM      4  C   UNL     1      -1.845  -1.736  24.856  0.00  0.00    +0.087 C 
ATOM      5  C   UNL     1      -1.072  -1.722  25.146  0.00  0.00    +0.020 C 
ATOM      6  C   UNL     1      -0.964  -1.012  25.550  0.00  0.00    +0.019 C 
ATOM      7  C   UNL     1      -1.669  -0.586  25.510  0.00  0.00    +0.072 C 
ATOM      8  N   UNL     1      -2.214  -1.034  25.081  0.00  0.00    -0.272 NA
BRANCH   4   3
ATOM      3  C   UNL     1      -2.187  -2.346  24.418  0.00  0.00    +0.158 C 
BRANCH   3   2
ATOM      1  C   UNL     1      -2.052  -3.510  23.600  0.00  0.00    +0.174 C 
ATOM      2  O   UNL     1      -1.710  -2.899  24.037  0.00  0.00    -0.350 OA
ENDBRANCH   3   2
ENDBRANCH   4   3
ENDBRANCH   9   8
ENDBRANCH  10   9
BRANCH  17  18
ATOM     18  C   UNL     1      -3.828   2.265  24.992  0.00  0.00    +0.131 C 
BRANCH  18  19
ATOM     19  N   UNL     1      -4.480   2.736  25.176  0.00  0.00    -0.200 NA
ATOM     20  C   UNL     1      -4.377   3.540  25.329  0.00  0.00    +0.265 C 
ATOM     21  O   UNL     1      -5.029   4.011  25.513  0.00  0.00    -0.268 OA
BRANCH  20  22
ATOM     22  C   UNL     1      -3.624   3.874  25.297  0.00  0.00    +0.055 A 
ATOM     23  C   UNL     1      -3.309   4.114  24.573  0.00  0.00    +0.005 A 
ATOM     24  C   UNL     1      -2.556   4.448  24.541  0.00  0.00    +0.004 A 
ATOM     25  C   UNL     1      -2.116   4.542  25.233  0.00  0.00    +0.071 A 
ATOM     26  C   UNL     1      -2.431   4.302  25.957  0.00  0.00    +0.004 A 
ATOM     27  C   UNL     1      -3.185   3.968  25.989  0.00  0.00    +0.005 A 
BRANCH  25  28
ATOM     28  C   UNL     1      -1.363   4.876  25.201  0.00  0.00    +0.419 C 
ATOM     29  F   UNL     1      -0.609   5.209  25.170  0.00  0.00    -0.166 F 
ATOM     30  F   UNL     1      -1.030   4.121  25.169  0.00  0.00    -0.166 F 
ATOM     31  F   UNL     1      -1.696   5.630  25.234  0.00  0.00    -0.166 F 
ENDBRANCH  25  28
ENDBRANCH  20  22
ENDBRANCH  18  19
ENDBRANCH  17  18
TORSDOF 8
ENDMDL
MODEL 2
REMARK VINA RESULT:     -10.5      2.678      3.548
REMARK  Name = 
REMARK  8 active torsions:
REMARK  status: ('A' for Active; 'I' for Inactive)
REMARK    1  A    between atoms: O_2  and  C_3
REMARK    2  A    between atoms: C_3  and  C_4
REMARK    3  A    between atoms: N_8  and  C_9
REMARK    4  A    between atoms: C_9  and  C_10
REMARK    5  A    between atoms: C_17  and  C_18
REMARK    6  A    between atoms: C_18  and  N_19
REMARK    7  A    between atoms: C_20  and  C_22
REMARK    8  A    between atoms: C_25  and  C_28
REMARK                            x       y       z     vdW  Elec       q    Type
REMARK                         _______ _______ _______ _____ _____    ______ ____
ROOT
ATOM     10  C   UNL     1      -0.944   1.471  24.984  0.00  0.00    +0.032 C 
ATOM     11  C   UNL     1      -1.622   1.212  24.702  0.00  0.00    +0.073 C 
ATOM     12  N   UNL     1      -1.489   1.947  25.052  0.00  0.00    -0.272 NA
ATOM     13  C   UNL     1      -0.477   1.984  25.322  0.00  0.00    +0.072 C 
ATOM     14  C   UNL     1       0.029   2.301  25.586  0.00  0.00    +0.017 C 
ATOM     15  C   UNL     1      -0.822   2.194  25.326  0.00  0.00    +0.005 C 
ATOM     16  C   UNL     1      -1.361   2.870  25.482  0.00  0.00    +0.018 C 
ATOM     17  C   UNL     1      -2.043   2.653  25.217  0.00  0.00    +0.079 C 
ENDROOT
BRANCH  10   9
ATOM      9  C   UNL     1      -0.294   0.965  24.929  0.00  0.00    +0.073 C 
BRANCH   9   8
ATOM      4  C   UNL     1      -0.031  -0.237  24.125  0.00  0.00    +0.087 C 
ATOM      5  C   UNL     1      -0.304  -1.015  24.134  0.00  0.00    +0.020 C 
ATOM      6  C   UNL     1      -0.845  -1.090  24.751  0.00  0.00    +0.019 C 
ATOM      7  C   UNL     1      -0.908  -0.357  25.125  0.00  0.00    +0.072 C 
ATOM      8  N   UNL     1      -0.405   0.171  24.738  0.00  0.00    -0.272 NA
BRANCH   4   3
ATOM      3  C   UNL     1       0.518   0.079  23.597  0.00  0.00    +0.158 C 
BRANCH   3   2
ATOM      1  C   UNL     1       1.488  -0.107  22.564  0.00  0.00    +0.174 C 
ATOM      2  O   UNL     1       0.904  -0.413  23.060  0.00  0.00    -0.350 OA
ENDBRANCH   3   2
ENDBRANCH   4   3
ENDBRANCH   9   8
ENDBRANCH  10   9
BRANCH  17  18
ATOM     18  C   UNL     1      -2.822   2.909  25.131  0.00  0.00    +0.131 C 
BRANCH  18  19
ATOM     19  N   UNL     1      -2.991   3.574  24.673  0.00  0.00    -0.200 NA
ATOM     20  C   UNL     1      -3.775   3.774  24.512  0.00  0.00    +0.265 C 
ATOM     21  O   UNL     1      -3.944   4.439  24.054  0.00  0.00    -0.268 OA
BRANCH  20  22
ATOM     22  C   UNL     1      -4.390   3.310  24.807  0.00  0.00    +0.055 A 
ATOM     23  C   UNL     1      -4.732   3.495  25.535  0.00  0.00    +0.005 A 
ATOM     24  C   UNL     1      -5.346   3.031  25.831  0.00  0.00    +0.004 A 
ATOM     25  C   UNL     1      -5.619   2.383  25.399  0.00  0.00    +0.071 A 
ATOM     26  C   UNL     1      -5.277   2.199  24.671  0.00  0.00    +0.004 A 
ATOM     27  C   UNL     1      -4.662   2.662  24.375  0.00  0.00    +0.005 A 
BRANCH  25  28
ATOM     28  C   UNL     1      -6.234   1.919  25.695  0.00  0.00    +0.419 C 
ATOM     29  F   UNL     1      -6.848   1.455  25.991  0.00  0.00    -0.166 F 
ATOM     30  F   UNL     1      -6.573   1.890  24.944  0.00  0.00    -0.166 F 
ATOM     31  F   UNL     1      -5.894   1.949  26.446  0.00  0.00    -0.166 F 
ENDBRANCH  25  28
ENDBRANCH  20  22
ENDBRANCH  18  19
ENDBRANCH  17  18
TORSDOF 8
ENDMDL
MODEL 3
REMARK VINA RESULT:     -10.4      2.886      6.011
REMARK  Name = 
REMARK  8 active torsions:
REMARK  status: ('A' for Active; 'I' for Inactive)
REMARK    1  A    between atoms: O_2  and  C_3
REMARK    2  A    between atoms: C_3  and  C_4
REMARK    3  A    between atoms: N_8  and  C_9
REMARK    4  A    between atoms: C_9  and  C_10
REMARK    5  A    between atoms: C_17  and  C_18
REMARK    6  A    between atoms: C_18  and  N_19
REMARK    7  A    between atoms: C_20  and  C_22
REMARK    8  A    between atoms: C_25  and  C_28
REMARK                            x       y       z     vdW  Elec       q    Type
REMARK                         _______ _______ _______ _____ _____    ______ ____
ROOT
ATOM     10  C   UNL     1      -1.278   1.988  24.734  0.00  0.00    +0.032 C 
ATOM     11  C   UNL     1      -1.910   1.599  24.969  0.00  0.00    +0.073 C 
ATOM     12  N   UNL     1      -1.203   1.265  24.705  0.00  0.00    -0.272 NA
ATOM     13  C   UNL     1      -0.557   2.056  24.465  0.00  0.00    +0.072 C 
ATOM     14  C   UNL     1       0.021   2.272  24.250  0.00  0.00    +0.017 C 
ATOM     15  C   UNL     1      -0.587   1.652  24.476  0.00  0.00    +0.005 C 
ATOM     16  C   UNL     1      -0.338   0.816  24.383  0.00  0.00    +0.018 C 
ATOM     17  C   UNL     1      -0.937   0.398  24.606  0.00  0.00    +0.079 C 
ENDROOT
BRANCH  10   9
ATOM      9  C   UNL     1      -1.314   2.813  24.748  0.00  0.00    +0.073 C 
BRANCH   9   8
ATOM      4  C   UNL     1      -2.060   3.984  25.230  0.00  0.00    +0.087 C 
ATOM      5  C   UNL     1      -2.840   4.126  25.456  0.00  0.00    +0.020 C 
ATOM      6  C   UNL     1      -3.261   3.421  25.378  0.00  0.00    +0.019 C 
ATOM      7  C   UNL     1      -2.741   2.843  25.103  0.00  0.00    +0.072 C 
ATOM      8  N   UNL     1      -1.998   3.191  25.011  0.00  0.00    -0.272 NA
BRANCH   4   3
ATOM      3  C   UNL     1      -1.448   4.538  25.223  0.00  0.00    +0.158 C 
BRANCH   3   2
ATOM      1  C   UNL     1      -1.014   5.853  24.870  0.00  0.00    +0.174 C 
ATOM      2  O   UNL     1      -1.615   5.335  25.097  0.00  0.00    -0.350 OA
ENDBRANCH   3   2
ENDBRANCH   4   3
ENDBRANCH   9   8
ENDBRANCH  10   9
BRANCH  17  18
ATOM     18  C   UNL     1      -1.193  -0.380  24.701  0.00  0.00    +0.131 C 
BRANCH  18  19
ATOM     19  N   UNL     1      -0.714  -0.928  25.091  0.00  0.00    -0.200 NA
ATOM     20  C   UNL     1      -0.984  -1.697  25.213  0.00  0.00    +0.265 C 
ATOM     21  O   UNL     1      -0.505  -2.245  25.603  0.00  0.00    -0.268 OA
BRANCH  20  22
ATOM     22  C   UNL     1      -1.732  -1.920  24.945  0.00  0.00    +0.055 A 
ATOM     23  C   UNL     1      -1.815  -2.282  24.209  0.00  0.00    +0.005 A 
ATOM     24  C   UNL     1      -2.563  -2.505  23.941  0.00  0.00    +0.004 A 
ATOM     25  C   UNL     1      -3.227  -2.366  24.410  0.00  0.00    +0.071 A 
ATOM     26  C   UNL     1      -3.144  -2.004  25.147  0.00  0.00    +0.004 A 
ATOM     27  C   UNL     1      -2.396  -1.781  25.415  0.00  0.00    +0.005 A 
BRANCH  25  28
ATOM     28  C   UNL     1      -3.975  -2.589  24.143  0.00  0.00    +0.419 C 
ATOM     29  F   UNL     1      -4.723  -2.812  23.876  0.00  0.00    -0.166 F 
ATOM     30  F   UNL     1      -3.903  -3.308  24.541  0.00  0.00    -0.166 F 
ATOM     31  F   UNL     1      -4.047  -1.870  23.745  0.00  0.00    -0.166 F 
ENDBRANCH  25  28
ENDBRANCH  20  22
ENDBRANCH  18  19
ENDBRANCH  17  18
TORSDOF 8
ENDMDL
MODEL 4
REMARK VINA RESULT:     -10.1      1.840      2.753
REMARK  Name = 
REMARK  8 active torsions:
REMARK  status: ('A' for Active; 'I' for Inactive)
REMARK    1  A    between atoms: O_2  and  C_3
REMARK    2  A    between atoms: C_3  and  C_4
REMARK    3  A    between atoms: N_8  and  C_9
REMARK    4  A    between atoms: C_9  and  C_10
REMARK    5  A    between atoms: C_17  and  C_18
REMARK    6  A    between atoms: C_18  and  N_19
REMARK    7  A    between atoms: C_20  and  C_22
REMARK    8  A    between atoms: C_25  and  C_28
REMARK                            x       y       z     vdW  Elec       q    Type
REMARK                         _______ _______ _______ _____ _____    ______ ____
ROOT
ATOM     10  C   UNL     1      -1.963  -0.347  24.750  0.00  0.00    +0.032 C 
ATOM     11  C   UNL     1      -2.345   0.324  24.846  0.00  0.00    +0.073 C 
ATOM     12  N   UNL     1      -1.532   0.208  24.931  0.00  0.00    -0.272 NA
ATOM     13  C   UNL     1      -1.340  -0.803  24.734  0.00  0.00    +0.072 C 
ATOM     14  C   UNL     1      -0.922  -1.302  24.680  0.00  0.00    +0.017 C 
ATOM     15  C   UNL     1      -1.165  -0.453  24.835  0.00  0.00    +0.005 C 
ATOM     16  C   UNL     1      -0.518   0.101  25.046  0.00  0.00    +0.018 C 
ATOM     17  C   UNL     1      -0.854   0.779  25.150  0.00  0.00    +0.079 C 
ENDROOT
BRANCH  10   9
ATOM      9  C   UNL     1      -2.411  -1.010  24.542  0.00  0.00    +0.073 C 
BRANCH   9   8
ATOM      4  C   UNL     1      -3.752  -1.546  24.271  0.00  0.00    +0.087 C 
ATOM      5  C   UNL     1      -4.492  -1.215  24.117  0.00  0.00    +0.020 C 
ATOM      6  C   UNL     1      -4.413  -0.395  24.127  0.00  0.00    +0.019 C 
ATOM      7  C   UNL     1      -3.623  -0.217  24.288  0.00  0.00    +0.072 C 
ATOM      8  N   UNL     1      -3.214  -0.929  24.377  0.00  0.00    -0.272 NA
BRANCH   4   3
ATOM      3  C   UNL     1      -3.581  -2.352  24.312  0.00  0.00    +0.158 C 
BRANCH   3   2
ATOM      1  C   UNL     1      -3.935  -3.708  24.037  0.00  0.00    +0.174 C 
ATOM      2  O   UNL     1      -4.120  -2.904  24.024  0.00  0.00    -0.350 OA
ENDBRANCH   3   2
ENDBRANCH   4   3
ENDBRANCH   9   8
ENDBRANCH  10   9
BRANCH  17  18
ATOM     18  C   UNL     1      -0.696   1.564  25.345  0.00  0.00    +0.131 C 
BRANCH  18  19
ATOM     19  N   UNL     1      -0.082   1.745  25.865  0.00  0.00    -0.200 NA
ATOM     20  C   UNL     1       0.038   2.525  26.106  0.00  0.00    +0.265 C 
ATOM     21  O   UNL     1       0.652   2.706  26.626  0.00  0.00    -0.268 OA
BRANCH  20  22
ATOM     22  C   UNL     1      -0.457   3.124  25.827  0.00  0.00    +0.055 A 
ATOM     23  C   UNL     1      -0.244   3.555  25.157  0.00  0.00    +0.005 A 
ATOM     24  C   UNL     1      -0.738   4.154  24.878  0.00  0.00    +0.004 A 
ATOM     25  C   UNL     1      -1.445   4.321  25.270  0.00  0.00    +0.071 A 
ATOM     26  C   UNL     1      -1.657   3.890  25.941  0.00  0.00    +0.004 A 
ATOM     27  C   UNL     1      -1.163   3.291  26.219  0.00  0.00    +0.005 A 
BRANCH  25  28
ATOM     28  C   UNL     1      -1.939   4.920  24.992  0.00  0.00    +0.419 C 
ATOM     29  F   UNL     1      -2.434   5.519  24.713  0.00  0.00    -0.166 F 
ATOM     30  F   UNL     1      -2.474   4.353  24.721  0.00  0.00    -0.166 F 
ATOM     31  F   UNL     1      -1.405   5.487  25.262  0.00  0.00    -0.166 F 
ENDBRANCH  25  28
ENDBRANCH  20  22
ENDBRANCH  18  19
ENDBRANCH  17  18
TORSDOF 8
ENDMDL
MODEL 5
REMARK VINA RESULT:     -10.0      2.417      5.418
REMARK  Name = 
REMARK  8 active torsions:
REMARK  status: ('A' for Active; 'I' for Inactive)
REMARK    1  A    between atoms: O_2  and  C_3
REMARK    2  A    between atoms: C_3  and  C_4
REMARK    3  A    between atoms: N_8  and  C_9
REMARK    4  A    between atoms: C_9  and  C_10
REMARK    5  A    between atoms: C_17  and  C_18
REMARK    6  A    between atoms: C_18  and  N_19
REMARK    7  A    between atoms: C_20  and  C_22
REMARK    8  A    between atoms: C_25  and  C_28
REMARK                            x       y       z     vdW  Elec       q    Type
REMARK                         _______ _______ _______ _____ _____    ______ ____
ROOT
ATOM     10  C   UNL     1      -3.306   2.596  24.415  0.00  0.00    +0.032 C 
ATOM     11  C   UNL     1      -3.045   2.158  25.003  0.00  0.00    +0.073 C 
ATOM     12  N   UNL     1      -3.375   1.882  24.298  0.00  0.00    -0.272 NA
ATOM     13  C   UNL     1      -3.621   2.722  23.721  0.00  0.00    +0.072 C 
ATOM     14  C   UNL     1      -3.866   2.985  23.175  0.00  0.00    +0.017 C 
ATOM     15  C   UNL     1      -3.628   2.318  23.726  0.00  0.00    +0.005 C 
ATOM     16  C   UNL     1      -3.779   1.504  23.434  0.00  0.00    +0.018 C 
ATOM     17  C   UNL     1      -3.535   1.039  23.988  0.00  0.00    +0.079 C 
ENDROOT
BRANCH  10   9
ATOM      9  C   UNL     1      -3.249   3.416  24.500  0.00  0.00    +0.073 C 
BRANCH   9   8
ATOM      4  C   UNL     1      -2.522   4.256  25.462  0.00  0.00    +0.087 C 
ATOM      5  C   UNL     1      -2.619   4.449  26.258  0.00  0.00    +0.020 C 
ATOM      6  C   UNL     1      -3.290   4.058  26.535  0.00  0.00    +0.019 C 
ATOM      7  C   UNL     1      -3.608   3.623  25.910  0.00  0.00    +0.072 C 
ATOM      8  N   UNL     1      -3.133   3.745  25.247  0.00  0.00    -0.272 NA
BRANCH   4   3
ATOM      3  C   UNL     1      -1.919   4.526  24.968  0.00  0.00    +0.158 C 
BRANCH   3   2
ATOM      1  C   UNL     1      -0.711   5.271  24.798  0.00  0.00    +0.174 C 
ATOM      2  O   UNL     1      -1.385   5.092  25.240  0.00  0.00    -0.350 OA
ENDBRANCH   3   2
ENDBRANCH   4   3
ENDBRANCH   9   8
ENDBRANCH  10   9
BRANCH  17  18
ATOM     18  C   UNL     1      -3.460   0.243  24.188  0.00  0.00    +0.131 C 
BRANCH  18  19
ATOM     19  N   UNL     1      -4.086  -0.278  24.054  0.00  0.00    -0.200 NA
ATOM     20  C   UNL     1      -3.988  -1.085  24.193  0.00  0.00    +0.265 C 
ATOM     21  O   UNL     1      -4.614  -1.605  24.058  0.00  0.00    -0.268 OA
BRANCH  20  22
ATOM     22  C   UNL     1      -3.265  -1.372  24.466  0.00  0.00    +0.055 A 
ATOM     23  C   UNL     1      -2.687  -1.613  23.929  0.00  0.00    +0.005 A 
ATOM     24  C   UNL     1      -1.964  -1.900  24.202  0.00  0.00    +0.004 A 
ATOM     25  C   UNL     1      -1.818  -1.947  25.013  0.00  0.00    +0.071 A 
ATOM     26  C   UNL     1      -2.396  -1.705  25.550  0.00  0.00    +0.004 A 
ATOM     27  C   UNL     1      -3.119  -1.418  25.277  0.00  0.00    +0.005 A 
BRANCH  25  28
ATOM     28  C   UNL     1      -1.095  -2.234  25.286  0.00  0.00    +0.419 C 
ATOM     29  F   UNL     1      -0.372  -2.521  25.560  0.00  0.00    -0.166 F 
ATOM     30  F   UNL     1      -1.282  -2.982  24.994  0.00  0.00    -0.166 F 
ATOM     31  F   UNL     1      -0.908  -1.486  25.579  0.00  0.00    -0.166 F 
ENDBRANCH  25  28
ENDBRANCH  20  22
ENDBRANCH  18  19
ENDBRANCH  17  18
TORSDOF 8
ENDMDL
MODEL 6
REMARK VINA RESULT:      -9.9      3.784      5.246
REMARK  Name = 
REMARK  8 active torsions:
REMARK  status: ('A' for Active; 'I' for Inactive)
REMARK    1  A    between atoms: O_2  and  C_3
REMARK    2  A    between atoms: C_3  and  C_4
REMARK    3  A    between atoms: N_8  and  C_9
REMARK    4  A    between atoms: C_9  and  C_10
REMARK    5  A    between atoms: C_17  and  C_18
REMARK    6  A    between atoms: C_18  and  N_19
REMARK    7  A    between atoms: C_20  and  C_22
REMARK    8  A    between atoms: C_25  and  C_28
REMARK                            x       y       z     vdW  Elec       q    Type
REMARK                         _______ _______ _______ _____ _____    ______ ____
ROOT
ATOM     10  C   UNL     1       0.119   0.708  23.842  0.00  0.00    +0.032 C 
ATOM     11  C   UNL     1      -0.265   0.061  23.642  0.00  0.00    +0.073 C 
ATOM     12  N   UNL     1      -0.555   0.675  24.110  0.00  0.00    -0.272 NA
ATOM     13  C   UNL     1       0.206   1.391  24.190  0.00  0.00    +0.072 C 
ATOM     14  C   UNL     1       0.428   1.962  24.417  0.00  0.00    +0.017 C 
ATOM     15  C   UNL     1      -0.173   1.306  24.303  0.00  0.00    +0.005 C 
ATOM     16  C   UNL     1      -0.949   1.420  24.697  0.00  0.00    +0.018 C 
ATOM     17  C   UNL     1      -1.360   0.800  24.523  0.00  0.00    +0.079 C 
ENDROOT
BRANCH  10   9
ATOM      9  C   UNL     1       0.892   0.791  23.561  0.00  0.00    +0.073 C 
BRANCH   9   8
ATOM      4  C   UNL     1       1.943   0.248  22.689  0.00  0.00    +0.087 C 
ATOM      5  C   UNL     1       1.964  -0.300  22.073  0.00  0.00    +0.020 C 
ATOM      6  C   UNL     1       1.199  -0.581  21.955  0.00  0.00    +0.019 C 
ATOM      7  C   UNL     1       0.703  -0.207  22.498  0.00  0.00    +0.072 C 
ATOM      8  N   UNL     1       1.163   0.306  22.952  0.00  0.00    -0.272 NA
BRANCH   4   3
ATOM      3  C   UNL     1       2.588   0.665  22.990  0.00  0.00    +0.158 C 
BRANCH   3   2
ATOM      1  C   UNL     1       3.991   0.938  22.985  0.00  0.00    +0.174 C 
ATOM      2  O   UNL     1       3.329   0.592  22.635  0.00  0.00    -0.350 OA
ENDBRANCH   3   2
ENDBRANCH   4   3
ENDBRANCH   9   8
ENDBRANCH  10   9
BRANCH  17  18
ATOM     18  C   UNL     1      -2.097   0.451  24.639  0.00  0.00    +0.131 C 
BRANCH  18  19
ATOM     19  N   UNL     1      -2.742   0.913  24.866  0.00  0.00    -0.200 NA
ATOM     20  C   UNL     1      -3.489   0.570  24.940  0.00  0.00    +0.265 C 
ATOM     21  O   UNL     1      -4.134   1.032  25.167  0.00  0.00    -0.268 OA
BRANCH  20  22
ATOM     22  C   UNL     1      -3.591  -0.234  24.787  0.00  0.00    +0.055 A 
ATOM     23  C   UNL     1      -3.808  -0.486  24.032  0.00  0.00    +0.005 A 
ATOM     24  C   UNL     1      -3.911  -1.290  23.879  0.00  0.00    +0.004 A 
ATOM     25  C   UNL     1      -3.796  -1.843  24.481  0.00  0.00    +0.071 A 
ATOM     26  C   UNL     1      -3.578  -1.591  25.236  0.00  0.00    +0.004 A 
ATOM     27  C   UNL     1      -3.476  -0.787  25.389  0.00  0.00    +0.005 A 
BRANCH  25  28
ATOM     28  C   UNL     1      -3.898  -2.647  24.328  0.00  0.00    +0.419 C 
ATOM     29  F   UNL     1      -4.000  -3.451  24.175  0.00  0.00    -0.166 F 
ATOM     30  F   UNL     1      -4.563  -2.475  23.871  0.00  0.00    -0.166 F 
ATOM     31  F   UNL     1      -3.233  -2.818  24.785  0.00  0.00    -0.166 F 
ENDBRANCH  25  28
ENDBRANCH  20  22
ENDBRANCH  18  19
ENDBRANCH  17  18
TORSDOF 8
ENDMDL
