MODEL 1
REMARK VINA RESULT:     -12.0      0.000      0.000
REMARK  Name = 
REMARK  6 active torsions:
REMARK  status: ('A' for Active; 'I' for Inactive)
REMARK    1  A    between atoms: O_2  and  C_3
REMARK    2  A    between atoms: C_3  and  C_4
REMARK    3  A    between atoms: C_4  and  O_5
REMARK    4  A    between atoms: O_5  and  C_6
REMARK    5  A    between atoms: C_13  and  C_18
REMARK    6  A    between atoms: C_18  and  C_20
REMARK                            x       y       z     vdW  Elec       q    Type
REMARK                         _______ _______ _______ _____ _____    ______ ____
ROOT
ATOM      6  C   UNL     1      -3.479   3.220  24.675  0.00  0.00    +0.134 A 
ATOM      7  C   UNL     1      -4.162   3.472  25.064  0.00  0.00    +0.032 A 
ATOM      8  C   UNL     1      -4.741   2.925  25.275  0.00  0.00    -0.023 A 
ATOM      9  C   UNL     1      -5.425   3.177  25.664  0.00  0.00    +0.031 C 
ATOM     10  C   UNL     1      -4.639   2.125  25.099  0.00  0.00    -0.030 A 
ATOM     11  C   UNL     1      -5.218   1.578  25.311  0.00  0.00    +0.026 C 
ATOM     12  C   UNL     1      -5.115   0.778  25.134  0.00  0.00    +0.005 C 
ATOM     13  C   UNL     1      -4.432   0.526  24.746  0.00  0.00    +0.013 C 
ATOM     14  C   UNL     1      -3.852   1.074  24.534  0.00  0.00    +0.026 C 
ATOM     15  C   UNL     1      -3.956   1.873  24.711  0.00  0.00    -0.027 A 
ATOM     16  C   UNL     1      -3.375   2.421  24.498  0.00  0.00    +0.008 A 
ATOM     17  C   UNL     1      -2.693   2.169  24.110  0.00  0.00    +0.034 C 
ENDROOT
BRANCH  13  18
ATOM     18  C   UNL     1      -4.329  -0.273  24.569  0.00  0.00    +0.077 C 
ATOM     19  C   UNL     1      -4.579  -0.570  23.843  0.00  0.00    +0.010 C 
BRANCH  18  20
ATOM     20  C   UNL     1      -3.974  -0.774  25.121  0.00  0.00    +0.225 C 
ATOM     21  O   UNL     1      -3.813  -0.502  25.883  0.00  0.00    -0.275 OA
ATOM     22  N   UNL     1      -3.780  -1.547  24.909  0.00  0.00    -0.280 N 
ATOM     23  C   UNL     1      -3.425  -2.048  25.460  0.00  0.00    +0.093 C 
ATOM     24  C   UNL     1      -3.231  -2.822  25.249  0.00  0.00    +0.022 C 
ATOM     25  C   UNL     1      -3.391  -3.094  24.488  0.00  0.00    +0.004 C 
ATOM     26  C   UNL     1      -3.746  -2.593  23.936  0.00  0.00    +0.022 C 
ATOM     27  C   UNL     1      -3.940  -1.819  24.148  0.00  0.00    +0.093 C 
ENDBRANCH  18  20
ENDBRANCH  13  18
BRANCH   6   5
ATOM      5  O   UNL     1      -2.899   3.767  24.463  0.00  0.00    -0.473 OA
BRANCH   5   4
ATOM      4  C   UNL     1      -2.520   4.212  25.045  0.00  0.00    +0.237 C 
BRANCH   4   3
ATOM      3  C   UNL     1      -2.036   4.846  24.830  0.00  0.00    +0.189 C 
BRANCH   3   2
ATOM      1  C   UNL     1      -0.666   5.236  24.939  0.00  0.00    +0.174 C 
ATOM      2  O   UNL     1      -1.385   5.044  25.296  0.00  0.00    -0.347 OA
ENDBRANCH   3   2
ENDBRANCH   4   3
ENDBRANCH   5   4
ENDBRANCH   6   5
TORSDOF 6
ENDMDL
MODEL 2
REMARK VINA RESULT:     -11.3      2.619      4.436
REMARK  Name = 
REMARK  6 active torsions:
REMARK  status: ('A' for Active; 'I' for Inactive)
REMARK    1  A    between atoms: O_2  and  C_3
REMARK    2  A    between atoms: C_3  and  C_4
REMARK    3  A    between atoms: C_4  and  O_5
REMARK    4  A    between atoms: O_5  and  C_6
REMARK    5  A    between atoms: C_13  and  C_18
REMARK    6  A    between atoms: C_18  and  C_20
REMARK                            x       y       z     vdW  Elec       q    Type
REMARK                         _______ _______ _______ _____ _____    ______ ____
ROOT
ATOM      6  C   UNL     1      -0.628   1.330  24.474  0.00  0.00    +0.134 A 
ATOM      7  C   UNL     1      -0.147   1.726  25.014  0.00  0.00    +0.032 A 
ATOM      8  C   UNL     1      -0.439   2.378  25.425  0.00  0.00    -0.023 A 
ATOM      9  C   UNL     1       0.043   2.775  25.966  0.00  0.00    +0.031 C 
ATOM     10  C   UNL     1      -1.213   2.635  25.297  0.00  0.00    -0.030 A 
ATOM     11  C   UNL     1      -1.505   3.287  25.708  0.00  0.00    +0.026 C 
ATOM     12  C   UNL     1      -2.279   3.544  25.580  0.00  0.00    +0.005 C 
ATOM     13  C   UNL     1      -2.760   3.147  25.040  0.00  0.00    +0.013 C 
ATOM     14  C   UNL     1      -2.468   2.494  24.628  0.00  0.00    +0.026 C 
ATOM     15  C   UNL     1      -1.694   2.238  24.757  0.00  0.00    -0.027 A 
ATOM     16  C   UNL     1      -1.402   1.585  24.345  0.00  0.00    +0.008 A 
ATOM     17  C   UNL     1      -1.883   1.189  23.805  0.00  0.00    +0.034 C 
ENDROOT
BRANCH  13  18
ATOM     18  C   UNL     1      -3.534   3.403  24.911  0.00  0.00    +0.077 C 
ATOM     19  C   UNL     1      -3.747   3.721  24.182  0.00  0.00    +0.010 C 
BRANCH  18  20
ATOM     20  C   UNL     1      -4.094   3.339  25.514  0.00  0.00    +0.225 C 
ATOM     21  O   UNL     1      -3.984   3.742  26.225  0.00  0.00    -0.275 OA
ATOM     22  N   UNL     1      -4.765   2.872  25.404  0.00  0.00    -0.280 N 
ATOM     23  C   UNL     1      -5.325   2.809  26.006  0.00  0.00    +0.093 C 
ATOM     24  C   UNL     1      -5.997   2.341  25.897  0.00  0.00    +0.022 C 
ATOM     25  C   UNL     1      -6.108   1.939  25.186  0.00  0.00    +0.004 C 
ATOM     26  C   UNL     1      -5.547   2.002  24.584  0.00  0.00    +0.022 C 
ATOM     27  C   UNL     1      -4.876   2.469  24.694  0.00  0.00    +0.093 C 
ENDBRANCH  18  20
ENDBRANCH  13  18
BRANCH   6   5
ATOM      5  O   UNL     1      -0.336   0.676  24.062  0.00  0.00    -0.473 OA
BRANCH   5   4
ATOM      4  C   UNL     1       0.411   0.710  23.714  0.00  0.00    +0.237 C 
BRANCH   4   3
ATOM      3  C   UNL     1       0.731   0.036  23.360  0.00  0.00    +0.189 C 
BRANCH   3   2
ATOM      1  C   UNL     1       1.915  -0.265  22.618  0.00  0.00    +0.174 C 
ATOM      2  O   UNL     1       1.180   0.107  22.671  0.00  0.00    -0.347 OA
ENDBRANCH   3   2
ENDBRANCH   4   3
ENDBRANCH   5   4
ENDBRANCH   6   5
TORSDOF 6
ENDMDL
MODEL 3
REMARK VINA RESULT:     -11.2      1.477      5.080
REMARK  Name = 
REMARK  6 active torsions:
REMARK  status: ('A' for Active; 'I' for Inactive)
REMARK    1  A    between atoms: O_2  and  C_3
REMARK    2  A    between atoms: C_3  and  C_4
REMARK    3  A    between atoms: C_4  and  O_5
REMARK    4  A    between atoms: O_5  and  C_6
REMARK    5  A    between atoms: C_13  and  C_18
REMARK    6  A    between atoms: C_18  and  C_20
REMARK                            x       y       z     vdW  Elec       q    Type
REMARK                         _______ _______ _______ _____ _____    ______ ____
ROOT
ATOM      6  C   UNL     1      -4.275   0.585  24.458  0.00  0.00    +0.134 A 
ATOM      7  C   UNL     1      -5.083   0.712  24.568  0.00  0.00    +0.032 A 
ATOM      8  C   UNL     1      -5.349   1.428  24.877  0.00  0.00    -0.023 A 
ATOM      9  C   UNL     1      -6.158   1.555  24.986  0.00  0.00    +0.031 C 
ATOM     10  C   UNL     1      -4.809   2.019  25.076  0.00  0.00    -0.030 A 
ATOM     11  C   UNL     1      -5.076   2.735  25.385  0.00  0.00    +0.026 C 
ATOM     12  C   UNL     1      -4.535   3.326  25.585  0.00  0.00    +0.005 C 
ATOM     13  C   UNL     1      -3.727   3.199  25.475  0.00  0.00    +0.013 C 
ATOM     14  C   UNL     1      -3.460   2.482  25.166  0.00  0.00    +0.026 C 
ATOM     15  C   UNL     1      -4.001   1.892  24.967  0.00  0.00    -0.027 A 
ATOM     16  C   UNL     1      -3.734   1.175  24.657  0.00  0.00    +0.008 A 
ATOM     17  C   UNL     1      -2.927   1.049  24.548  0.00  0.00    +0.034 C 
ENDROOT
BRANCH  13  18
ATOM     18  C   UNL     1      -3.186   3.789  25.674  0.00  0.00    +0.077 C 
ATOM     19  C   UNL     1      -2.974   3.905  26.462  0.00  0.00    +0.010 C 
BRANCH  18  20
ATOM     20  C   UNL     1      -2.857   4.263  25.084  0.00  0.00    +0.225 C 
ATOM     21  O   UNL     1      -3.346   4.634  24.532  0.00  0.00    -0.275 OA
ATOM     22  N   UNL     1      -2.039   4.365  25.045  0.00  0.00    -0.280 N 
ATOM     23  C   UNL     1      -1.711   4.838  24.455  0.00  0.00    +0.093 C 
ATOM     24  C   UNL     1      -0.893   4.941  24.416  0.00  0.00    +0.022 C 
ATOM     25  C   UNL     1      -0.404   4.570  24.967  0.00  0.00    +0.004 C 
ATOM     26  C   UNL     1      -0.733   4.096  25.558  0.00  0.00    +0.022 C 
ATOM     27  C   UNL     1      -1.551   3.994  25.596  0.00  0.00    +0.093 C 
ENDBRANCH  18  20
ENDBRANCH  13  18
BRANCH   6   5
ATOM      5  O   UNL     1      -4.007  -0.132  24.149  0.00  0.00    -0.473 OA
BRANCH   5   4
ATOM      4  C   UNL     1      -4.293  -0.844  24.453  0.00  0.00    +0.237 C 
BRANCH   4   3
ATOM      3  C   UNL     1      -4.057  -1.560  24.117  0.00  0.00    +0.189 C 
BRANCH   3   2
ATOM      1  C   UNL     1      -3.585  -2.897  24.290  0.00  0.00    +0.174 C 
ATOM      2  O   UNL     1      -3.956  -2.225  24.594  0.00  0.00    -0.347 OA
ENDBRANCH   3   2
ENDBRANCH   4   3
ENDBRANCH   5   4
ENDBRANCH   6   5
TORSDOF 6
ENDMDL
MODEL 4
REMARK VINA RESULT:     -10.7      1.854      4.852
REMARK  Name = 
REMARK  6 active torsions:
REMARK  status: ('A' for Active; 'I' for Inactive)
REMARK    1  A    between atoms: O_2  and  C_3
REMARK    2  A    between atoms: C_3  and  C_4
REMARK    3  A    between atoms: C_4  and  O_5
REMARK    4  A    between atoms: O_5  and  C_6
REMARK    5  A    between atoms: C_13  and  C_18
REMARK    6  A    between atoms: C_18  and  C_20
REMARK                            x       y       z     vdW  Elec       q    Type
REMARK                         _______ _______ _______ _____ _____    ______ ____
ROOT
ATOM      6  C   UNL     1      -2.557  -0.586  24.337  0.00  0.00    +0.134 A 
ATOM      7  C   UNL     1      -3.272  -0.991  24.409  0.00  0.00    +0.032 A 
ATOM      8  C   UNL     1      -3.978  -0.572  24.482  0.00  0.00    -0.023 A 
ATOM      9  C   UNL     1      -4.694  -0.978  24.554  0.00  0.00    +0.031 C 
ATOM     10  C   UNL     1      -3.971   0.253  24.485  0.00  0.00    -0.030 A 
ATOM     11  C   UNL     1      -4.677   0.672  24.558  0.00  0.00    +0.026 C 
ATOM     12  C   UNL     1      -4.669   1.497  24.561  0.00  0.00    +0.005 C 
ATOM     13  C   UNL     1      -3.954   1.903  24.489  0.00  0.00    +0.013 C 
ATOM     14  C   UNL     1      -3.247   1.483  24.416  0.00  0.00    +0.026 C 
ATOM     15  C   UNL     1      -3.256   0.659  24.413  0.00  0.00    -0.027 A 
ATOM     16  C   UNL     1      -2.549   0.239  24.339  0.00  0.00    +0.008 A 
ATOM     17  C   UNL     1      -1.835   0.644  24.268  0.00  0.00    +0.034 C 
ENDROOT
BRANCH  13  18
ATOM     18  C   UNL     1      -3.945   2.728  24.492  0.00  0.00    +0.077 C 
ATOM     19  C   UNL     1      -3.978   3.143  23.780  0.00  0.00    +0.010 C 
BRANCH  18  20
ATOM     20  C   UNL     1      -3.903   3.137  25.207  0.00  0.00    +0.225 C 
ATOM     21  O   UNL     1      -4.472   3.008  25.791  0.00  0.00    -0.275 OA
ATOM     22  N   UNL     1      -3.293   3.677  25.338  0.00  0.00    -0.280 N 
ATOM     23  C   UNL     1      -3.251   4.086  26.053  0.00  0.00    +0.093 C 
ATOM     24  C   UNL     1      -2.641   4.626  26.184  0.00  0.00    +0.022 C 
ATOM     25  C   UNL     1      -2.073   4.755  25.601  0.00  0.00    +0.004 C 
ATOM     26  C   UNL     1      -2.115   4.346  24.885  0.00  0.00    +0.022 C 
ATOM     27  C   UNL     1      -2.725   3.806  24.755  0.00  0.00    +0.093 C 
ENDBRANCH  18  20
ENDBRANCH  13  18
BRANCH   6   5
ATOM      5  O   UNL     1      -1.850  -1.005  24.263  0.00  0.00    -0.473 OA
BRANCH   5   4
ATOM      4  C   UNL     1      -1.692  -1.638  24.768  0.00  0.00    +0.237 C 
BRANCH   4   3
ATOM      3  C   UNL     1      -0.970  -2.035  24.718  0.00  0.00    +0.189 C 
BRANCH   3   2
ATOM      1  C   UNL     1       0.191  -2.436  25.449  0.00  0.00    +0.174 C 
ATOM      2  O   UNL     1      -0.630  -2.358  25.397  0.00  0.00    -0.347 OA
ENDBRANCH   3   2
ENDBRANCH   4   3
ENDBRANCH   5   4
ENDBRANCH   6   5
TORSDOF 6
ENDMDL
MODEL 5
REMARK VINA RESULT:     -10.7      3.296      4.061
REMARK  Name = 
REMARK  6 active torsions:
REMARK  status: ('A' for Active; 'I' for Inactive)
REMARK    1  A    between atoms: O_2  and  C_3
REMARK    2  A    between atoms: C_3  and  C_4
REMARK    3  A    between atoms: C_4  and  O_5
REMARK    4  A    between atoms: O_5  and  C_6
REMARK    5  A    between atoms: C_13  and  C_18
REMARK    6  A    between atoms: C_18  and  C_20
REMARK                            x       y       z     vdW  Elec       q    Type
REMARK                         _______ _______ _______ _____ _____    ______ ____
ROOT
ATOM      6  C   UNL     1       0.602   0.604  23.645  0.00  0.00    +0.134 A 
ATOM      7  C   UNL     1       0.591   1.387  23.903  0.00  0.00    +0.032 A 
ATOM      8  C   UNL     1      -0.034   1.659  24.368  0.00  0.00    -0.023 A 
ATOM      9  C   UNL     1      -0.045   2.443  24.627  0.00  0.00    +0.031 C 
ATOM     10  C   UNL     1      -0.647   1.148  24.576  0.00  0.00    -0.030 A 
ATOM     11  C   UNL     1      -1.271   1.419  25.041  0.00  0.00    +0.026 C 
ATOM     12  C   UNL     1      -1.885   0.908  25.249  0.00  0.00    +0.005 C 
ATOM     13  C   UNL     1      -1.874   0.125  24.991  0.00  0.00    +0.013 C 
ATOM     14  C   UNL     1      -1.248  -0.148  24.525  0.00  0.00    +0.026 C 
ATOM     15  C   UNL     1      -0.636   0.364  24.318  0.00  0.00    -0.027 A 
ATOM     16  C   UNL     1      -0.011   0.092  23.852  0.00  0.00    +0.008 A 
ATOM     17  C   UNL     1       0.001  -0.691  23.594  0.00  0.00    +0.034 C 
ENDROOT
BRANCH  13  18
ATOM     18  C   UNL     1      -2.486  -0.387  25.197  0.00  0.00    +0.077 C 
ATOM     19  C   UNL     1      -2.443  -0.821  25.897  0.00  0.00    +0.010 C 
BRANCH  18  20
ATOM     20  C   UNL     1      -3.143  -0.465  24.703  0.00  0.00    +0.225 C 
ATOM     21  O   UNL     1      -3.511   0.206  24.397  0.00  0.00    -0.275 OA
ATOM     22  N   UNL     1      -3.430  -1.216  24.515  0.00  0.00    -0.280 N 
ATOM     23  C   UNL     1      -4.086  -1.293  24.021  0.00  0.00    +0.093 C 
ATOM     24  C   UNL     1      -4.374  -2.044  23.833  0.00  0.00    +0.022 C 
ATOM     25  C   UNL     1      -4.006  -2.715  24.139  0.00  0.00    +0.004 C 
ATOM     26  C   UNL     1      -3.349  -2.637  24.633  0.00  0.00    +0.022 C 
ATOM     27  C   UNL     1      -3.062  -1.887  24.821  0.00  0.00    +0.093 C 
ENDBRANCH  18  20
ENDBRANCH  13  18
BRANCH   6   5
ATOM      5  O   UNL     1       1.227   0.332  23.179  0.00  0.00    -0.473 OA
BRANCH   5   4
ATOM      4  C   UNL     1       1.948   0.732  23.184  0.00  0.00    +0.237 C 
BRANCH   4   3
ATOM      3  C   UNL     1       2.597   0.416  22.782  0.00  0.00    +0.189 C 
BRANCH   3   2
ATOM      1  C   UNL     1       4.023   0.512  22.752  0.00  0.00    +0.174 C 
ATOM      2  O   UNL     1       3.281   0.868  22.685  0.00  0.00    -0.347 OA
ENDBRANCH   3   2
ENDBRANCH   4   3
ENDBRANCH   5   4
ENDBRANCH   6   5
TORSDOF 6
ENDMDL
MODEL 6
REMARK VINA RESULT:     -10.6      2.698      4.450
REMARK  Name = 
REMARK  6 active torsions:
REMARK  status: ('A' for Active; 'I' for Inactive)
REMARK    1  A    between atoms: O_2  and  C_3
REMARK    2  A    between atoms: C_3  and  C_4
REMARK    3  A    between atoms: C_4  and  O_5
REMARK    4  A    between atoms: O_5  and  C_6
REMARK    5  A    between atoms: C_13  and  C_18
REMARK    6  A    between atoms: C_18  and  C_20
REMARK                            x       y       z     vdW  Elec       q    Type
REMARK                         _______ _______ _______ _____ _____    ______ ____
ROOT
ATOM      6  C   UNL     1      -0.677   0.097  24.209  0.00  0.00    +0.134 A 
ATOM      7  C   UNL     1      -0.855  -0.666  24.469  0.00  0.00    +0.032 A 
ATOM      8  C   UNL     1      -1.636  -0.875  24.628  0.00  0.00    -0.023 A 
ATOM      9  C   UNL     1      -1.815  -1.638  24.888  0.00  0.00    +0.031 C 
ATOM     10  C   UNL     1      -2.241  -0.322  24.527  0.00  0.00    -0.030 A 
ATOM     11  C   UNL     1      -3.022  -0.531  24.686  0.00  0.00    +0.026 C 
ATOM     12  C   UNL     1      -3.627   0.021  24.585  0.00  0.00    +0.005 C 
ATOM     13  C   UNL     1      -3.449   0.784  24.325  0.00  0.00    +0.013 C 
ATOM     14  C   UNL     1      -2.666   0.993  24.165  0.00  0.00    +0.026 C 
ATOM     15  C   UNL     1      -2.063   0.440  24.267  0.00  0.00    -0.027 A 
ATOM     16  C   UNL     1      -1.280   0.650  24.108  0.00  0.00    +0.008 A 
ATOM     17  C   UNL     1      -1.102   1.411  23.848  0.00  0.00    +0.034 C 
ENDROOT
BRANCH  13  18
ATOM     18  C   UNL     1      -4.052   1.337  24.223  0.00  0.00    +0.077 C 
ATOM     19  C   UNL     1      -4.088   1.786  23.534  0.00  0.00    +0.010 C 
BRANCH  18  20
ATOM     20  C   UNL     1      -4.620   1.440  24.813  0.00  0.00    +0.225 C 
ATOM     21  O   UNL     1      -5.024   0.787  25.116  0.00  0.00    -0.275 OA
ATOM     22  N   UNL     1      -4.783   2.196  25.101  0.00  0.00    -0.280 N 
ATOM     23  C   UNL     1      -5.351   2.298  25.690  0.00  0.00    +0.093 C 
ATOM     24  C   UNL     1      -5.514   3.055  25.978  0.00  0.00    +0.022 C 
ATOM     25  C   UNL     1      -5.111   3.706  25.676  0.00  0.00    +0.004 C 
ATOM     26  C   UNL     1      -4.543   3.603  25.086  0.00  0.00    +0.022 C 
ATOM     27  C   UNL     1      -4.380   2.848  24.799  0.00  0.00    +0.093 C 
ENDBRANCH  18  20
ENDBRANCH  13  18
BRANCH   6   5
ATOM      5  O   UNL     1       0.106   0.306  24.050  0.00  0.00    -0.473 OA
BRANCH   5   4
ATOM      4  C   UNL     1       0.536  -0.108  23.481  0.00  0.00    +0.237 C 
BRANCH   4   3
ATOM      3  C   UNL     1       1.314   0.109  23.313  0.00  0.00    +0.189 C 
BRANCH   3   2
ATOM      1  C   UNL     1       2.432   0.098  22.424  0.00  0.00    +0.174 C 
ATOM      2  O   UNL     1       1.690  -0.190  22.643  0.00  0.00    -0.347 OA
ENDBRANCH   3   2
ENDBRANCH   4   3
ENDBRANCH   5   4
ENDBRANCH   6   5
TORSDOF 6
ENDMDL
MODEL 7
REMARK VINA RESULT:     -10.5      2.723      5.973
REMARK  Name = 
REMARK  6 active torsions:
REMARK  status: ('A' for Active; 'I' for Inactive)
REMARK    1  A    between atoms: O_2  and  C_3
REMARK    2  A    between atoms: C_3  and  C_4
REMARK    3  A    between atoms: C_4  and  O_5
REMARK    4  A    between atoms: O_5  and  C_6
REMARK    5  A    between atoms: C_13  and  C_18
REMARK    6  A    between atoms: C_18  and  C_20
REMARK                            x       y       z     vdW  Elec       q    Type
REMARK                         _______ _______ _______ _____ _____    ______ ____
ROOT
ATOM      6  C   UNL     1      -0.951  -0.806  24.727  0.00  0.00    +0.134 A 
ATOM      7  C   UNL     1      -0.442  -0.858  24.080  0.00  0.00    +0.032 A 
ATOM      8  C   UNL     1      -0.012  -0.198  23.841  0.00  0.00    -0.023 A 
ATOM      9  C   UNL     1       0.498  -0.250  23.193  0.00  0.00    +0.031 C 
ATOM     10  C   UNL     1      -0.090   0.516  24.247  0.00  0.00    -0.030 A 
ATOM     11  C   UNL     1       0.341   1.177  24.008  0.00  0.00    +0.026 C 
ATOM     12  C   UNL     1       0.263   1.891  24.414  0.00  0.00    +0.005 C 
ATOM     13  C   UNL     1      -0.246   1.943  25.061  0.00  0.00    +0.013 C 
ATOM     14  C   UNL     1      -0.677   1.281  25.302  0.00  0.00    +0.026 C 
ATOM     15  C   UNL     1      -0.599   0.568  24.894  0.00  0.00    -0.027 A 
ATOM     16  C   UNL     1      -1.030  -0.094  25.135  0.00  0.00    +0.008 A 
ATOM     17  C   UNL     1      -1.539  -0.042  25.781  0.00  0.00    +0.034 C 
ENDROOT
BRANCH  13  18
ATOM     18  C   UNL     1      -0.325   2.656  25.468  0.00  0.00    +0.077 C 
ATOM     19  C   UNL     1      -0.141   2.695  26.271  0.00  0.00    +0.010 C 
BRANCH  18  20
ATOM     20  C   UNL     1      -0.588   3.330  25.072  0.00  0.00    +0.225 C 
ATOM     21  O   UNL     1      -0.171   3.614  24.418  0.00  0.00    -0.275 OA
ATOM     22  N   UNL     1      -1.268   3.721  25.329  0.00  0.00    -0.280 N 
ATOM     23  C   UNL     1      -1.530   4.395  24.932  0.00  0.00    +0.093 C 
ATOM     24  C   UNL     1      -2.210   4.786  25.189  0.00  0.00    +0.022 C 
ATOM     25  C   UNL     1      -2.626   4.503  25.842  0.00  0.00    +0.004 C 
ATOM     26  C   UNL     1      -2.363   3.828  26.239  0.00  0.00    +0.022 C 
ATOM     27  C   UNL     1      -1.684   3.438  25.981  0.00  0.00    +0.093 C 
ENDBRANCH  18  20
ENDBRANCH  13  18
BRANCH   6   5
ATOM      5  O   UNL     1      -1.383  -1.468  24.968  0.00  0.00    -0.473 OA
BRANCH   5   4
ATOM      4  C   UNL     1      -1.812  -1.903  24.414  0.00  0.00    +0.237 C 
BRANCH   4   3
ATOM      3  C   UNL     1      -2.313  -2.509  24.665  0.00  0.00    +0.189 C 
BRANCH   3   2
ATOM      1  C   UNL     1      -3.669  -2.853  24.373  0.00  0.00    +0.174 C 
ATOM      2  O   UNL     1      -2.876  -2.819  24.147  0.00  0.00    -0.347 OA
ENDBRANCH   3   2
ENDBRANCH   4   3
ENDBRANCH   5   4
ENDBRANCH   6   5
TORSDOF 6
ENDMDL
MODEL 8
REMARK VINA RESULT:     -10.1      1.786      2.775
REMARK  Name = 
REMARK  6 active torsions:
REMARK  status: ('A' for Active; 'I' for Inactive)
REMARK    1  A    between atoms: O_2  and  C_3
REMARK    2  A    between atoms: C_3  and  C_4
REMARK    3  A    between atoms: C_4  and  O_5
REMARK    4  A    between atoms: O_5  and  C_6
REMARK    5  A    between atoms: C_13  and  C_18
REMARK    6  A    between atoms: C_18  and  C_20
REMARK                            x       y       z     vdW  Elec       q    Type
REMARK                         _______ _______ _______ _____ _____    ______ ____
ROOT
ATOM      6  C   UNL     1      -1.367   2.363  24.677  0.00  0.00    +0.134 A 
ATOM      7  C   UNL     1      -0.577   2.213  24.493  0.00  0.00    +0.032 A 
ATOM      8  C   UNL     1      -0.283   1.444  24.531  0.00  0.00    -0.023 A 
ATOM      9  C   UNL     1       0.508   1.294  24.347  0.00  0.00    +0.031 C 
ATOM     10  C   UNL     1      -0.779   0.823  24.755  0.00  0.00    -0.030 A 
ATOM     11  C   UNL     1      -0.486   0.054  24.793  0.00  0.00    +0.026 C 
ATOM     12  C   UNL     1      -0.981  -0.567  25.016  0.00  0.00    +0.005 C 
ATOM     13  C   UNL     1      -1.771  -0.418  25.201  0.00  0.00    +0.013 C 
ATOM     14  C   UNL     1      -2.066   0.353  25.162  0.00  0.00    +0.026 C 
ATOM     15  C   UNL     1      -1.569   0.973  24.939  0.00  0.00    -0.027 A 
ATOM     16  C   UNL     1      -1.863   1.743  24.900  0.00  0.00    +0.008 A 
ATOM     17  C   UNL     1      -2.652   1.893  25.085  0.00  0.00    +0.034 C 
ENDROOT
BRANCH  13  18
ATOM     18  C   UNL     1      -2.268  -1.037  25.424  0.00  0.00    +0.077 C 
ATOM     19  C   UNL     1      -2.736  -0.968  26.099  0.00  0.00    +0.010 C 
BRANCH  18  20
ATOM     20  C   UNL     1      -2.296  -1.727  24.971  0.00  0.00    +0.225 C 
ATOM     21  O   UNL     1      -1.624  -2.200  24.897  0.00  0.00    -0.275 OA
ATOM     22  N   UNL     1      -2.996  -1.942  24.591  0.00  0.00    -0.280 N 
ATOM     23  C   UNL     1      -3.023  -2.631  24.139  0.00  0.00    +0.093 C 
ATOM     24  C   UNL     1      -3.723  -2.847  23.759  0.00  0.00    +0.022 C 
ATOM     25  C   UNL     1      -4.395  -2.375  23.832  0.00  0.00    +0.004 C 
ATOM     26  C   UNL     1      -4.367  -1.685  24.285  0.00  0.00    +0.022 C 
ATOM     27  C   UNL     1      -3.667  -1.470  24.665  0.00  0.00    +0.093 C 
ENDBRANCH  18  20
ENDBRANCH  13  18
BRANCH   6   5
ATOM      5  O   UNL     1      -1.661   3.133  24.639  0.00  0.00    -0.473 OA
BRANCH   5   4
ATOM      4  C   UNL     1      -1.199   3.764  24.901  0.00  0.00    +0.237 C 
BRANCH   4   3
ATOM      3  C   UNL     1      -1.539   4.510  25.002  0.00  0.00    +0.189 C 
BRANCH   3   2
ATOM      1  C   UNL     1      -1.401   5.932  24.977  0.00  0.00    +0.174 C 
ATOM      2  O   UNL     1      -1.060   5.182  25.019  0.00  0.00    -0.347 OA
ENDBRANCH   3   2
ENDBRANCH   4   3
ENDBRANCH   5   4
ENDBRANCH   6   5
TORSDOF 6
ENDMDL
