MODEL 1
REMARK VINA RESULT:      -8.4      0.000      0.000
REMARK  Name = 
REMARK  11 active torsions:
REMARK  status: ('A' for Active; 'I' for Inactive)
REMARK    1  A    between atoms: C_2  and  C_4
REMARK    2  A    between atoms: C_4  and  C_5
REMARK    3  A    between atoms: C_5  and  N_6
REMARK    4  A    between atoms: C_5  and  C_32
REMARK    5  A    between atoms: C_7  and  C_9
REMARK    6  A    between atoms: C_11  and  N_23
REMARK    7  A    between atoms: C_15  and  C_17
REMARK    8  A    between atoms: C_17  and  S_18
REMARK    9  A    between atoms: S_18  and  C_19
REMARK   10  A    between atoms: C_19  and  C_20
REMARK   11  A    between atoms: C_24  and  C_26
REMARK                            x       y       z     vdW  Elec       q    Type
REMARK                         _______ _______ _______ _____ _____    ______ ____
ROOT
ATOM      9  C   UNL     1      -1.967   0.415  24.675  0.00  0.00    +0.155 C 
ATOM     10  C   UNL     1      -2.559   0.914  24.961  0.00  0.00    +0.051 C 
ATOM     11  C   UNL     1      -2.472   1.733  24.905  0.00  0.00    +0.100 C 
ATOM     12  C   UNL     1      -1.792   2.052  24.564  0.00  0.00    +0.043 C 
ATOM     13  C   UNL     1      -1.200   1.554  24.277  0.00  0.00    +0.096 C 
ATOM     14  N   UNL     1      -1.287   0.736  24.333  0.00  0.00    -0.272 N 
ATOM     15  C   UNL     1      -0.695   0.237  24.047  0.00  0.00    +0.237 C 
ATOM     16  O   UNL     1      -0.782  -0.581  24.103  0.00  0.00    -0.274 OA
ENDROOT
BRANCH   9   7
ATOM      6  N   UNL     1      -2.804  -0.732  24.835  0.00  0.00    -0.196 NA
ATOM      7  C   UNL     1      -2.054  -0.403  24.730  0.00  0.00    +0.260 C 
ATOM      8  O   UNL     1      -1.391  -0.894  24.680  0.00  0.00    -0.272 OA
BRANCH   6   5
ATOM      5  C   UNL     1      -2.891  -1.551  24.891  0.00  0.00    +0.174 C 
BRANCH   5  32
ATOM     32  C   UNL     1      -2.846  -1.921  25.627  0.00  0.00    +0.281 C 
ATOM     33  N   UNL     1      -3.304  -1.648  26.257  0.00  0.00    -0.086 NA
ATOM     34  O   UNL     1      -2.341  -2.565  25.734  0.00  0.00    -0.270 OA
ENDBRANCH   5  32
BRANCH   5   4
ATOM      4  C   UNL     1      -3.024  -1.998  24.211  0.00  0.00    +0.031 C 
BRANCH   4   2
ATOM      1  C   UNL     1      -4.336  -1.609  23.803  0.00  0.00    +0.000 C 
ATOM      2  C   UNL     1      -3.793  -2.200  23.994  0.00  0.00    +0.002 C 
ATOM      3  C   UNL     1      -4.020  -2.992  23.967  0.00  0.00    +0.000 C 
ENDBRANCH   4   2
ENDBRANCH   5   4
ENDBRANCH   6   5
ENDBRANCH   9   7
BRANCH  11  23
ATOM     23  N   UNL     1      -3.064   2.230  25.191  0.00  0.00    -0.202 NA
ATOM     24  C   UNL     1      -3.674   2.473  24.693  0.00  0.00    +0.284 C 
ATOM     25  O   UNL     1      -3.693   2.218  23.909  0.00  0.00    -0.267 OA
BRANCH  24  26
ATOM     26  C   UNL     1      -4.267   2.972  24.979  0.00  0.00    +0.155 A 
ATOM     27  C   UNL     1      -4.166   3.789  24.956  0.00  0.00    +0.123 A 
ATOM     28  N   UNL     1      -4.758   4.288  25.241  0.00  0.00    -0.239 NA
ATOM     29  C   UNL     1      -5.452   3.967  25.551  0.00  0.00    +0.120 A 
ATOM     30  C   UNL     1      -5.554   3.148  25.574  0.00  0.00    +0.120 A 
ATOM     31  N   UNL     1      -4.961   2.651  25.288  0.00  0.00    -0.236 NA
ENDBRANCH  24  26
ENDBRANCH  11  23
BRANCH  15  17
ATOM     17  C   UNL     1      -0.016   0.558  23.706  0.00  0.00    +0.143 C 
BRANCH  17  18
ATOM     18  S   UNL     1       0.514   0.068  23.305  0.00  0.00    -0.119 S 
BRANCH  18  19
ATOM     19  C   UNL     1       1.206   0.385  22.986  0.00  0.00    +0.172 C 
BRANCH  19  20
ATOM     20  C   UNL     1       1.698  -0.087  22.520  0.00  0.00    +0.376 C 
ATOM     21  O   UNL     1       2.447  -0.296  22.793  0.00  0.00    -0.245 OA
ATOM     22  O   UNL     1       1.440  -0.348  21.781  0.00  0.00    -0.245 OA
ENDBRANCH  19  20
ENDBRANCH  18  19
ENDBRANCH  17  18
ENDBRANCH  15  17
TORSDOF 11
ENDMDL
MODEL 2
REMARK VINA RESULT:      -8.0      1.759      4.781
REMARK  Name = 
REMARK  11 active torsions:
REMARK  status: ('A' for Active; 'I' for Inactive)
REMARK    1  A    between atoms: C_2  and  C_4
REMARK    2  A    between atoms: C_4  and  C_5
REMARK    3  A    between atoms: C_5  and  N_6
REMARK    4  A    between atoms: C_5  and  C_32
REMARK    5  A    between atoms: C_7  and  C_9
REMARK    6  A    between atoms: C_11  and  N_23
REMARK    7  A    between atoms: C_15  and  C_17
REMARK    8  A    between atoms: C_17  and  S_18
REMARK    9  A    between atoms: S_18  and  C_19
REMARK   10  A    between atoms: C_19  and  C_20
REMARK   11  A    between atoms: C_24  and  C_26
REMARK                            x       y       z     vdW  Elec       q    Type
REMARK                         _______ _______ _______ _____ _____    ______ ____
ROOT
ATOM      9  C   UNL     1      -2.402   0.696  24.411  0.00  0.00    +0.155 C 
ATOM     10  C   UNL     1      -1.677   0.485  24.076  0.00  0.00    +0.051 C 
ATOM     11  C   UNL     1      -1.241   1.043  23.653  0.00  0.00    +0.100 C 
ATOM     12  C   UNL     1      -1.529   1.811  23.564  0.00  0.00    +0.043 C 
ATOM     13  C   UNL     1      -2.254   2.022  23.899  0.00  0.00    +0.096 C 
ATOM     14  N   UNL     1      -2.690   1.464  24.322  0.00  0.00    -0.272 N 
ATOM     15  C   UNL     1      -3.414   1.674  24.657  0.00  0.00    +0.237 C 
ATOM     16  O   UNL     1      -3.850   1.116  25.080  0.00  0.00    -0.274 OA
ENDROOT
BRANCH   9   7
ATOM      6  N   UNL     1      -2.789  -0.662  24.636  0.00  0.00    -0.196 NA
ATOM      7  C   UNL     1      -2.838   0.138  24.835  0.00  0.00    +0.260 C 
ATOM      8  O   UNL     1      -3.324   0.380  25.457  0.00  0.00    -0.272 OA
BRANCH   6   5
ATOM      5  C   UNL     1      -3.225  -1.220  25.060  0.00  0.00    +0.174 C 
BRANCH   5  32
ATOM     32  C   UNL     1      -2.934  -1.515  25.773  0.00  0.00    +0.281 C 
ATOM     33  N   UNL     1      -2.162  -1.805  25.817  0.00  0.00    -0.086 NA
ATOM     34  O   UNL     1      -3.414  -1.521  26.443  0.00  0.00    -0.270 OA
ENDBRANCH   5  32
BRANCH   5   4
ATOM      4  C   UNL     1      -3.951  -1.481  24.770  0.00  0.00    +0.031 C 
BRANCH   4   2
ATOM      1  C   UNL     1      -4.373  -1.944  23.487  0.00  0.00    +0.000 C 
ATOM      2  C   UNL     1      -3.977  -2.075  24.197  0.00  0.00    +0.002 C 
ATOM      3  C   UNL     1      -3.607  -2.798  24.336  0.00  0.00    +0.000 C 
ENDBRANCH   4   2
ENDBRANCH   5   4
ENDBRANCH   6   5
ENDBRANCH   9   7
BRANCH  11  23
ATOM     23  N   UNL     1      -0.517   0.833  23.318  0.00  0.00    -0.202 NA
ATOM     24  C   UNL     1       0.176   0.901  23.759  0.00  0.00    +0.284 C 
ATOM     25  O   UNL     1       0.146   1.180  24.535  0.00  0.00    -0.267 OA
BRANCH  24  26
ATOM     26  C   UNL     1       0.901   0.691  23.425  0.00  0.00    +0.155 A 
ATOM     27  C   UNL     1       1.568   1.155  23.560  0.00  0.00    +0.123 A 
ATOM     28  N   UNL     1       2.293   0.945  23.226  0.00  0.00    -0.239 NA
ATOM     29  C   UNL     1       2.349   0.269  22.756  0.00  0.00    +0.120 A 
ATOM     30  C   UNL     1       1.680  -0.197  22.620  0.00  0.00    +0.120 A 
ATOM     31  N   UNL     1       0.957   0.015  22.955  0.00  0.00    -0.236 NA
ENDBRANCH  24  26
ENDBRANCH  11  23
BRANCH  15  17
ATOM     17  C   UNL     1      -3.701   2.442  24.568  0.00  0.00    +0.143 C 
BRANCH  17  18
ATOM     18  S   UNL     1      -4.350   2.693  25.012  0.00  0.00    -0.119 S 
BRANCH  18  19
ATOM     19  C   UNL     1      -4.584   3.484  24.989  0.00  0.00    +0.172 C 
BRANCH  19  20
ATOM     20  C   UNL     1      -5.078   3.785  25.578  0.00  0.00    +0.376 C 
ATOM     21  O   UNL     1      -5.895   3.785  25.469  0.00  0.00    -0.245 OA
ATOM     22  O   UNL     1      -4.754   4.086  26.275  0.00  0.00    -0.245 OA
ENDBRANCH  19  20
ENDBRANCH  18  19
ENDBRANCH  17  18
ENDBRANCH  15  17
TORSDOF 11
ENDMDL
MODEL 3
REMARK VINA RESULT:      -7.5      1.898      5.592
REMARK  Name = 
REMARK  11 active torsions:
REMARK  status: ('A' for Active; 'I' for Inactive)
REMARK    1  A    between atoms: C_2  and  C_4
REMARK    2  A    between atoms: C_4  and  C_5
REMARK    3  A    between atoms: C_5  and  N_6
REMARK    4  A    between atoms: C_5  and  C_32
REMARK    5  A    between atoms: C_7  and  C_9
REMARK    6  A    between atoms: C_11  and  N_23
REMARK    7  A    between atoms: C_15  and  C_17
REMARK    8  A    between atoms: C_17  and  S_18
REMARK    9  A    between atoms: S_18  and  C_19
REMARK   10  A    between atoms: C_19  and  C_20
REMARK   11  A    between atoms: C_24  and  C_26
REMARK                            x       y       z     vdW  Elec       q    Type
REMARK                         _______ _______ _______ _____ _____    ______ ____
ROOT
ATOM      9  C   UNL     1      -1.078   0.677  24.584  0.00  0.00    +0.155 C 
ATOM     10  C   UNL     1      -0.307   0.837  24.335  0.00  0.00    +0.051 C 
ATOM     11  C   UNL     1       0.190   0.219  24.107  0.00  0.00    +0.100 C 
ATOM     12  C   UNL     1      -0.084  -0.559  24.128  0.00  0.00    +0.043 C 
ATOM     13  C   UNL     1      -0.855  -0.720  24.376  0.00  0.00    +0.096 C 
ATOM     14  N   UNL     1      -1.351  -0.102  24.604  0.00  0.00    -0.272 N 
ATOM     15  C   UNL     1      -2.122  -0.261  24.853  0.00  0.00    +0.237 C 
ATOM     16  O   UNL     1      -2.618   0.357  25.081  0.00  0.00    -0.274 OA
ENDROOT
BRANCH   9   7
ATOM      6  N   UNL     1      -1.549   2.015  24.409  0.00  0.00    -0.196 NA
ATOM      7  C   UNL     1      -1.574   1.295  24.811  0.00  0.00    +0.260 C 
ATOM      8  O   UNL     1      -2.097   1.193  25.442  0.00  0.00    -0.272 OA
BRANCH   6   5
ATOM      5  C   UNL     1      -2.046   2.633  24.637  0.00  0.00    +0.174 C 
BRANCH   5  32
ATOM     32  C   UNL     1      -2.716   2.809  24.189  0.00  0.00    +0.281 C 
ATOM     33  N   UNL     1      -3.439   2.948  24.563  0.00  0.00    -0.086 NA
ATOM     34  O   UNL     1      -2.664   2.847  23.366  0.00  0.00    -0.270 OA
ENDBRANCH   5  32
BRANCH   5   4
ATOM      4  C   UNL     1      -1.872   3.074  25.311  0.00  0.00    +0.031 C 
BRANCH   4   2
ATOM      1  C   UNL     1      -1.990   4.491  25.450  0.00  0.00    +0.000 C 
ATOM      2  C   UNL     1      -1.547   3.829  25.237  0.00  0.00    +0.002 C 
ATOM      3  C   UNL     1      -0.779   3.921  24.951  0.00  0.00    +0.000 C 
ENDBRANCH   4   2
ENDBRANCH   5   4
ENDBRANCH   6   5
ENDBRANCH   9   7
BRANCH  11  23
ATOM     23  N   UNL     1       0.959   0.379  23.859  0.00  0.00    -0.202 NA
ATOM     24  C   UNL     1       1.202   0.161  23.102  0.00  0.00    +0.284 C 
ATOM     25  O   UNL     1       0.675  -0.218  22.592  0.00  0.00    -0.267 OA
BRANCH  24  26
ATOM     26  C   UNL     1       1.973   0.321  22.853  0.00  0.00    +0.155 A 
ATOM     27  C   UNL     1       2.286  -0.074  22.200  0.00  0.00    +0.123 A 
ATOM     28  N   UNL     1       3.056   0.086  21.951  0.00  0.00    -0.239 NA
ATOM     29  C   UNL     1       3.513   0.642  22.356  0.00  0.00    +0.120 A 
ATOM     30  C   UNL     1       3.200   1.037  23.010  0.00  0.00    +0.120 A 
ATOM     31  N   UNL     1       2.429   0.876  23.258  0.00  0.00    -0.236 NA
ENDBRANCH  24  26
ENDBRANCH  11  23
BRANCH  15  17
ATOM     17  C   UNL     1      -2.395  -1.039  24.873  0.00  0.00    +0.143 C 
BRANCH  17  18
ATOM     18  S   UNL     1      -3.179  -1.206  24.678  0.00  0.00    -0.119 S 
BRANCH  18  19
ATOM     19  C   UNL     1      -3.498  -1.947  24.850  0.00  0.00    +0.172 C 
BRANCH  19  20
ATOM     20  C   UNL     1      -3.968  -2.334  24.291  0.00  0.00    +0.376 C 
ATOM     21  O   UNL     1      -4.548  -1.916  23.881  0.00  0.00    -0.245 OA
ATOM     22  O   UNL     1      -3.856  -3.138  24.144  0.00  0.00    -0.245 OA
ENDBRANCH  19  20
ENDBRANCH  18  19
ENDBRANCH  17  18
ENDBRANCH  15  17
TORSDOF 11
ENDMDL
MODEL 4
REMARK VINA RESULT:      -7.4      2.210      4.484
REMARK  Name = 
REMARK  11 active torsions:
REMARK  status: ('A' for Active; 'I' for Inactive)
REMARK    1  A    between atoms: C_2  and  C_4
REMARK    2  A    between atoms: C_4  and  C_5
REMARK    3  A    between atoms: C_5  and  N_6
REMARK    4  A    between atoms: C_5  and  C_32
REMARK    5  A    between atoms: C_7  and  C_9
REMARK    6  A    between atoms: C_11  and  N_23
REMARK    7  A    between atoms: C_15  and  C_17
REMARK    8  A    between atoms: C_17  and  S_18
REMARK    9  A    between atoms: S_18  and  C_19
REMARK   10  A    between atoms: C_19  and  C_20
REMARK   11  A    between atoms: C_24  and  C_26
REMARK                            x       y       z     vdW  Elec       q    Type
REMARK                         _______ _______ _______ _____ _____    ______ ____
ROOT
ATOM      9  C   UNL     1      -0.026   0.805  24.170  0.00  0.00    +0.155 C 
ATOM     10  C   UNL     1      -0.738   0.413  24.313  0.00  0.00    +0.051 C 
ATOM     11  C   UNL     1      -0.866  -0.338  23.997  0.00  0.00    +0.100 C 
ATOM     12  C   UNL     1      -0.283  -0.696  23.536  0.00  0.00    +0.043 C 
ATOM     13  C   UNL     1       0.429  -0.305  23.392  0.00  0.00    +0.096 C 
ATOM     14  N   UNL     1       0.558   0.446  23.709  0.00  0.00    -0.272 N 
ATOM     15  C   UNL     1       1.269   0.838  23.566  0.00  0.00    +0.237 C 
ATOM     16  O   UNL     1       1.398   1.589  23.883  0.00  0.00    -0.274 OA
ENDROOT
BRANCH   9   7
ATOM      6  N   UNL     1      -0.444   1.882  25.012  0.00  0.00    -0.196 NA
ATOM      7  C   UNL     1       0.103   1.556  24.487  0.00  0.00    +0.260 C 
ATOM      8  O   UNL     1       0.779   1.982  24.278  0.00  0.00    -0.272 OA
BRANCH   6   5
ATOM      5  C   UNL     1      -0.316   2.633  25.329  0.00  0.00    +0.174 C 
BRANCH   5  32
ATOM     32  C   UNL     1      -0.021   2.711  26.096  0.00  0.00    +0.281 C 
ATOM     33  N   UNL     1      -0.422   2.370  26.731  0.00  0.00    -0.086 NA
ATOM     34  O   UNL     1       0.676   3.132  26.227  0.00  0.00    -0.270 OA
ENDBRANCH   5  32
BRANCH   5   4
ATOM      4  C   UNL     1      -0.482   3.304  24.880  0.00  0.00    +0.031 C 
BRANCH   4   2
ATOM      1  C   UNL     1      -1.098   4.566  25.138  0.00  0.00    +0.000 C 
ATOM      2  C   UNL     1      -1.157   3.750  25.039  0.00  0.00    +0.002 C 
ATOM      3  C   UNL     1      -1.891   3.379  25.099  0.00  0.00    +0.000 C 
ENDBRANCH   4   2
ENDBRANCH   5   4
ENDBRANCH   6   5
ENDBRANCH   9   7
BRANCH  11  23
ATOM     23  N   UNL     1      -1.578  -0.729  24.140  0.00  0.00    -0.202 NA
ATOM     24  C   UNL     1      -1.607  -1.343  24.690  0.00  0.00    +0.284 C 
ATOM     25  O   UNL     1      -0.925  -1.565  25.097  0.00  0.00    -0.267 OA
BRANCH  24  26
ATOM     26  C   UNL     1      -2.319  -1.735  24.834  0.00  0.00    +0.155 A 
ATOM     27  C   UNL     1      -2.849  -1.438  25.391  0.00  0.00    +0.123 A 
ATOM     28  N   UNL     1      -3.560  -1.830  25.535  0.00  0.00    -0.239 NA
ATOM     29  C   UNL     1      -3.742  -2.520  25.121  0.00  0.00    +0.120 A 
ATOM     30  C   UNL     1      -3.211  -2.818  24.562  0.00  0.00    +0.120 A 
ATOM     31  N   UNL     1      -2.500  -2.425  24.419  0.00  0.00    -0.236 NA
ENDBRANCH  24  26
ENDBRANCH  11  23
BRANCH  15  17
ATOM     17  C   UNL     1       1.852   0.479  23.106  0.00  0.00    +0.143 C 
BRANCH  17  18
ATOM     18  S   UNL     1       2.615   0.793  23.088  0.00  0.00    -0.119 S 
BRANCH  18  19
ATOM     19  C   UNL     1       3.230   0.361  22.749  0.00  0.00    +0.172 C 
BRANCH  19  20
ATOM     20  C   UNL     1       3.983   0.695  22.687  0.00  0.00    +0.376 C 
ATOM     21  O   UNL     1       4.464   0.752  23.355  0.00  0.00    -0.245 OA
ATOM     22  O   UNL     1       4.254   0.971  21.958  0.00  0.00    -0.245 OA
ENDBRANCH  19  20
ENDBRANCH  18  19
ENDBRANCH  17  18
ENDBRANCH  15  17
TORSDOF 11
ENDMDL
