MODEL 1
REMARK VINA RESULT:     -10.8      0.000      0.000
REMARK  Name = 
REMARK  4 active torsions:
REMARK  status: ('A' for Active; 'I' for Inactive)
REMARK    1  A    between atoms: C_2  and  C_3
REMARK    2  A    between atoms: C_10  and  C_11
REMARK    3  A    between atoms: C_11  and  N_12
REMARK    4  A    between atoms: C_13  and  C_15
REMARK                            x       y       z     vdW  Elec       q    Type
REMARK                         _______ _______ _______ _____ _____    ______ ____
ROOT
ATOM      3  C   UNL     1      -3.883  -1.294  24.448  0.00  0.00    +0.038 C 
ATOM      4  C   UNL     1      -4.163  -0.897  23.841  0.00  0.00    +0.076 C 
ATOM      5  N   UNL     1      -3.869  -0.574  24.541  0.00  0.00    -0.272 NA
ATOM      6  C   UNL     1      -3.572  -1.374  25.151  0.00  0.00    +0.072 C 
ATOM      7  C   UNL     1      -3.319  -1.599  25.709  0.00  0.00    +0.018 C 
ATOM      8  C   UNL     1      -3.595  -0.970  25.132  0.00  0.00    +0.008 C 
ATOM      9  C   UNL     1      -3.509  -0.138  25.398  0.00  0.00    +0.018 C 
ATOM     10  C   UNL     1      -3.776   0.289  24.824  0.00  0.00    +0.079 C 
ENDROOT
BRANCH   3   2
ATOM      1  C   UNL     1      -4.189  -2.486  23.722  0.00  0.00    -0.005 C 
ATOM      2  C   UNL     1      -3.878  -2.118  24.390  0.00  0.00    -0.025 C 
ENDBRANCH   3   2
BRANCH  10  11
ATOM     11  C   UNL     1      -3.905   1.071  24.595  0.00  0.00    +0.131 C 
BRANCH  11  12
ATOM     12  N   UNL     1      -3.467   1.679  24.939  0.00  0.00    -0.204 NA
ATOM     13  C   UNL     1      -3.574   2.457  24.687  0.00  0.00    +0.241 C 
ATOM     14  O   UNL     1      -4.119   2.627  24.091  0.00  0.00    -0.273 OA
BRANCH  13  15
ATOM     15  C   UNL     1      -3.136   3.066  25.031  0.00  0.00    +0.078 C 
ATOM     16  C   UNL     1      -2.368   3.219  24.772  0.00  0.00    +0.009 C 
ATOM     17  C   UNL     1      -1.930   3.827  25.115  0.00  0.00    +0.000 C 
ATOM     18  C   UNL     1      -2.260   4.283  25.718  0.00  0.00    +0.000 C 
ATOM     19  C   UNL     1      -3.029   4.130  25.977  0.00  0.00    +0.000 C 
ATOM     20  C   UNL     1      -3.466   3.522  25.634  0.00  0.00    +0.009 C 
ENDBRANCH  13  15
ENDBRANCH  11  12
ENDBRANCH  10  11
TORSDOF 4
ENDMDL
MODEL 2
REMARK VINA RESULT:     -10.8      1.470      4.677
REMARK  Name = 
REMARK  4 active torsions:
REMARK  status: ('A' for Active; 'I' for Inactive)
REMARK    1  A    between atoms: C_2  and  C_3
REMARK    2  A    between atoms: C_10  and  C_11
REMARK    3  A    between atoms: C_11  and  N_12
REMARK    4  A    between atoms: C_13  and  C_15
REMARK                            x       y       z     vdW  Elec       q    Type
REMARK                         _______ _______ _______ _____ _____    ______ ____
ROOT
ATOM      3  C   UNL     1      -4.923   2.827  25.316  0.00  0.00    +0.038 C 
ATOM      4  C   UNL     1      -4.193   2.859  25.048  0.00  0.00    +0.076 C 
ATOM      5  N   UNL     1      -4.664   2.183  25.100  0.00  0.00    -0.272 NA
ATOM      6  C   UNL     1      -5.586   2.478  25.501  0.00  0.00    +0.072 C 
ATOM      7  C   UNL     1      -6.191   2.333  25.702  0.00  0.00    +0.018 C 
ATOM      8  C   UNL     1      -5.379   2.159  25.364  0.00  0.00    +0.008 C 
ATOM      9  C   UNL     1      -5.221   1.323  25.150  0.00  0.00    +0.018 C 
ATOM     10  C   UNL     1      -4.507   1.311  24.879  0.00  0.00    +0.079 C 
ENDROOT
BRANCH   3   2
ATOM      1  C   UNL     1      -4.828   4.234  25.547  0.00  0.00    -0.005 C 
ATOM      2  C   UNL     1      -5.262   3.534  25.575  0.00  0.00    -0.025 C 
ENDBRANCH   3   2
BRANCH  10  11
ATOM     11  C   UNL     1      -3.932   0.808  24.570  0.00  0.00    +0.131 C 
BRANCH  11  12
ATOM     12  N   UNL     1      -4.037  -0.010  24.606  0.00  0.00    -0.204 NA
ATOM     13  C   UNL     1      -3.439  -0.514  24.344  0.00  0.00    +0.241 C 
ATOM     14  O   UNL     1      -2.736  -0.201  24.047  0.00  0.00    -0.273 OA
BRANCH  13  15
ATOM     15  C   UNL     1      -3.544  -1.331  24.380  0.00  0.00    +0.078 C 
ATOM     16  C   UNL     1      -3.155  -1.773  24.959  0.00  0.00    +0.009 C 
ATOM     17  C   UNL     1      -3.260  -2.590  24.995  0.00  0.00    +0.000 C 
ATOM     18  C   UNL     1      -3.754  -2.967  24.452  0.00  0.00    +0.000 C 
ATOM     19  C   UNL     1      -4.143  -2.525  23.873  0.00  0.00    +0.000 C 
ATOM     20  C   UNL     1      -4.038  -1.709  23.837  0.00  0.00    +0.009 C 
ENDBRANCH  13  15
ENDBRANCH  11  12
ENDBRANCH  10  11
TORSDOF 4
ENDMDL
MODEL 3
REMARK VINA RESULT:     -10.7      1.019      4.717
REMARK  Name = 
REMARK  4 active torsions:
REMARK  status: ('A' for Active; 'I' for Inactive)
REMARK    1  A    between atoms: C_2  and  C_3
REMARK    2  A    between atoms: C_10  and  C_11
REMARK    3  A    between atoms: C_11  and  N_12
REMARK    4  A    between atoms: C_13  and  C_15
REMARK                            x       y       z     vdW  Elec       q    Type
REMARK                         _______ _______ _______ _____ _____    ______ ____
ROOT
ATOM      3  C   UNL     1      -1.845   3.513  25.167  0.00  0.00    +0.038 C 
ATOM      4  C   UNL     1      -2.615   3.620  25.178  0.00  0.00    +0.076 C 
ATOM      5  N   UNL     1      -2.225   2.898  25.094  0.00  0.00    -0.272 NA
ATOM      6  C   UNL     1      -1.196   3.097  25.120  0.00  0.00    +0.072 C 
ATOM      7  C   UNL     1      -0.576   2.891  25.097  0.00  0.00    +0.018 C 
ATOM      8  C   UNL     1      -1.468   2.801  25.084  0.00  0.00    +0.008 C 
ATOM      9  C   UNL     1      -1.772   1.983  24.986  0.00  0.00    +0.018 C 
ATOM     10  C   UNL     1      -2.533   2.045  24.992  0.00  0.00    +0.079 C 
ENDROOT
BRANCH   3   2
ATOM      1  C   UNL     1      -1.713   4.932  25.278  0.00  0.00    -0.005 C 
ATOM      2  C   UNL     1      -1.369   4.183  25.248  0.00  0.00    -0.025 C 
ENDBRANCH   3   2
BRANCH  10  11
ATOM     11  C   UNL     1      -3.226   1.601  24.937  0.00  0.00    +0.131 C 
BRANCH  11  12
ATOM     12  N   UNL     1      -3.186   0.783  24.844  0.00  0.00    -0.204 NA
ATOM     13  C   UNL     1      -3.876   0.331  24.870  0.00  0.00    +0.241 C 
ATOM     14  O   UNL     1      -4.605   0.697  24.990  0.00  0.00    -0.273 OA
BRANCH  13  15
ATOM     15  C   UNL     1      -3.836  -0.488  24.777  0.00  0.00    +0.078 C 
ATOM     16  C   UNL     1      -3.574  -0.962  25.400  0.00  0.00    +0.009 C 
ATOM     17  C   UNL     1      -3.534  -1.781  25.307  0.00  0.00    +0.000 C 
ATOM     18  C   UNL     1      -3.756  -2.125  24.591  0.00  0.00    +0.000 C 
ATOM     19  C   UNL     1      -4.018  -1.651  23.968  0.00  0.00    +0.000 C 
ATOM     20  C   UNL     1      -4.058  -0.833  24.061  0.00  0.00    +0.009 C 
ENDBRANCH  13  15
ENDBRANCH  11  12
ENDBRANCH  10  11
TORSDOF 4
ENDMDL
