MODEL 1
REMARK VINA RESULT:     -16.9      0.000      0.000
REMARK  Name = 
REMARK  3 active torsions:
REMARK  status: ('A' for Active; 'I' for Inactive)
REMARK    1  A    between atoms: C_2  and  C_5
REMARK    2  A    between atoms: C_9  and  C_11
REMARK    3  A    between atoms: C_21  and  C_23
REMARK                            x       y       z     vdW  Elec       q    Type
REMARK                         _______ _______ _______ _____ _____    ______ ____
ROOT
ATOM     11  C   UNL     1      -4.109   0.494  25.029  0.00  0.00    +0.056 A 
ATOM     12  C   UNL     1      -4.880   0.771  25.129  0.00  0.00    +0.006 A 
ATOM     13  C   UNL     1      -5.037   1.580  25.088  0.00  0.00    +0.013 A 
ATOM     14  C   UNL     1      -4.422   2.112  24.946  0.00  0.00    +0.041 A 
ATOM     15  C   UNL     1      -4.266   3.012  24.848  0.00  0.00    +0.058 C 
ATOM     16  C   UNL     1      -4.597   3.632  24.850  0.00  0.00    +0.011 C 
ATOM     17  C   UNL     1      -3.837   3.355  24.752  0.00  0.00    +0.043 C 
ATOM     18  C   UNL     1      -2.869   3.219  24.609  0.00  0.00    +0.096 C 
ATOM     19  N   UNL     1      -2.834   2.386  24.671  0.00  0.00    -0.276 N 
ATOM     20  C   UNL     1      -3.329   2.897  24.708  0.00  0.00    +0.099 C 
ATOM     21  C   UNL     1      -2.508   1.628  24.681  0.00  0.00    +0.252 C 
ATOM     22  O   UNL     1      -2.992   0.972  24.811  0.00  0.00    -0.270 OA
ATOM     29  C   UNL     1      -3.990   2.413  24.853  0.00  0.00    +0.110 C 
ATOM     30  N   UNL     1      -3.652   1.835  24.846  0.00  0.00    -0.299 N 
ATOM     31  C   UNL     1      -3.495   1.026  24.887  0.00  0.00    +0.261 A 
ATOM     32  O   UNL     1      -2.844   0.524  24.824  0.00  0.00    -0.267 OA
ENDROOT
BRANCH  11   9
ATOM      5  C   UNL     1      -3.953  -1.608  24.462  0.00  0.00    +0.071 A 
ATOM      6  C   UNL     1      -3.642  -1.932  25.154  0.00  0.00    +0.004 A 
ATOM      7  C   UNL     1      -3.486  -1.448  25.803  0.00  0.00    -0.000 A 
ATOM      8  C   UNL     1      -3.642  -0.639  25.761  0.00  0.00    +0.000 A 
ATOM      9  C   UNL     1      -3.954  -0.314  25.070  0.00  0.00    +0.005 A 
ATOM     10  C   UNL     1      -4.109  -0.798  24.420  0.00  0.00    +0.004 A 
BRANCH   5   2
ATOM      1  F   UNL     1      -4.265  -2.576  23.163  0.00  0.00    -0.166 F 
ATOM      2  C   UNL     1      -4.109  -2.092  23.813  0.00  0.00    +0.419 C 
ATOM      3  F   UNL     1      -3.304  -2.257  23.742  0.00  0.00    -0.166 F 
ATOM      4  F   UNL     1      -4.914  -1.928  23.883  0.00  0.00    -0.166 F 
ENDBRANCH   5   2
ENDBRANCH  11   9
BRANCH  21  23
ATOM     23  C   UNL     1      -1.698   1.526  24.560  0.00  0.00    +0.092 A 
ATOM     24  C   UNL     1      -1.408   1.394  23.800  0.00  0.00    +0.107 A 
ATOM     25  N   UNL     1      -0.597   1.292  23.679  0.00  0.00    -0.222 NA
ATOM     26  C   UNL     1      -0.079   1.322  24.320  0.00  0.00    +0.199 A 
ATOM     27  N   UNL     1      -0.369   1.453  25.080  0.00  0.00    -0.222 NA
ATOM     28  C   UNL     1      -1.179   1.556  25.201  0.00  0.00    +0.107 A 
ENDBRANCH  21  23
TORSDOF 3
ENDMDL
MODEL 2
REMARK VINA RESULT:     -15.6      2.089      3.667
REMARK  Name = 
REMARK  3 active torsions:
REMARK  status: ('A' for Active; 'I' for Inactive)
REMARK    1  A    between atoms: C_2  and  C_5
REMARK    2  A    between atoms: C_9  and  C_11
REMARK    3  A    between atoms: C_21  and  C_23
REMARK                            x       y       z     vdW  Elec       q    Type
REMARK                         _______ _______ _______ _____ _____    ______ ____
ROOT
ATOM     11  C   UNL     1      -3.857   1.040  24.583  0.00  0.00    +0.056 A 
ATOM     12  C   UNL     1      -4.488   0.509  24.593  0.00  0.00    +0.006 A 
ATOM     13  C   UNL     1      -4.353  -0.290  24.749  0.00  0.00    +0.013 A 
ATOM     14  C   UNL     1      -3.587  -0.558  24.896  0.00  0.00    +0.041 A 
ATOM     15  C   UNL     1      -3.125  -1.328  25.090  0.00  0.00    +0.058 C 
ATOM     16  C   UNL     1      -3.220  -2.015  25.197  0.00  0.00    +0.011 C 
ATOM     17  C   UNL     1      -2.599  -1.488  25.186  0.00  0.00    +0.043 C 
ATOM     18  C   UNL     1      -1.732  -1.015  25.217  0.00  0.00    +0.096 C 
ATOM     19  N   UNL     1      -1.990  -0.238  25.049  0.00  0.00    -0.276 N 
ATOM     20  C   UNL     1      -2.279  -0.885  25.123  0.00  0.00    +0.099 C 
ATOM     21  C   UNL     1      -1.947   0.575  24.913  0.00  0.00    +0.252 C 
ATOM     22  O   UNL     1      -2.634   1.003  24.749  0.00  0.00    -0.270 OA
ATOM     29  C   UNL     1      -3.073  -0.678  24.984  0.00  0.00    +0.110 C 
ATOM     30  N   UNL     1      -2.955  -0.026  24.886  0.00  0.00    -0.299 N 
ATOM     31  C   UNL     1      -3.090   0.772  24.730  0.00  0.00    +0.261 A 
ATOM     32  O   UNL     1      -2.651   1.467  24.666  0.00  0.00    -0.267 OA
ENDROOT
BRANCH  11   9
ATOM      5  C   UNL     1      -4.421   3.130  24.863  0.00  0.00    +0.071 A 
ATOM      6  C   UNL     1      -4.264   3.435  24.112  0.00  0.00    +0.004 A 
ATOM      7  C   UNL     1      -3.971   2.942  23.519  0.00  0.00    -0.000 A 
ATOM      8  C   UNL     1      -3.836   2.143  23.676  0.00  0.00    +0.000 A 
ATOM      9  C   UNL     1      -3.992   1.838  24.427  0.00  0.00    +0.005 A 
ATOM     10  C   UNL     1      -4.285   2.331  25.020  0.00  0.00    +0.004 A 
BRANCH   5   2
ATOM      1  F   UNL     1      -5.005   4.116  26.049  0.00  0.00    -0.166 F 
ATOM      2  C   UNL     1      -4.713   3.623  25.456  0.00  0.00    +0.419 C 
ATOM      3  F   UNL     1      -3.942   3.813  25.678  0.00  0.00    -0.166 F 
ATOM      4  F   UNL     1      -5.484   3.433  25.234  0.00  0.00    -0.166 F 
ENDBRANCH   5   2
ENDBRANCH  11   9
BRANCH  21  23
ATOM     23  C   UNL     1      -1.218   0.959  24.942  0.00  0.00    +0.092 A 
ATOM     24  C   UNL     1      -0.957   1.297  25.647  0.00  0.00    +0.107 A 
ATOM     25  N   UNL     1      -0.227   1.682  25.675  0.00  0.00    -0.222 NA
ATOM     26  C   UNL     1       0.240   1.729  24.997  0.00  0.00    +0.199 A 
ATOM     27  N   UNL     1      -0.020   1.392  24.292  0.00  0.00    -0.222 NA
ATOM     28  C   UNL     1      -0.750   1.007  24.263  0.00  0.00    +0.107 A 
ENDBRANCH  21  23
TORSDOF 3
ENDMDL
MODEL 3
REMARK VINA RESULT:     -15.3      2.250      3.799
REMARK  Name = 
REMARK  3 active torsions:
REMARK  status: ('A' for Active; 'I' for Inactive)
REMARK    1  A    between atoms: C_2  and  C_5
REMARK    2  A    between atoms: C_9  and  C_11
REMARK    3  A    between atoms: C_21  and  C_23
REMARK                            x       y       z     vdW  Elec       q    Type
REMARK                         _______ _______ _______ _____ _____    ______ ____
ROOT
ATOM     11  C   UNL     1      -2.787   2.866  25.046  0.00  0.00    +0.056 A 
ATOM     12  C   UNL     1      -3.057   3.628  25.212  0.00  0.00    +0.006 A 
ATOM     13  C   UNL     1      -3.860   3.761  25.344  0.00  0.00    +0.013 A 
ATOM     14  C   UNL     1      -4.393   3.133  25.310  0.00  0.00    +0.041 A 
ATOM     15  C   UNL     1      -5.290   2.952  25.401  0.00  0.00    +0.058 C 
ATOM     16  C   UNL     1      -5.903   3.265  25.537  0.00  0.00    +0.011 C 
ATOM     17  C   UNL     1      -5.633   2.514  25.373  0.00  0.00    +0.043 C 
ATOM     18  C   UNL     1      -5.505   1.551  25.192  0.00  0.00    +0.096 C 
ATOM     19  N   UNL     1      -4.677   1.540  25.077  0.00  0.00    -0.276 N 
ATOM     20  C   UNL     1      -5.182   2.019  25.228  0.00  0.00    +0.099 C 
ATOM     21  C   UNL     1      -3.926   1.235  24.924  0.00  0.00    +0.252 C 
ATOM     22  O   UNL     1      -3.270   1.737  24.920  0.00  0.00    -0.270 OA
ATOM     29  C   UNL     1      -4.695   2.693  25.276  0.00  0.00    +0.110 C 
ATOM     30  N   UNL     1      -4.123   2.371  25.144  0.00  0.00    -0.299 N 
ATOM     31  C   UNL     1      -3.320   2.238  25.012  0.00  0.00    +0.261 A 
ATOM     32  O   UNL     1      -2.825   1.602  24.836  0.00  0.00    -0.267 OA
ENDROOT
BRANCH  11   9
ATOM      5  C   UNL     1      -0.661   2.539  25.420  0.00  0.00    +0.071 A 
ATOM      6  C   UNL     1      -0.377   2.468  24.649  0.00  0.00    +0.004 A 
ATOM      7  C   UNL     1      -0.896   2.529  24.011  0.00  0.00    -0.000 A 
ATOM      8  C   UNL     1      -1.699   2.662  24.143  0.00  0.00    +0.000 A 
ATOM      9  C   UNL     1      -1.984   2.733  24.914  0.00  0.00    +0.005 A 
ATOM     10  C   UNL     1      -1.465   2.672  25.553  0.00  0.00    +0.004 A 
BRANCH   5   2
ATOM      1  F   UNL     1       0.376   2.417  26.697  0.00  0.00    -0.166 F 
ATOM      2  C   UNL     1      -0.142   2.478  26.059  0.00  0.00    +0.419 C 
ATOM      3  F   UNL     1      -0.010   3.291  26.030  0.00  0.00    -0.166 F 
ATOM      4  F   UNL     1      -0.275   1.664  26.088  0.00  0.00    -0.166 F 
ENDBRANCH   5   2
ENDBRANCH  11   9
BRANCH  21  23
ATOM     23  C   UNL     1      -3.830   0.430  24.774  0.00  0.00    +0.092 A 
ATOM     24  C   UNL     1      -3.706  -0.094  25.398  0.00  0.00    +0.107 A 
ATOM     25  N   UNL     1      -3.610  -0.901  25.248  0.00  0.00    -0.222 NA
ATOM     26  C   UNL     1      -3.638  -1.181  24.473  0.00  0.00    +0.199 A 
ATOM     27  N   UNL     1      -3.761  -0.658  23.848  0.00  0.00    -0.222 NA
ATOM     28  C   UNL     1      -3.857   0.149  23.998  0.00  0.00    +0.107 A 
ENDBRANCH  21  23
TORSDOF 3
ENDMDL
MODEL 4
REMARK VINA RESULT:     -15.2      0.998      2.718
REMARK  Name = 
REMARK  3 active torsions:
REMARK  status: ('A' for Active; 'I' for Inactive)
REMARK    1  A    between atoms: C_2  and  C_5
REMARK    2  A    between atoms: C_9  and  C_11
REMARK    3  A    between atoms: C_21  and  C_23
REMARK                            x       y       z     vdW  Elec       q    Type
REMARK                         _______ _______ _______ _____ _____    ______ ____
ROOT
ATOM     11  C   UNL     1      -1.918  -0.200  24.858  0.00  0.00    +0.056 A 
ATOM     12  C   UNL     1      -1.163  -0.531  24.817  0.00  0.00    +0.006 A 
ATOM     13  C   UNL     1      -0.511  -0.052  24.654  0.00  0.00    +0.013 A 
ATOM     14  C   UNL     1      -0.614   0.757  24.531  0.00  0.00    +0.041 A 
ATOM     15  C   UNL     1      -0.133   1.517  24.342  0.00  0.00    +0.058 C 
ATOM     16  C   UNL     1       0.522   1.738  24.221  0.00  0.00    +0.011 C 
ATOM     17  C   UNL     1      -0.225   2.061  24.262  0.00  0.00    +0.043 C 
ATOM     18  C   UNL     1      -1.033   2.630  24.270  0.00  0.00    +0.096 C 
ATOM     19  N   UNL     1      -1.610   2.051  24.441  0.00  0.00    -0.276 N 
ATOM     20  C   UNL     1      -0.905   2.080  24.346  0.00  0.00    +0.099 C 
ATOM     21  C   UNL     1      -2.354   1.726  24.590  0.00  0.00    +0.252 C 
ATOM     22  O   UNL     1      -2.430   0.917  24.736  0.00  0.00    -0.270 OA
ATOM     29  C   UNL     1      -0.736   1.272  24.460  0.00  0.00    +0.110 C 
ATOM     30  N   UNL     1      -1.369   1.087  24.572  0.00  0.00    -0.299 N 
ATOM     31  C   UNL     1      -2.021   0.609  24.735  0.00  0.00    +0.261 A 
ATOM     32  O   UNL     1      -2.836   0.694  24.825  0.00  0.00    -0.267 OA
ENDROOT
BRANCH  11   9
ATOM      5  C   UNL     1      -3.620  -1.537  24.571  0.00  0.00    +0.071 A 
ATOM      6  C   UNL     1      -3.872  -1.637  25.350  0.00  0.00    +0.004 A 
ATOM      7  C   UNL     1      -3.473  -1.258  25.965  0.00  0.00    -0.000 A 
ATOM      8  C   UNL     1      -2.822  -0.779  25.801  0.00  0.00    +0.000 A 
ATOM      9  C   UNL     1      -2.569  -0.679  25.021  0.00  0.00    +0.005 A 
ATOM     10  C   UNL     1      -2.968  -1.057  24.407  0.00  0.00    +0.004 A 
BRANCH   5   2
ATOM      1  F   UNL     1      -4.418  -2.293  23.342  0.00  0.00    -0.166 F 
ATOM      2  C   UNL     1      -4.019  -1.915  23.956  0.00  0.00    +0.419 C 
ATOM      3  F   UNL     1      -3.507  -2.558  24.019  0.00  0.00    -0.166 F 
ATOM      4  F   UNL     1      -4.532  -1.272  23.893  0.00  0.00    -0.166 F 
ENDBRANCH   5   2
ENDBRANCH  11   9
BRANCH  21  23
ATOM     23  C   UNL     1      -3.022   2.210  24.594  0.00  0.00    +0.092 A 
ATOM     24  C   UNL     1      -3.255   2.586  25.290  0.00  0.00    +0.107 A 
ATOM     25  N   UNL     1      -3.923   3.071  25.294  0.00  0.00    -0.222 NA
ATOM     26  C   UNL     1      -4.358   3.178  24.601  0.00  0.00    +0.199 A 
ATOM     27  N   UNL     1      -4.126   2.802  23.905  0.00  0.00    -0.222 NA
ATOM     28  C   UNL     1      -3.457   2.318  23.901  0.00  0.00    +0.107 A 
ENDBRANCH  21  23
TORSDOF 3
ENDMDL
MODEL 5
REMARK VINA RESULT:     -14.8      1.233      1.592
REMARK  Name = 
REMARK  3 active torsions:
REMARK  status: ('A' for Active; 'I' for Inactive)
REMARK    1  A    between atoms: C_2  and  C_5
REMARK    2  A    between atoms: C_9  and  C_11
REMARK    3  A    between atoms: C_21  and  C_23
REMARK                            x       y       z     vdW  Elec       q    Type
REMARK                         _______ _______ _______ _____ _____    ______ ____
ROOT
ATOM     11  C   UNL     1      -3.277  -0.100  25.195  0.00  0.00    +0.056 A 
ATOM     12  C   UNL     1      -4.046  -0.377  25.303  0.00  0.00    +0.006 A 
ATOM     13  C   UNL     1      -4.687   0.134  25.205  0.00  0.00    +0.013 A 
ATOM     14  C   UNL     1      -4.557   0.922  24.999  0.00  0.00    +0.041 A 
ATOM     15  C   UNL     1      -5.016   1.699  24.824  0.00  0.00    +0.058 C 
ATOM     16  C   UNL     1      -5.668   1.957  24.790  0.00  0.00    +0.011 C 
ATOM     17  C   UNL     1      -4.906   2.227  24.685  0.00  0.00    +0.043 C 
ATOM     18  C   UNL     1      -4.076   2.735  24.515  0.00  0.00    +0.096 C 
ATOM     19  N   UNL     1      -3.514   2.129  24.641  0.00  0.00    -0.276 N 
ATOM     20  C   UNL     1      -4.222   2.203  24.657  0.00  0.00    +0.099 C 
ATOM     21  C   UNL     1      -2.776   1.764  24.698  0.00  0.00    +0.252 C 
ATOM     22  O   UNL     1      -2.726   0.964  24.898  0.00  0.00    -0.270 OA
ATOM     29  C   UNL     1      -4.418   1.421  24.865  0.00  0.00    +0.110 C 
ATOM     30  N   UNL     1      -3.787   1.199  24.891  0.00  0.00    -0.299 N 
ATOM     31  C   UNL     1      -3.147   0.688  24.989  0.00  0.00    +0.261 A 
ATOM     32  O   UNL     1      -2.324   0.720  24.941  0.00  0.00    -0.267 OA
ENDROOT
BRANCH  11   9
ATOM      5  C   UNL     1      -1.842  -1.704  24.828  0.00  0.00    +0.071 A 
ATOM      6  C   UNL     1      -1.358  -1.634  25.492  0.00  0.00    +0.004 A 
ATOM      7  C   UNL     1      -1.513  -1.054  26.058  0.00  0.00    -0.000 A 
ATOM      8  C   UNL     1      -2.153  -0.542  25.958  0.00  0.00    +0.000 A 
ATOM      9  C   UNL     1      -2.637  -0.611  25.294  0.00  0.00    +0.005 A 
ATOM     10  C   UNL     1      -2.482  -1.192  24.729  0.00  0.00    +0.004 A 
BRANCH   5   2
ATOM      1  F   UNL     1      -1.531  -2.864  23.697  0.00  0.00    -0.166 F 
ATOM      2  C   UNL     1      -1.686  -2.284  24.263  0.00  0.00    +0.419 C 
ATOM      3  F   UNL     1      -1.132  -1.788  23.906  0.00  0.00    -0.166 F 
ATOM      4  F   UNL     1      -2.240  -2.780  24.619  0.00  0.00    -0.166 F 
ENDBRANCH   5   2
ENDBRANCH  11   9
BRANCH  21  23
ATOM     23  C   UNL     1      -2.089   2.197  24.555  0.00  0.00    +0.092 A 
ATOM     24  C   UNL     1      -1.759   2.210  23.799  0.00  0.00    +0.107 A 
ATOM     25  N   UNL     1      -1.072   2.643  23.655  0.00  0.00    -0.222 NA
ATOM     26  C   UNL     1      -0.715   3.064  24.269  0.00  0.00    +0.199 A 
ATOM     27  N   UNL     1      -1.043   3.051  25.024  0.00  0.00    -0.222 NA
ATOM     28  C   UNL     1      -1.731   2.617  25.168  0.00  0.00    +0.107 A 
ENDBRANCH  21  23
TORSDOF 3
ENDMDL
MODEL 6
REMARK VINA RESULT:     -14.6      2.241      3.246
REMARK  Name = 
REMARK  3 active torsions:
REMARK  status: ('A' for Active; 'I' for Inactive)
REMARK    1  A    between atoms: C_2  and  C_5
REMARK    2  A    between atoms: C_9  and  C_11
REMARK    3  A    between atoms: C_21  and  C_23
REMARK                            x       y       z     vdW  Elec       q    Type
REMARK                         _______ _______ _______ _____ _____    ______ ____
ROOT
ATOM     11  C   UNL     1      -3.498   3.262  24.910  0.00  0.00    +0.056 A 
ATOM     12  C   UNL     1      -3.570   4.083  24.948  0.00  0.00    +0.006 A 
ATOM     13  C   UNL     1      -2.896   4.555  25.005  0.00  0.00    +0.013 A 
ATOM     14  C   UNL     1      -2.149   4.205  25.026  0.00  0.00    +0.041 A 
ATOM     15  C   UNL     1      -1.259   4.426  25.082  0.00  0.00    +0.058 C 
ATOM     16  C   UNL     1      -0.831   4.981  25.131  0.00  0.00    +0.011 C 
ATOM     17  C   UNL     1      -0.764   4.170  25.094  0.00  0.00    +0.043 C 
ATOM     18  C   UNL     1      -0.479   3.224  25.061  0.00  0.00    +0.096 C 
ATOM     19  N   UNL     1      -1.226   2.855  25.005  0.00  0.00    -0.276 N 
ATOM     20  C   UNL     1      -0.968   3.517  25.051  0.00  0.00    +0.099 C 
ATOM     21  C   UNL     1      -1.782   2.248  24.947  0.00  0.00    +0.252 C 
ATOM     22  O   UNL     1      -2.588   2.428  24.915  0.00  0.00    -0.270 OA
ATOM     29  C   UNL     1      -1.691   3.929  25.035  0.00  0.00    +0.110 C 
ATOM     30  N   UNL     1      -2.076   3.384  24.988  0.00  0.00    -0.299 N 
ATOM     31  C   UNL     1      -2.751   2.912  24.931  0.00  0.00    +0.261 A 
ATOM     32  O   UNL     1      -2.935   2.110  24.881  0.00  0.00    -0.267 OA
ENDROOT
BRANCH  11   9
ATOM      5  C   UNL     1      -5.312   2.180  25.462  0.00  0.00    +0.071 A 
ATOM      6  C   UNL     1      -5.522   1.849  24.736  0.00  0.00    +0.004 A 
ATOM      7  C   UNL     1      -5.057   1.989  24.068  0.00  0.00    -0.000 A 
ATOM      8  C   UNL     1      -4.383   2.460  24.127  0.00  0.00    +0.000 A 
ATOM      9  C   UNL     1      -4.172   2.791  24.853  0.00  0.00    +0.005 A 
ATOM     10  C   UNL     1      -4.636   2.651  25.520  0.00  0.00    +0.004 A 
BRANCH   5   2
ATOM      1  F   UNL     1      -6.240   1.901  26.796  0.00  0.00    -0.166 F 
ATOM      2  C   UNL     1      -5.776   2.040  26.129  0.00  0.00    +0.419 C 
ATOM      3  F   UNL     1      -5.561   1.244  26.112  0.00  0.00    -0.166 F 
ATOM      4  F   UNL     1      -5.992   2.836  26.146  0.00  0.00    -0.166 F 
ENDBRANCH   5   2
ENDBRANCH  11   9
BRANCH  21  23
ATOM     23  C   UNL     1      -1.534   1.462  24.920  0.00  0.00    +0.092 A 
ATOM     24  C   UNL     1      -1.435   1.037  25.619  0.00  0.00    +0.107 A 
ATOM     25  N   UNL     1      -1.186   0.250  25.593  0.00  0.00    -0.222 NA
ATOM     26  C   UNL     1      -1.036  -0.110  24.866  0.00  0.00    +0.199 A 
ATOM     27  N   UNL     1      -1.134   0.315  24.166  0.00  0.00    -0.222 NA
ATOM     28  C   UNL     1      -1.383   1.102  24.193  0.00  0.00    +0.107 A 
ENDBRANCH  21  23
TORSDOF 3
ENDMDL
MODEL 7
REMARK VINA RESULT:     -14.5      2.374      4.345
REMARK  Name = 
REMARK  3 active torsions:
REMARK  status: ('A' for Active; 'I' for Inactive)
REMARK    1  A    between atoms: C_2  and  C_5
REMARK    2  A    between atoms: C_9  and  C_11
REMARK    3  A    between atoms: C_21  and  C_23
REMARK                            x       y       z     vdW  Elec       q    Type
REMARK                         _______ _______ _______ _____ _____    ______ ____
ROOT
ATOM     11  C   UNL     1      -1.522   0.454  24.850  0.00  0.00    +0.056 A 
ATOM     12  C   UNL     1      -1.152  -0.283  24.856  0.00  0.00    +0.006 A 
ATOM     13  C   UNL     1      -1.603  -0.972  24.813  0.00  0.00    +0.013 A 
ATOM     14  C   UNL     1      -2.425  -0.924  24.765  0.00  0.00    +0.041 A 
ATOM     15  C   UNL     1      -3.169  -1.460  24.708  0.00  0.00    +0.058 C 
ATOM     16  C   UNL     1      -3.361  -2.135  24.681  0.00  0.00    +0.011 C 
ATOM     17  C   UNL     1      -3.723  -1.406  24.676  0.00  0.00    +0.043 C 
ATOM     18  C   UNL     1      -4.337  -0.631  24.656  0.00  0.00    +0.096 C 
ATOM     19  N   UNL     1      -3.780  -0.010  24.704  0.00  0.00    -0.276 N 
ATOM     20  C   UNL     1      -3.775  -0.722  24.688  0.00  0.00    +0.099 C 
ATOM     21  C   UNL     1      -3.488   0.761  24.738  0.00  0.00    +0.252 C 
ATOM     22  O   UNL     1      -2.675   0.893  24.790  0.00  0.00    -0.270 OA
ATOM     29  C   UNL     1      -2.952  -0.837  24.735  0.00  0.00    +0.110 C 
ATOM     30  N   UNL     1      -2.796  -0.187  24.759  0.00  0.00    -0.299 N 
ATOM     31  C   UNL     1      -2.344   0.502  24.801  0.00  0.00    +0.261 A 
ATOM     32  O   UNL     1      -2.470   1.317  24.812  0.00  0.00    -0.267 OA
ENDROOT
BRANCH  11   9
ATOM      5  C   UNL     1      -0.377   2.123  25.667  0.00  0.00    +0.071 A 
ATOM      6  C   UNL     1      -0.166   2.520  24.975  0.00  0.00    +0.004 A 
ATOM      7  C   UNL     1      -0.407   2.229  24.242  0.00  0.00    -0.000 A 
ATOM      8  C   UNL     1      -0.859   1.540  24.201  0.00  0.00    +0.000 A 
ATOM      9  C   UNL     1      -1.070   1.143  24.892  0.00  0.00    +0.005 A 
ATOM     10  C   UNL     1      -0.829   1.434  25.625  0.00  0.00    +0.004 A 
BRANCH   5   2
ATOM      1  F   UNL     1       0.105   2.706  27.134  0.00  0.00    -0.166 F 
ATOM      2  C   UNL     1      -0.136   2.415  26.400  0.00  0.00    +0.419 C 
ATOM      3  F   UNL     1      -0.874   2.768  26.502  0.00  0.00    -0.166 F 
ATOM      4  F   UNL     1       0.602   2.061  26.298  0.00  0.00    -0.166 F 
ENDBRANCH   5   2
ENDBRANCH  11   9
BRANCH  21  23
ATOM     23  C   UNL     1      -4.009   1.400  24.721  0.00  0.00    +0.092 A 
ATOM     24  C   UNL     1      -4.152   1.797  24.013  0.00  0.00    +0.107 A 
ATOM     25  N   UNL     1      -4.674   2.437  23.996  0.00  0.00    -0.222 NA
ATOM     26  C   UNL     1      -5.052   2.678  24.688  0.00  0.00    +0.199 A 
ATOM     27  N   UNL     1      -4.910   2.282  25.396  0.00  0.00    -0.222 NA
ATOM     28  C   UNL     1      -4.388   1.642  25.413  0.00  0.00    +0.107 A 
ENDBRANCH  21  23
TORSDOF 3
ENDMDL
