MODEL 1
REMARK VINA RESULT:     -10.5      0.000      0.000
REMARK  Name = 
REMARK  8 active torsions:
REMARK  status: ('A' for Active; 'I' for Inactive)
REMARK    1  A    between atoms: C_2  and  C_4
REMARK    2  A    between atoms: C_4  and  C_5
REMARK    3  A    between atoms: C_4  and  N_15
REMARK    4  A    between atoms: C_5  and  C_6
REMARK    5  A    between atoms: C_16  and  C_18
REMARK    6  A    between atoms: N_20  and  S_32
REMARK    7  A    between atoms: C_24  and  C_26
REMARK    8  A    between atoms: S_32  and  C_35
REMARK                            x       y       z     vdW  Elec       q    Type
REMARK                         _______ _______ _______ _____ _____    ______ ____
ROOT
ATOM     18  C   UNL     1      -3.784   1.077  24.159  0.00  0.00    +0.171 C 
ATOM     19  C   UNL     1      -3.644   0.265  24.126  0.00  0.00    +0.125 C 
ATOM     20  N   UNL     1      -4.089  -0.250  24.593  0.00  0.00    -0.152 NA
ATOM     21  C   UNL     1      -4.674   0.048  25.094  0.00  0.00    +0.117 C 
ATOM     22  C   UNL     1      -4.813   0.861  25.127  0.00  0.00    +0.113 C 
ATOM     23  N   UNL     1      -4.369   1.375  24.660  0.00  0.00    -0.270 N 
ATOM     24  C   UNL     1      -4.508   2.187  24.693  0.00  0.00    +0.226 C 
ATOM     25  O   UNL     1      -4.063   2.702  24.226  0.00  0.00    -0.275 OA
ENDROOT
BRANCH  24  26
ATOM     26  C   UNL     1      -5.092   2.485  25.194  0.00  0.00    +0.080 C 
ATOM     27  C   UNL     1      -4.883   2.962  25.834  0.00  0.00    +0.028 C 
ATOM     28  C   UNL     1      -5.467   3.260  26.335  0.00  0.00    +0.089 C 
ATOM     29  N   UNL     1      -6.261   3.081  26.194  0.00  0.00    -0.218 NA
ATOM     30  C   UNL     1      -6.470   2.605  25.554  0.00  0.00    +0.089 C 
ATOM     31  C   UNL     1      -5.885   2.307  25.054  0.00  0.00    +0.028 C 
ENDBRANCH  24  26
BRANCH  18  16
ATOM     15  N   UNL     1      -2.528   1.471  23.603  0.00  0.00    -0.196 NA
ATOM     16  C   UNL     1      -3.339   1.592  23.693  0.00  0.00    +0.261 C 
ATOM     17  O   UNL     1      -3.706   2.227  23.316  0.00  0.00    -0.271 OA
BRANCH  15   4
ATOM      4  C   UNL     1      -2.083   1.986  23.137  0.00  0.00    +0.179 C 
BRANCH   4   2
ATOM      1  N   UNL     1      -2.292   2.643  21.885  0.00  0.00    -0.086 NA
ATOM      2  C   UNL     1      -2.147   1.955  22.314  0.00  0.00    +0.281 C 
ATOM      3  O   UNL     1      -2.064   1.233  21.922  0.00  0.00    -0.270 OA
ENDBRANCH   4   2
BRANCH   4   5
ATOM      5  C   UNL     1      -1.575   2.531  23.492  0.00  0.00    +0.059 C 
BRANCH   5   6
ATOM      6  C   UNL     1      -0.938   2.268  23.943  0.00  0.00    +0.001 A 
ATOM      7  C   UNL     1      -0.436   1.639  23.755  0.00  0.00    +0.095 A 
ATOM      8  N   UNL     1       0.122   1.570  24.358  0.00  0.00    -0.244 NA
ATOM      9  C   UNL     1      -0.034   2.154  24.919  0.00  0.00    +0.081 A 
ATOM     10  C   UNL     1      -0.689   2.585  24.662  0.00  0.00    +0.015 A 
ATOM     11  C   UNL     1      -0.973   3.212  25.117  0.00  0.00    +0.001 A 
ATOM     12  C   UNL     1      -0.604   3.408  25.828  0.00  0.00    +0.000 A 
ATOM     13  C   UNL     1       0.051   2.976  26.084  0.00  0.00    +0.002 A 
ATOM     14  C   UNL     1       0.336   2.350  25.630  0.00  0.00    +0.019 A 
ENDBRANCH   5   6
ENDBRANCH   4   5
ENDBRANCH  15   4
ENDBRANCH  18  16
BRANCH  20  32
ATOM     32  S   UNL     1      -3.950  -1.062  24.559  0.00  0.00    +0.063 S 
ATOM     33  O   UNL     1      -4.328  -1.097  23.827  0.00  0.00    -0.153 OA
ATOM     34  O   UNL     1      -3.571  -1.029  25.292  0.00  0.00    -0.153 OA
BRANCH  32  35
ATOM     35  C   UNL     1      -3.810  -1.875  24.525  0.00  0.00    +0.122 A 
ATOM     36  C   UNL     1      -3.316  -2.232  25.081  0.00  0.00    +0.020 A 
ATOM     37  C   UNL     1      -3.176  -3.045  25.047  0.00  0.00    +0.001 A 
ATOM     38  C   UNL     1      -3.531  -3.500  24.456  0.00  0.00    +0.000 A 
ATOM     39  C   UNL     1      -4.025  -3.142  23.900  0.00  0.00    +0.001 A 
ATOM     40  C   UNL     1      -4.164  -2.330  23.935  0.00  0.00    +0.020 A 
ENDBRANCH  32  35
ENDBRANCH  20  32
TORSDOF 8
ENDMDL
MODEL 2
REMARK VINA RESULT:     -10.5      2.441      6.190
REMARK  Name = 
REMARK  8 active torsions:
REMARK  status: ('A' for Active; 'I' for Inactive)
REMARK    1  A    between atoms: C_2  and  C_4
REMARK    2  A    between atoms: C_4  and  C_5
REMARK    3  A    between atoms: C_4  and  N_15
REMARK    4  A    between atoms: C_5  and  C_6
REMARK    5  A    between atoms: C_16  and  C_18
REMARK    6  A    between atoms: N_20  and  S_32
REMARK    7  A    between atoms: C_24  and  C_26
REMARK    8  A    between atoms: S_32  and  C_35
REMARK                            x       y       z     vdW  Elec       q    Type
REMARK                         _______ _______ _______ _____ _____    ______ ____
ROOT
ATOM     18  C   UNL     1      -0.373   0.800  24.452  0.00  0.00    +0.171 C 
ATOM     19  C   UNL     1      -0.680   1.528  24.689  0.00  0.00    +0.125 C 
ATOM     20  N   UNL     1      -0.388   2.227  24.359  0.00  0.00    -0.152 NA
ATOM     21  C   UNL     1       0.210   2.197  23.792  0.00  0.00    +0.117 C 
ATOM     22  C   UNL     1       0.517   1.468  23.555  0.00  0.00    +0.113 C 
ATOM     23  N   UNL     1       0.226   0.771  23.884  0.00  0.00    -0.270 N 
ATOM     24  C   UNL     1       0.533   0.043  23.647  0.00  0.00    +0.226 C 
ATOM     25  O   UNL     1       0.242  -0.656  23.977  0.00  0.00    -0.275 OA
ENDROOT
BRANCH  24  26
ATOM     26  C   UNL     1       1.131   0.013  23.079  0.00  0.00    +0.080 C 
ATOM     27  C   UNL     1       0.953  -0.204  22.303  0.00  0.00    +0.028 C 
ATOM     28  C   UNL     1       1.551  -0.234  21.736  0.00  0.00    +0.089 C 
ATOM     29  N   UNL     1       2.327  -0.047  21.945  0.00  0.00    -0.218 NA
ATOM     30  C   UNL     1       2.505   0.169  22.720  0.00  0.00    +0.089 C 
ATOM     31  C   UNL     1       1.907   0.199  23.287  0.00  0.00    +0.028 C 
ENDBRANCH  24  26
BRANCH  18  16
ATOM     15  N   UNL     1      -1.466   0.032  24.959  0.00  0.00    -0.196 NA
ATOM     16  C   UNL     1      -0.663   0.102  24.782  0.00  0.00    +0.261 C 
ATOM     17  O   UNL     1      -0.151  -0.526  24.934  0.00  0.00    -0.271 OA
BRANCH  15   4
ATOM      4  C   UNL     1      -1.757  -0.665  25.288  0.00  0.00    +0.179 C 
BRANCH   4   2
ATOM      1  N   UNL     1      -1.307  -1.411  26.421  0.00  0.00    -0.086 NA
ATOM      2  C   UNL     1      -1.729  -0.778  26.106  0.00  0.00    +0.281 C 
ATOM      3  O   UNL     1      -2.124  -0.254  26.607  0.00  0.00    -0.270 OA
ENDBRANCH   4   2
BRANCH   4   5
ATOM      5  C   UNL     1      -2.075  -1.251  24.802  0.00  0.00    +0.059 C 
BRANCH   5   6
ATOM      6  C   UNL     1      -2.852  -1.188  24.534  0.00  0.00    +0.001 A 
ATOM      7  C   UNL     1      -3.288  -0.490  24.472  0.00  0.00    +0.095 A 
ATOM      8  N   UNL     1      -4.036  -0.682  24.181  0.00  0.00    -0.244 NA
ATOM      9  C   UNL     1      -4.062  -1.497  24.063  0.00  0.00    +0.081 A 
ATOM     10  C   UNL     1      -3.330  -1.810  24.282  0.00  0.00    +0.015 A 
ATOM     11  C   UNL     1      -3.195  -2.622  24.222  0.00  0.00    +0.001 A 
ATOM     12  C   UNL     1      -3.790  -3.120  23.945  0.00  0.00    +0.000 A 
ATOM     13  C   UNL     1      -4.522  -2.808  23.727  0.00  0.00    +0.002 A 
ATOM     14  C   UNL     1      -4.658  -1.996  23.786  0.00  0.00    +0.019 A 
ENDBRANCH   5   6
ENDBRANCH   4   5
ENDBRANCH  15   4
ENDBRANCH  18  16
BRANCH  20  32
ATOM     32  S   UNL     1      -0.696   2.954  24.597  0.00  0.00    +0.063 S 
ATOM     33  O   UNL     1      -1.198   2.956  23.943  0.00  0.00    -0.153 OA
ATOM     34  O   UNL     1      -0.193   2.954  25.252  0.00  0.00    -0.153 OA
BRANCH  32  35
ATOM     35  C   UNL     1      -1.004   3.682  24.834  0.00  0.00    +0.122 A 
ATOM     36  C   UNL     1      -1.731   3.715  25.222  0.00  0.00    +0.020 A 
ATOM     37  C   UNL     1      -2.040   4.442  25.460  0.00  0.00    +0.001 A 
ATOM     38  C   UNL     1      -1.621   5.137  25.309  0.00  0.00    +0.000 A 
ATOM     39  C   UNL     1      -0.894   5.104  24.921  0.00  0.00    +0.001 A 
ATOM     40  C   UNL     1      -0.586   4.376  24.684  0.00  0.00    +0.020 A 
ENDBRANCH  32  35
ENDBRANCH  20  32
TORSDOF 8
ENDMDL
MODEL 3
REMARK VINA RESULT:     -10.1      1.395      3.931
REMARK  Name = 
REMARK  8 active torsions:
REMARK  status: ('A' for Active; 'I' for Inactive)
REMARK    1  A    between atoms: C_2  and  C_4
REMARK    2  A    between atoms: C_4  and  C_5
REMARK    3  A    between atoms: C_4  and  N_15
REMARK    4  A    between atoms: C_5  and  C_6
REMARK    5  A    between atoms: C_16  and  C_18
REMARK    6  A    between atoms: N_20  and  S_32
REMARK    7  A    between atoms: C_24  and  C_26
REMARK    8  A    between atoms: S_32  and  C_35
REMARK                            x       y       z     vdW  Elec       q    Type
REMARK                         _______ _______ _______ _____ _____    ______ ____
ROOT
ATOM     18  C   UNL     1      -3.027   0.366  24.550  0.00  0.00    +0.171 C 
ATOM     19  C   UNL     1      -3.438   1.056  24.739  0.00  0.00    +0.125 C 
ATOM     20  N   UNL     1      -4.252   1.029  24.872  0.00  0.00    -0.152 NA
ATOM     21  C   UNL     1      -4.656   0.312  24.817  0.00  0.00    +0.117 C 
ATOM     22  C   UNL     1      -4.245  -0.379  24.628  0.00  0.00    +0.113 C 
ATOM     23  N   UNL     1      -3.432  -0.352  24.494  0.00  0.00    -0.270 N 
ATOM     24  C   UNL     1      -3.021  -1.042  24.306  0.00  0.00    +0.226 C 
ATOM     25  O   UNL     1      -2.207  -1.014  24.172  0.00  0.00    -0.275 OA
ENDROOT
BRANCH  24  26
ATOM     26  C   UNL     1      -3.424  -1.759  24.250  0.00  0.00    +0.080 C 
ATOM     27  C   UNL     1      -3.931  -1.900  23.614  0.00  0.00    +0.028 C 
ATOM     28  C   UNL     1      -4.334  -2.617  23.559  0.00  0.00    +0.089 C 
ATOM     29  N   UNL     1      -4.231  -3.194  24.139  0.00  0.00    -0.218 NA
ATOM     30  C   UNL     1      -3.724  -3.054  24.775  0.00  0.00    +0.089 C 
ATOM     31  C   UNL     1      -3.321  -2.337  24.830  0.00  0.00    +0.028 C 
ENDBRANCH  24  26
BRANCH  18  16
ATOM     15  N   UNL     1      -1.708   0.667  25.007  0.00  0.00    -0.196 NA
ATOM     16  C   UNL     1      -2.214   0.393  24.416  0.00  0.00    +0.261 C 
ATOM     17  O   UNL     1      -1.907   0.146  23.692  0.00  0.00    -0.271 OA
BRANCH  15   4
ATOM      4  C   UNL     1      -0.894   0.694  24.874  0.00  0.00    +0.179 C 
BRANCH   4   2
ATOM      1  N   UNL     1       0.096  -0.244  24.448  0.00  0.00    -0.086 NA
ATOM      2  C   UNL     1      -0.431   0.028  25.021  0.00  0.00    +0.281 C 
ATOM      3  O   UNL     1      -0.495  -0.367  25.744  0.00  0.00    -0.270 OA
ENDBRANCH   4   2
BRANCH   4   5
ATOM      5  C   UNL     1      -0.545   1.387  24.593  0.00  0.00    +0.059 C 
BRANCH   5   6
ATOM      6  C   UNL     1      -0.472   2.042  25.088  0.00  0.00    +0.001 A 
ATOM      7  C   UNL     1      -0.301   2.025  25.895  0.00  0.00    +0.095 A 
ATOM      8  N   UNL     1      -0.281   2.802  26.169  0.00  0.00    -0.244 NA
ATOM      9  C   UNL     1      -0.439   3.301  25.531  0.00  0.00    +0.081 A 
ATOM     10  C   UNL     1      -0.557   2.831  24.863  0.00  0.00    +0.015 A 
ATOM     11  C   UNL     1      -0.727   3.184  24.137  0.00  0.00    +0.001 A 
ATOM     12  C   UNL     1      -0.779   4.004  24.078  0.00  0.00    +0.000 A 
ATOM     13  C   UNL     1      -0.661   4.474  24.746  0.00  0.00    +0.002 A 
ATOM     14  C   UNL     1      -0.491   4.123  25.473  0.00  0.00    +0.019 A 
ENDBRANCH   5   6
ENDBRANCH   4   5
ENDBRANCH  15   4
ENDBRANCH  18  16
BRANCH  20  32
ATOM     32  S   UNL     1      -4.662   1.720  25.061  0.00  0.00    +0.063 S 
ATOM     33  O   UNL     1      -4.476   2.033  24.321  0.00  0.00    -0.153 OA
ATOM     34  O   UNL     1      -4.849   1.408  25.802  0.00  0.00    -0.153 OA
BRANCH  32  35
ATOM     35  C   UNL     1      -5.072   2.411  25.249  0.00  0.00    +0.122 A 
ATOM     36  C   UNL     1      -4.695   3.142  25.190  0.00  0.00    +0.020 A 
ATOM     37  C   UNL     1      -5.104   3.834  25.378  0.00  0.00    +0.001 A 
ATOM     38  C   UNL     1      -5.890   3.793  25.625  0.00  0.00    +0.000 A 
ATOM     39  C   UNL     1      -6.267   3.062  25.684  0.00  0.00    +0.001 A 
ATOM     40  C   UNL     1      -5.857   2.371  25.496  0.00  0.00    +0.020 A 
ENDBRANCH  32  35
ENDBRANCH  20  32
TORSDOF 8
ENDMDL
MODEL 4
REMARK VINA RESULT:     -10.1      2.069      4.620
REMARK  Name = 
REMARK  8 active torsions:
REMARK  status: ('A' for Active; 'I' for Inactive)
REMARK    1  A    between atoms: C_2  and  C_4
REMARK    2  A    between atoms: C_4  and  C_5
REMARK    3  A    between atoms: C_4  and  N_15
REMARK    4  A    between atoms: C_5  and  C_6
REMARK    5  A    between atoms: C_16  and  C_18
REMARK    6  A    between atoms: N_20  and  S_32
REMARK    7  A    between atoms: C_24  and  C_26
REMARK    8  A    between atoms: S_32  and  C_35
REMARK                            x       y       z     vdW  Elec       q    Type
REMARK                         _______ _______ _______ _____ _____    ______ ____
ROOT
ATOM     18  C   UNL     1      -0.552   0.777  24.253  0.00  0.00    +0.171 C 
ATOM     19  C   UNL     1      -1.165   0.297  24.525  0.00  0.00    +0.125 C 
ATOM     20  N   UNL     1      -1.141  -0.517  24.396  0.00  0.00    -0.152 NA
ATOM     21  C   UNL     1      -0.503  -0.852  23.994  0.00  0.00    +0.117 C 
ATOM     22  C   UNL     1       0.110  -0.373  23.722  0.00  0.00    +0.113 C 
ATOM     23  N   UNL     1       0.086   0.441  23.851  0.00  0.00    -0.270 N 
ATOM     24  C   UNL     1       0.700   0.921  23.579  0.00  0.00    +0.226 C 
ATOM     25  O   UNL     1       0.676   1.736  23.708  0.00  0.00    -0.275 OA
ENDROOT
BRANCH  24  26
ATOM     26  C   UNL     1       1.338   0.586  23.177  0.00  0.00    +0.080 C 
ATOM     27  C   UNL     1       1.210   0.163  22.480  0.00  0.00    +0.028 C 
ATOM     28  C   UNL     1       1.848  -0.172  22.078  0.00  0.00    +0.089 C 
ATOM     29  N   UNL     1       2.613  -0.084  22.373  0.00  0.00    -0.218 NA
ATOM     30  C   UNL     1       2.741   0.339  23.069  0.00  0.00    +0.089 C 
ATOM     31  C   UNL     1       2.103   0.674  23.471  0.00  0.00    +0.028 C 
ENDBRANCH  24  26
BRANCH  18  16
ATOM     15  N   UNL     1      -0.891   1.889  25.084  0.00  0.00    -0.196 NA
ATOM     16  C   UNL     1      -0.576   1.591  24.382  0.00  0.00    +0.261 C 
ATOM     17  O   UNL     1      -0.284   2.108  23.810  0.00  0.00    -0.271 OA
BRANCH  15   4
ATOM      4  C   UNL     1      -0.915   2.703  25.214  0.00  0.00    +0.179 C 
BRANCH   4   2
ATOM      1  N   UNL     1      -0.109   2.705  26.394  0.00  0.00    -0.086 NA
ATOM      2  C   UNL     1      -0.343   3.061  25.689  0.00  0.00    +0.281 C 
ATOM      3  O   UNL     1      -0.004   3.778  25.456  0.00  0.00    -0.270 OA
ENDBRANCH   4   2
BRANCH   4   5
ATOM      5  C   UNL     1      -1.510   3.159  24.869  0.00  0.00    +0.059 C 
BRANCH   5   6
ATOM      6  C   UNL     1      -2.205   3.313  25.284  0.00  0.00    +0.001 A 
ATOM      7  C   UNL     1      -2.267   3.429  26.099  0.00  0.00    +0.095 A 
ATOM      8  N   UNL     1      -3.061   3.566  26.277  0.00  0.00    -0.244 NA
ATOM      9  C   UNL     1      -3.489   3.535  25.573  0.00  0.00    +0.081 A 
ATOM     10  C   UNL     1      -2.960   3.379  24.959  0.00  0.00    +0.015 A 
ATOM     11  C   UNL     1      -3.235   3.316  24.184  0.00  0.00    +0.001 A 
ATOM     12  C   UNL     1      -4.037   3.410  24.022  0.00  0.00    +0.000 A 
ATOM     13  C   UNL     1      -4.566   3.567  24.635  0.00  0.00    +0.002 A 
ATOM     14  C   UNL     1      -4.293   3.629  25.411  0.00  0.00    +0.019 A 
ENDBRANCH   5   6
ENDBRANCH   4   5
ENDBRANCH  15   4
ENDBRANCH  18  16
BRANCH  20  32
ATOM     32  S   UNL     1      -1.755  -0.996  24.668  0.00  0.00    +0.063 S 
ATOM     33  O   UNL     1      -2.264  -0.661  24.112  0.00  0.00    -0.153 OA
ATOM     34  O   UNL     1      -1.247  -1.332  25.225  0.00  0.00    -0.153 OA
BRANCH  32  35
ATOM     35  C   UNL     1      -2.370  -1.475  24.940  0.00  0.00    +0.122 A 
ATOM     36  C   UNL     1      -2.837  -1.226  25.572  0.00  0.00    +0.020 A 
ATOM     37  C   UNL     1      -3.452  -1.704  25.845  0.00  0.00    +0.001 A 
ATOM     38  C   UNL     1      -3.599  -2.431  25.484  0.00  0.00    +0.000 A 
ATOM     39  C   UNL     1      -3.132  -2.680  24.852  0.00  0.00    +0.001 A 
ATOM     40  C   UNL     1      -2.517  -2.202  24.580  0.00  0.00    +0.020 A 
ENDBRANCH  32  35
ENDBRANCH  20  32
TORSDOF 8
ENDMDL
MODEL 5
REMARK VINA RESULT:     -10.0      1.624      2.362
REMARK  Name = 
REMARK  8 active torsions:
REMARK  status: ('A' for Active; 'I' for Inactive)
REMARK    1  A    between atoms: C_2  and  C_4
REMARK    2  A    between atoms: C_4  and  C_5
REMARK    3  A    between atoms: C_4  and  N_15
REMARK    4  A    between atoms: C_5  and  C_6
REMARK    5  A    between atoms: C_16  and  C_18
REMARK    6  A    between atoms: N_20  and  S_32
REMARK    7  A    between atoms: C_24  and  C_26
REMARK    8  A    between atoms: S_32  and  C_35
REMARK                            x       y       z     vdW  Elec       q    Type
REMARK                         _______ _______ _______ _____ _____    ______ ____
ROOT
ATOM     18  C   UNL     1      -2.651   1.315  24.714  0.00  0.00    +0.171 C 
ATOM     19  C   UNL     1      -2.768   0.504  24.614  0.00  0.00    +0.125 C 
ATOM     20  N   UNL     1      -3.530   0.190  24.643  0.00  0.00    -0.152 NA
ATOM     21  C   UNL     1      -4.176   0.686  24.773  0.00  0.00    +0.117 C 
ATOM     22  C   UNL     1      -4.060   1.497  24.874  0.00  0.00    +0.113 C 
ATOM     23  N   UNL     1      -3.298   1.811  24.844  0.00  0.00    -0.270 N 
ATOM     24  C   UNL     1      -3.181   2.621  24.945  0.00  0.00    +0.226 C 
ATOM     25  O   UNL     1      -2.419   2.936  24.916  0.00  0.00    -0.275 OA
ENDROOT
BRANCH  24  26
ATOM     26  C   UNL     1      -3.827   3.118  25.075  0.00  0.00    +0.080 C 
ATOM     27  C   UNL     1      -4.087   3.264  25.845  0.00  0.00    +0.028 C 
ATOM     28  C   UNL     1      -4.733   3.760  25.975  0.00  0.00    +0.089 C 
ATOM     29  N   UNL     1      -5.120   4.110  25.335  0.00  0.00    -0.218 NA
ATOM     30  C   UNL     1      -4.860   3.964  24.566  0.00  0.00    +0.089 C 
ATOM     31  C   UNL     1      -4.214   3.468  24.436  0.00  0.00    +0.028 C 
ENDBRANCH  24  26
BRANCH  18  16
ATOM     15  N   UNL     1      -1.245   1.173  24.924  0.00  0.00    -0.196 NA
ATOM     16  C   UNL     1      -1.889   1.629  24.685  0.00  0.00    +0.261 C 
ATOM     17  O   UNL     1      -1.772   2.400  24.417  0.00  0.00    -0.271 OA
BRANCH  15   4
ATOM      4  C   UNL     1      -0.483   1.487  24.895  0.00  0.00    +0.179 C 
BRANCH   4   2
ATOM      1  N   UNL     1       0.272   2.519  25.532  0.00  0.00    -0.086 NA
ATOM      2  C   UNL     1      -0.144   1.809  25.575  0.00  0.00    +0.281 C 
ATOM      3  O   UNL     1      -0.224   1.420  26.298  0.00  0.00    -0.270 OA
ENDBRANCH   4   2
BRANCH   4   5
ATOM      5  C   UNL     1      -0.060   1.479  24.186  0.00  0.00    +0.059 C 
BRANCH   5   6
ATOM      6  C   UNL     1       0.263   0.774  23.906  0.00  0.00    +0.001 A 
ATOM      7  C   UNL     1      -0.073   0.024  23.981  0.00  0.00    +0.095 A 
ATOM      8  N   UNL     1       0.435  -0.519  23.622  0.00  0.00    -0.244 NA
ATOM      9  C   UNL     1       1.083  -0.104  23.326  0.00  0.00    +0.081 A 
ATOM     10  C   UNL     1       0.977   0.695  23.501  0.00  0.00    +0.015 A 
ATOM     11  C   UNL     1       1.545   1.246  23.269  0.00  0.00    +0.001 A 
ATOM     12  C   UNL     1       2.218   1.000  22.863  0.00  0.00    +0.000 A 
ATOM     13  C   UNL     1       2.324   0.201  22.688  0.00  0.00    +0.002 A 
ATOM     14  C   UNL     1       1.757  -0.352  22.919  0.00  0.00    +0.019 A 
ENDBRANCH   5   6
ENDBRANCH   4   5
ENDBRANCH  15   4
ENDBRANCH  18  16
BRANCH  20  32
ATOM     32  S   UNL     1      -3.646  -0.621  24.542  0.00  0.00    +0.063 S 
ATOM     33  O   UNL     1      -3.587  -0.527  23.724  0.00  0.00    -0.153 OA
ATOM     34  O   UNL     1      -3.705  -0.715  25.360  0.00  0.00    -0.153 OA
BRANCH  32  35
ATOM     35  C   UNL     1      -3.761  -1.431  24.440  0.00  0.00    +0.122 A 
ATOM     36  C   UNL     1      -4.267  -1.704  23.848  0.00  0.00    +0.020 A 
ATOM     37  C   UNL     1      -4.383  -2.515  23.746  0.00  0.00    +0.001 A 
ATOM     38  C   UNL     1      -3.993  -3.052  24.236  0.00  0.00    +0.000 A 
ATOM     39  C   UNL     1      -3.487  -2.779  24.827  0.00  0.00    +0.001 A 
ATOM     40  C   UNL     1      -3.372  -1.969  24.929  0.00  0.00    +0.020 A 
ENDBRANCH  32  35
ENDBRANCH  20  32
TORSDOF 8
ENDMDL
MODEL 6
REMARK VINA RESULT:      -9.8      2.396      4.661
REMARK  Name = 
REMARK  8 active torsions:
REMARK  status: ('A' for Active; 'I' for Inactive)
REMARK    1  A    between atoms: C_2  and  C_4
REMARK    2  A    between atoms: C_4  and  C_5
REMARK    3  A    between atoms: C_4  and  N_15
REMARK    4  A    between atoms: C_5  and  C_6
REMARK    5  A    between atoms: C_16  and  C_18
REMARK    6  A    between atoms: N_20  and  S_32
REMARK    7  A    between atoms: C_24  and  C_26
REMARK    8  A    between atoms: S_32  and  C_35
REMARK                            x       y       z     vdW  Elec       q    Type
REMARK                         _______ _______ _______ _____ _____    ______ ____
ROOT
ATOM     18  C   UNL     1      -0.804   0.314  24.698  0.00  0.00    +0.171 C 
ATOM     19  C   UNL     1      -0.107   0.382  24.261  0.00  0.00    +0.125 C 
ATOM     20  N   UNL     1       0.076  -0.182  23.686  0.00  0.00    -0.152 NA
ATOM     21  C   UNL     1      -0.437  -0.813  23.549  0.00  0.00    +0.117 C 
ATOM     22  C   UNL     1      -1.133  -0.881  23.986  0.00  0.00    +0.113 C 
ATOM     23  N   UNL     1      -1.317  -0.318  24.559  0.00  0.00    -0.270 N 
ATOM     24  C   UNL     1      -2.014  -0.386  24.996  0.00  0.00    +0.226 C 
ATOM     25  O   UNL     1      -2.198   0.178  25.571  0.00  0.00    -0.275 OA
ENDROOT
BRANCH  24  26
ATOM     26  C   UNL     1      -2.527  -1.017  24.859  0.00  0.00    +0.080 C 
ATOM     27  C   UNL     1      -3.180  -0.918  24.364  0.00  0.00    +0.028 C 
ATOM     28  C   UNL     1      -3.693  -1.549  24.227  0.00  0.00    +0.089 C 
ATOM     29  N   UNL     1      -3.553  -2.279  24.584  0.00  0.00    -0.218 NA
ATOM     30  C   UNL     1      -2.900  -2.379  25.078  0.00  0.00    +0.089 C 
ATOM     31  C   UNL     1      -2.387  -1.747  25.215  0.00  0.00    +0.028 C 
ENDBRANCH  24  26
BRANCH  18  16
ATOM     15  N   UNL     1      -1.002   1.678  25.075  0.00  0.00    -0.196 NA
ATOM     16  C   UNL     1      -0.988   0.877  25.271  0.00  0.00    +0.261 C 
ATOM     17  O   UNL     1      -1.158   0.639  26.043  0.00  0.00    -0.271 OA
BRANCH  15   4
ATOM      4  C   UNL     1      -1.186   2.241  25.649  0.00  0.00    +0.179 C 
BRANCH   4   2
ATOM      1  N   UNL     1       0.108   2.838  25.755  0.00  0.00    -0.086 NA
ATOM      2  C   UNL     1      -0.586   2.570  26.110  0.00  0.00    +0.281 C 
ATOM      3  O   UNL     1      -0.681   2.630  26.928  0.00  0.00    -0.270 OA
ENDBRANCH   4   2
BRANCH   4   5
ATOM      5  C   UNL     1      -1.969   2.475  25.762  0.00  0.00    +0.059 C 
BRANCH   5   6
ATOM      6  C   UNL     1      -2.304   3.047  25.272  0.00  0.00    +0.001 A 
ATOM      7  C   UNL     1      -1.892   3.566  24.779  0.00  0.00    +0.095 A 
ATOM      8  N   UNL     1      -2.443   4.040  24.391  0.00  0.00    -0.244 NA
ATOM      9  C   UNL     1      -3.195   3.815  24.643  0.00  0.00    +0.081 A 
ATOM     10  C   UNL     1      -3.109   3.201  25.187  0.00  0.00    +0.015 A 
ATOM     11  C   UNL     1      -3.777   2.863  25.535  0.00  0.00    +0.001 A 
ATOM     12  C   UNL     1      -4.529   3.137  25.339  0.00  0.00    +0.000 A 
ATOM     13  C   UNL     1      -4.615   3.751  24.795  0.00  0.00    +0.002 A 
ATOM     14  C   UNL     1      -3.949   4.091  24.446  0.00  0.00    +0.019 A 
ENDBRANCH   5   6
ENDBRANCH   4   5
ENDBRANCH  15   4
ENDBRANCH  18  16
BRANCH  20  32
ATOM     32  S   UNL     1       0.773  -0.113  23.250  0.00  0.00    +0.063 S 
ATOM     33  O   UNL     1       0.415   0.451  22.767  0.00  0.00    -0.153 OA
ATOM     34  O   UNL     1       1.132  -0.678  23.733  0.00  0.00    -0.153 OA
BRANCH  32  35
ATOM     35  C   UNL     1       1.469  -0.044  22.813  0.00  0.00    +0.122 A 
ATOM     36  C   UNL     1       2.130   0.323  23.145  0.00  0.00    +0.020 A 
ATOM     37  C   UNL     1       2.826   0.392  22.709  0.00  0.00    +0.001 A 
ATOM     38  C   UNL     1       2.863   0.095  21.940  0.00  0.00    +0.000 A 
ATOM     39  C   UNL     1       2.202  -0.272  21.608  0.00  0.00    +0.001 A 
ATOM     40  C   UNL     1       1.506  -0.341  22.045  0.00  0.00    +0.020 A 
ENDBRANCH  32  35
ENDBRANCH  20  32
TORSDOF 8
ENDMDL
MODEL 7
REMARK VINA RESULT:      -9.4      2.060      4.094
REMARK  Name = 
REMARK  8 active torsions:
REMARK  status: ('A' for Active; 'I' for Inactive)
REMARK    1  A    between atoms: C_2  and  C_4
REMARK    2  A    between atoms: C_4  and  C_5
REMARK    3  A    between atoms: C_4  and  N_15
REMARK    4  A    between atoms: C_5  and  C_6
REMARK    5  A    between atoms: C_16  and  C_18
REMARK    6  A    between atoms: N_20  and  S_32
REMARK    7  A    between atoms: C_24  and  C_26
REMARK    8  A    between atoms: S_32  and  C_35
REMARK                            x       y       z     vdW  Elec       q    Type
REMARK                         _______ _______ _______ _____ _____    ______ ____
ROOT
ATOM     18  C   UNL     1      -1.903   0.391  23.832  0.00  0.00    +0.171 C 
ATOM     19  C   UNL     1      -1.127   0.519  23.582  0.00  0.00    +0.125 C 
ATOM     20  N   UNL     1      -0.542  -0.038  23.751  0.00  0.00    -0.152 NA
ATOM     21  C   UNL     1      -0.732  -0.722  24.171  0.00  0.00    +0.117 C 
ATOM     22  C   UNL     1      -1.508  -0.849  24.422  0.00  0.00    +0.113 C 
ATOM     23  N   UNL     1      -2.093  -0.293  24.253  0.00  0.00    -0.270 N 
ATOM     24  C   UNL     1      -2.869  -0.421  24.503  0.00  0.00    +0.226 C 
ATOM     25  O   UNL     1      -3.454   0.136  24.334  0.00  0.00    -0.275 OA
ENDROOT
BRANCH  24  26
ATOM     26  C   UNL     1      -3.059  -1.105  24.923  0.00  0.00    +0.080 C 
ATOM     27  C   UNL     1      -3.030  -1.104  25.748  0.00  0.00    +0.028 C 
ATOM     28  C   UNL     1      -3.221  -1.788  26.168  0.00  0.00    +0.089 C 
ATOM     29  N   UNL     1      -3.440  -2.473  25.763  0.00  0.00    -0.218 NA
ATOM     30  C   UNL     1      -3.469  -2.474  24.939  0.00  0.00    +0.089 C 
ATOM     31  C   UNL     1      -3.279  -1.790  24.519  0.00  0.00    +0.028 C 
ENDBRANCH  24  26
BRANCH  18  16
ATOM     15  N   UNL     1      -2.304   1.752  23.658  0.00  0.00    -0.196 NA
ATOM     16  C   UNL     1      -2.488   0.947  23.663  0.00  0.00    +0.261 C 
ATOM     17  O   UNL     1      -3.257   0.699  23.499  0.00  0.00    -0.271 OA
BRANCH  15   4
ATOM      4  C   UNL     1      -2.889   2.308  23.488  0.00  0.00    +0.179 C 
BRANCH   4   2
ATOM      1  N   UNL     1      -2.464   2.477  22.134  0.00  0.00    -0.086 NA
ATOM      2  C   UNL     1      -3.059   2.501  22.704  0.00  0.00    +0.281 C 
ATOM      3  O   UNL     1      -3.826   2.718  22.491  0.00  0.00    -0.270 OA
ENDBRANCH   4   2
BRANCH   4   5
ATOM      5  C   UNL     1      -3.304   2.670  24.102  0.00  0.00    +0.059 C 
BRANCH   5   6
ATOM      6  C   UNL     1      -2.938   3.248  24.563  0.00  0.00    +0.001 A 
ATOM      7  C   UNL     1      -2.211   3.605  24.406  0.00  0.00    +0.095 A 
ATOM      8  N   UNL     1      -2.059   4.148  25.008  0.00  0.00    -0.244 NA
ATOM      9  C   UNL     1      -2.691   4.126  25.537  0.00  0.00    +0.081 A 
ATOM     10  C   UNL     1      -3.235   3.570  25.262  0.00  0.00    +0.015 A 
ATOM     11  C   UNL     1      -3.929   3.429  25.684  0.00  0.00    +0.001 A 
ATOM     12  C   UNL     1      -4.081   3.844  26.380  0.00  0.00    +0.000 A 
ATOM     13  C   UNL     1      -3.537   4.400  26.655  0.00  0.00    +0.002 A 
ATOM     14  C   UNL     1      -2.842   4.542  26.234  0.00  0.00    +0.019 A 
ENDBRANCH   5   6
ENDBRANCH   4   5
ENDBRANCH  15   4
ENDBRANCH  18  16
BRANCH  20  32
ATOM     32  S   UNL     1       0.234   0.090  23.501  0.00  0.00    +0.063 S 
ATOM     33  O   UNL     1       0.142  -0.490  22.921  0.00  0.00    -0.153 OA
ATOM     34  O   UNL     1       0.326   0.671  24.080  0.00  0.00    -0.153 OA
BRANCH  32  35
ATOM     35  C   UNL     1       1.009   0.218  23.249  0.00  0.00    +0.122 A 
ATOM     36  C   UNL     1       1.445   0.845  23.560  0.00  0.00    +0.020 A 
ATOM     37  C   UNL     1       2.221   0.973  23.309  0.00  0.00    +0.001 A 
ATOM     38  C   UNL     1       2.560   0.474  22.747  0.00  0.00    +0.000 A 
ATOM     39  C   UNL     1       2.124  -0.154  22.436  0.00  0.00    +0.001 A 
ATOM     40  C   UNL     1       1.348  -0.281  22.688  0.00  0.00    +0.020 A 
ENDBRANCH  32  35
ENDBRANCH  20  32
TORSDOF 8
ENDMDL
MODEL 8
REMARK VINA RESULT:      -9.4      1.846      4.460
REMARK  Name = 
REMARK  8 active torsions:
REMARK  status: ('A' for Active; 'I' for Inactive)
REMARK    1  A    between atoms: C_2  and  C_4
REMARK    2  A    between atoms: C_4  and  C_5
REMARK    3  A    between atoms: C_4  and  N_15
REMARK    4  A    between atoms: C_5  and  C_6
REMARK    5  A    between atoms: C_16  and  C_18
REMARK    6  A    between atoms: N_20  and  S_32
REMARK    7  A    between atoms: C_24  and  C_26
REMARK    8  A    between atoms: S_32  and  C_35
REMARK                            x       y       z     vdW  Elec       q    Type
REMARK                         _______ _______ _______ _____ _____    ______ ____
ROOT
ATOM     18  C   UNL     1      -2.049   1.779  24.715  0.00  0.00    +0.171 C 
ATOM     19  C   UNL     1      -1.502   1.248  24.400  0.00  0.00    +0.125 C 
ATOM     20  N   UNL     1      -0.774   1.521  24.123  0.00  0.00    -0.152 NA
ATOM     21  C   UNL     1      -0.593   2.325  24.161  0.00  0.00    +0.117 C 
ATOM     22  C   UNL     1      -1.140   2.856  24.476  0.00  0.00    +0.113 C 
ATOM     23  N   UNL     1      -1.868   2.583  24.753  0.00  0.00    -0.270 N 
ATOM     24  C   UNL     1      -2.415   3.114  25.068  0.00  0.00    +0.226 C 
ATOM     25  O   UNL     1      -3.143   2.841  25.345  0.00  0.00    -0.275 OA
ENDROOT
BRANCH  24  26
ATOM     26  C   UNL     1      -2.234   3.918  25.106  0.00  0.00    +0.080 C 
ATOM     27  C   UNL     1      -2.571   4.443  24.565  0.00  0.00    +0.028 C 
ATOM     28  C   UNL     1      -2.390   5.247  24.603  0.00  0.00    +0.089 C 
ATOM     29  N   UNL     1      -1.873   5.526  25.182  0.00  0.00    -0.218 NA
ATOM     30  C   UNL     1      -1.537   5.003  25.722  0.00  0.00    +0.089 C 
ATOM     31  C   UNL     1      -1.717   4.199  25.684  0.00  0.00    +0.028 C 
ENDBRANCH  24  26
BRANCH  18  16
ATOM     15  N   UNL     1      -3.272   1.074  24.494  0.00  0.00    -0.196 NA
ATOM     16  C   UNL     1      -2.776   1.506  24.992  0.00  0.00    +0.261 C 
ATOM     17  O   UNL     1      -3.008   1.666  25.767  0.00  0.00    -0.271 OA
BRANCH  15   4
ATOM      4  C   UNL     1      -4.000   0.802  24.771  0.00  0.00    +0.179 C 
BRANCH   4   2
ATOM      1  N   UNL     1      -5.192   1.364  25.323  0.00  0.00    -0.086 NA
ATOM      2  C   UNL     1      -4.674   1.271  24.689  0.00  0.00    +0.281 C 
ATOM      3  O   UNL     1      -4.828   1.648  23.971  0.00  0.00    -0.270 OA
ENDBRANCH   4   2
BRANCH   4   5
ATOM      5  C   UNL     1      -4.054   0.061  25.130  0.00  0.00    +0.059 C 
BRANCH   5   6
ATOM      6  C   UNL     1      -4.060  -0.622  24.667  0.00  0.00    +0.001 A 
ATOM      7  C   UNL     1      -4.340  -0.682  23.893  0.00  0.00    +0.095 A 
ATOM      8  N   UNL     1      -4.240  -1.462  23.645  0.00  0.00    -0.244 NA
ATOM      9  C   UNL     1      -3.899  -1.884  24.265  0.00  0.00    +0.081 A 
ATOM     10  C   UNL     1      -3.788  -1.366  24.897  0.00  0.00    +0.015 A 
ATOM     11  C   UNL     1      -3.452  -1.638  25.600  0.00  0.00    +0.001 A 
ATOM     12  C   UNL     1      -3.228  -2.428  25.671  0.00  0.00    +0.000 A 
ATOM     13  C   UNL     1      -3.340  -2.947  25.040  0.00  0.00    +0.002 A 
ATOM     14  C   UNL     1      -3.675  -2.676  24.337  0.00  0.00    +0.019 A 
ENDBRANCH   5   6
ENDBRANCH   4   5
ENDBRANCH  15   4
ENDBRANCH  18  16
BRANCH  20  32
ATOM     32  S   UNL     1      -0.227   0.989  23.808  0.00  0.00    +0.063 S 
ATOM     33  O   UNL     1      -0.594   1.048  23.072  0.00  0.00    -0.153 OA
ATOM     34  O   UNL     1       0.140   0.929  24.544  0.00  0.00    -0.153 OA
BRANCH  32  35
ATOM     35  C   UNL     1       0.319   0.457  23.492  0.00  0.00    +0.122 A 
ATOM     36  C   UNL     1       0.161  -0.352  23.506  0.00  0.00    +0.020 A 
ATOM     37  C   UNL     1       0.707  -0.885  23.190  0.00  0.00    +0.001 A 
ATOM     38  C   UNL     1       1.411  -0.607  22.861  0.00  0.00    +0.000 A 
ATOM     39  C   UNL     1       1.569   0.203  22.848  0.00  0.00    +0.001 A 
ATOM     40  C   UNL     1       1.022   0.734  23.164  0.00  0.00    +0.020 A 
ENDBRANCH  32  35
ENDBRANCH  20  32
TORSDOF 8
ENDMDL
MODEL 9
REMARK VINA RESULT:      -9.2      2.499      5.199
REMARK  Name = 
REMARK  8 active torsions:
REMARK  status: ('A' for Active; 'I' for Inactive)
REMARK    1  A    between atoms: C_2  and  C_4
REMARK    2  A    between atoms: C_4  and  C_5
REMARK    3  A    between atoms: C_4  and  N_15
REMARK    4  A    between atoms: C_5  and  C_6
REMARK    5  A    between atoms: C_16  and  C_18
REMARK    6  A    between atoms: N_20  and  S_32
REMARK    7  A    between atoms: C_24  and  C_26
REMARK    8  A    between atoms: S_32  and  C_35
REMARK                            x       y       z     vdW  Elec       q    Type
REMARK                         _______ _______ _______ _____ _____    ______ ____
ROOT
ATOM     18  C   UNL     1      -0.480   1.025  24.803  0.00  0.00    +0.171 C 
ATOM     19  C   UNL     1       0.175   0.756  24.381  0.00  0.00    +0.125 C 
ATOM     20  N   UNL     1       0.582   1.268  23.878  0.00  0.00    -0.152 NA
ATOM     21  C   UNL     1       0.333   2.051  23.798  0.00  0.00    +0.117 C 
ATOM     22  C   UNL     1      -0.323   2.320  24.220  0.00  0.00    +0.113 C 
ATOM     23  N   UNL     1      -0.729   1.808  24.723  0.00  0.00    -0.270 N 
ATOM     24  C   UNL     1      -1.384   2.078  25.145  0.00  0.00    +0.226 C 
ATOM     25  O   UNL     1      -1.791   1.565  25.648  0.00  0.00    -0.275 OA
ENDROOT
BRANCH  24  26
ATOM     26  C   UNL     1      -1.633   2.860  25.065  0.00  0.00    +0.080 C 
ATOM     27  C   UNL     1      -1.250   3.460  25.483  0.00  0.00    +0.028 C 
ATOM     28  C   UNL     1      -1.499   4.242  25.402  0.00  0.00    +0.089 C 
ATOM     29  N   UNL     1      -2.131   4.425  24.904  0.00  0.00    -0.218 NA
ATOM     30  C   UNL     1      -2.514   3.825  24.487  0.00  0.00    +0.089 C 
ATOM     31  C   UNL     1      -2.265   3.043  24.567  0.00  0.00    +0.028 C 
ENDBRANCH  24  26
BRANCH  18  16
ATOM     15  N   UNL     1      -1.041  -0.262  25.069  0.00  0.00    -0.196 NA
ATOM     16  C   UNL     1      -0.887   0.513  25.306  0.00  0.00    +0.261 C 
ATOM     17  O   UNL     1      -1.138   0.775  26.046  0.00  0.00    -0.271 OA
BRANCH  15   4
ATOM      4  C   UNL     1      -1.448  -0.774  25.571  0.00  0.00    +0.179 C 
BRANCH   4   2
ATOM      1  N   UNL     1      -0.378  -1.642  25.951  0.00  0.00    -0.086 NA
ATOM      2  C   UNL     1      -1.038  -1.191  26.153  0.00  0.00    +0.281 C 
ATOM      3  O   UNL     1      -1.289  -1.156  26.939  0.00  0.00    -0.270 OA
ENDBRANCH   4   2
BRANCH   4   5
ATOM      5  C   UNL     1      -2.264  -0.870  25.492  0.00  0.00    +0.059 C 
BRANCH   5   6
ATOM      6  C   UNL     1      -2.564  -1.448  24.987  0.00  0.00    +0.001 A 
ATOM      7  C   UNL     1      -2.177  -2.139  24.755  0.00  0.00    +0.095 A 
ATOM      8  N   UNL     1      -2.679  -2.555  24.249  0.00  0.00    -0.244 NA
ATOM      9  C   UNL     1      -3.375  -2.121  24.168  0.00  0.00    +0.081 A 
ATOM     10  C   UNL     1      -3.305  -1.437  24.624  0.00  0.00    +0.015 A 
ATOM     11  C   UNL     1      -3.924  -0.892  24.649  0.00  0.00    +0.001 A 
ATOM     12  C   UNL     1      -4.614  -1.032  24.219  0.00  0.00    +0.000 A 
ATOM     13  C   UNL     1      -4.685  -1.716  23.763  0.00  0.00    +0.002 A 
ATOM     14  C   UNL     1      -4.066  -2.261  23.737  0.00  0.00    +0.019 A 
ENDBRANCH   5   6
ENDBRANCH   4   5
ENDBRANCH  15   4
ENDBRANCH  18  16
BRANCH  20  32
ATOM     32  S   UNL     1       1.237   0.998  23.456  0.00  0.00    +0.063 S 
ATOM     33  O   UNL     1       1.719   1.529  23.864  0.00  0.00    -0.153 OA
ATOM     34  O   UNL     1       0.756   0.467  23.047  0.00  0.00    -0.153 OA
BRANCH  32  35
ATOM     35  C   UNL     1       1.893   0.728  23.034  0.00  0.00    +0.122 A 
ATOM     36  C   UNL     1       2.632   1.075  23.156  0.00  0.00    +0.020 A 
ATOM     37  C   UNL     1       3.288   0.806  22.735  0.00  0.00    +0.001 A 
ATOM     38  C   UNL     1       3.205   0.190  22.191  0.00  0.00    +0.000 A 
ATOM     39  C   UNL     1       2.466  -0.156  22.070  0.00  0.00    +0.001 A 
ATOM     40  C   UNL     1       1.810   0.113  22.491  0.00  0.00    +0.020 A 
ENDBRANCH  32  35
ENDBRANCH  20  32
TORSDOF 8
ENDMDL
