MODEL 1
REMARK VINA RESULT:     -10.9      0.000      0.000
REMARK  Name = 
REMARK  1 active torsions:
REMARK  status: ('A' for Active; 'I' for Inactive)
REMARK    1  A    between atoms: C_12  and  C_14
REMARK                            x       y       z     vdW  Elec       q    Type
REMARK                         _______ _______ _______ _____ _____    ______ ____
ROOT
ATOM      1  C   UNL     1      -4.720   3.813  25.362  0.00  0.00    +0.117 C 
ATOM      2  N   UNL     1      -4.568   3.013  25.230  0.00  0.00    -0.261 N 
ATOM      3  C   UNL     1      -3.872   2.697  24.917  0.00  0.00    +0.117 C 
ATOM      4  C   UNL     1      -3.959   1.878  24.880  0.00  0.00    +0.116 C 
ATOM      5  C   UNL     1      -3.453   1.280  24.621  0.00  0.00    +0.115 C 
ATOM      6  N   UNL     1      -3.696   0.493  24.650  0.00  0.00    -0.273 N 
ATOM      7  C   UNL     1      -4.444   0.302  24.939  0.00  0.00    +0.115 C 
ATOM      8  C   UNL     1      -4.951   0.899  25.199  0.00  0.00    +0.116 C 
ATOM      9  N   UNL     1      -4.708   1.688  25.169  0.00  0.00    -0.261 N 
ATOM     10  C   UNL     1      -5.084   2.389  25.385  0.00  0.00    +0.307 C 
ATOM     11  O   UNL     1      -5.844   2.455  25.701  0.00  0.00    -0.252 OA
ATOM     12  C   UNL     1      -3.190  -0.105  24.391  0.00  0.00    +0.249 C 
ATOM     13  O   UNL     1      -2.441   0.085  24.102  0.00  0.00    -0.270 OA
ENDROOT
BRANCH  12  14
ATOM     14  C   UNL     1      -3.432  -0.893  24.420  0.00  0.00    +0.054 A 
ATOM     15  C   UNL     1      -3.903  -1.203  23.818  0.00  0.00    +0.005 A 
ATOM     16  C   UNL     1      -4.145  -1.990  23.847  0.00  0.00    +0.000 A 
ATOM     17  C   UNL     1      -3.917  -2.469  24.479  0.00  0.00    +0.000 A 
ATOM     18  C   UNL     1      -3.446  -2.160  25.082  0.00  0.00    +0.000 A 
ATOM     19  C   UNL     1      -3.203  -1.371  25.052  0.00  0.00    +0.005 A 
ENDBRANCH  12  14
TORSDOF 1
ENDMDL
MODEL 2
REMARK VINA RESULT:     -10.5      1.329      2.038
REMARK  Name = 
REMARK  1 active torsions:
REMARK  status: ('A' for Active; 'I' for Inactive)
REMARK    1  A    between atoms: C_12  and  C_14
REMARK                            x       y       z     vdW  Elec       q    Type
REMARK                         _______ _______ _______ _____ _____    ______ ____
ROOT
ATOM      1  C   UNL     1      -2.316   4.026  24.792  0.00  0.00    +0.117 C 
ATOM      2  N   UNL     1      -2.536   3.232  24.773  0.00  0.00    -0.261 N 
ATOM      3  C   UNL     1      -3.269   2.926  25.001  0.00  0.00    +0.117 C 
ATOM      4  C   UNL     1      -3.248   2.109  24.891  0.00  0.00    +0.116 C 
ATOM      5  C   UNL     1      -3.811   1.520  25.022  0.00  0.00    +0.115 C 
ATOM      6  N   UNL     1      -3.631   0.733  24.858  0.00  0.00    -0.273 N 
ATOM      7  C   UNL     1      -2.887   0.533  24.563  0.00  0.00    +0.115 C 
ATOM      8  C   UNL     1      -2.323   1.121  24.432  0.00  0.00    +0.116 C 
ATOM      9  N   UNL     1      -2.504   1.910  24.596  0.00  0.00    -0.261 N 
ATOM     10  C   UNL     1      -2.065   2.603  24.523  0.00  0.00    +0.307 C 
ATOM     11  O   UNL     1      -1.288   2.659  24.248  0.00  0.00    -0.252 OA
ATOM     12  C   UNL     1      -4.194   0.143  24.989  0.00  0.00    +0.249 C 
ATOM     13  O   UNL     1      -4.938   0.343  25.284  0.00  0.00    -0.270 OA
ENDROOT
BRANCH  12  14
ATOM     14  C   UNL     1      -4.013  -0.644  24.825  0.00  0.00    +0.054 A 
ATOM     15  C   UNL     1      -3.639  -1.110  25.395  0.00  0.00    +0.005 A 
ATOM     16  C   UNL     1      -3.459  -1.897  25.230  0.00  0.00    +0.000 A 
ATOM     17  C   UNL     1      -3.652  -2.220  24.496  0.00  0.00    +0.000 A 
ATOM     18  C   UNL     1      -4.025  -1.756  23.926  0.00  0.00    +0.000 A 
ATOM     19  C   UNL     1      -4.206  -0.967  24.091  0.00  0.00    +0.005 A 
ENDBRANCH  12  14
TORSDOF 1
ENDMDL
MODEL 3
REMARK VINA RESULT:      -7.9     18.410     19.400
REMARK  Name = 
REMARK  1 active torsions:
REMARK  status: ('A' for Active; 'I' for Inactive)
REMARK    1  A    between atoms: C_12  and  C_14
REMARK                            x       y       z     vdW  Elec       q    Type
REMARK                         _______ _______ _______ _____ _____    ______ ____
ROOT
ATOM      1  C   UNL     1      16.702   6.725  19.819  0.00  0.00    +0.117 C 
ATOM      2  N   UNL     1      15.904   6.797  20.016  0.00  0.00    -0.261 N 
ATOM      3  C   UNL     1      15.265   6.666  19.509  0.00  0.00    +0.117 C 
ATOM      4  C   UNL     1      14.572   6.800  19.933  0.00  0.00    +0.116 C 
ATOM      5  C   UNL     1      13.776   6.756  19.720  0.00  0.00    +0.115 C 
ATOM      6  N   UNL     1      13.190   6.925  20.274  0.00  0.00    -0.273 N 
ATOM      7  C   UNL     1      13.398   7.139  21.043  0.00  0.00    +0.115 C 
ATOM      8  C   UNL     1      14.194   7.183  21.258  0.00  0.00    +0.116 C 
ATOM      9  N   UNL     1      14.781   7.014  20.702  0.00  0.00    -0.261 N 
ATOM     10  C   UNL     1      15.603   7.012  20.753  0.00  0.00    +0.307 C 
ATOM     11  O   UNL     1      16.049   7.193  21.424  0.00  0.00    -0.252 OA
ATOM     12  C   UNL     1      12.394   6.881  20.060  0.00  0.00    +0.249 C 
ATOM     13  O   UNL     1      12.185   6.667  19.291  0.00  0.00    -0.270 OA
ENDROOT
BRANCH  12  14
ATOM     14  C   UNL     1      11.807   7.050  20.615  0.00  0.00    +0.054 A 
ATOM     15  C   UNL     1      11.545   6.462  21.131  0.00  0.00    +0.005 A 
ATOM     16  C   UNL     1      10.959   6.631  21.686  0.00  0.00    +0.000 A 
ATOM     17  C   UNL     1      10.634   7.389  21.724  0.00  0.00    +0.000 A 
ATOM     18  C   UNL     1      10.895   7.977  21.208  0.00  0.00    +0.000 A 
ATOM     19  C   UNL     1      11.482   7.807  20.653  0.00  0.00    +0.005 A 
ENDBRANCH  12  14
TORSDOF 1
ENDMDL
MODEL 4
REMARK VINA RESULT:      -7.8     17.830     18.900
REMARK  Name = 
REMARK  1 active torsions:
REMARK  status: ('A' for Active; 'I' for Inactive)
REMARK    1  A    between atoms: C_12  and  C_14
REMARK                            x       y       z     vdW  Elec       q    Type
REMARK                         _______ _______ _______ _____ _____    ______ ____
ROOT
ATOM      1  C   UNL     1      14.238   7.592  17.127  0.00  0.00    +0.117 C 
ATOM      2  N   UNL     1      13.746   7.698  17.781  0.00  0.00    -0.261 N 
ATOM      3  C   UNL     1      12.950   7.916  17.759  0.00  0.00    +0.117 C 
ATOM      4  C   UNL     1      12.676   7.957  18.535  0.00  0.00    +0.116 C 
ATOM      5  C   UNL     1      11.937   8.145  18.851  0.00  0.00    +0.115 C 
ATOM      6  N   UNL     1      11.823   8.139  19.667  0.00  0.00    -0.273 N 
ATOM      7  C   UNL     1      12.448   7.945  20.169  0.00  0.00    +0.115 C 
ATOM      8  C   UNL     1      13.187   7.757  19.855  0.00  0.00    +0.116 C 
ATOM      9  N   UNL     1      13.301   7.763  19.037  0.00  0.00    -0.261 N 
ATOM     10  C   UNL     1      13.962   7.603  18.571  0.00  0.00    +0.307 C 
ATOM     11  O   UNL     1      14.709   7.386  18.847  0.00  0.00    -0.252 OA
ATOM     12  C   UNL     1      11.084   8.327  19.983  0.00  0.00    +0.249 C 
ATOM     13  O   UNL     1      10.459   8.521  19.481  0.00  0.00    -0.270 OA
ENDROOT
BRANCH  12  14
ATOM     14  C   UNL     1      10.970   8.321  20.799  0.00  0.00    +0.054 A 
ATOM     15  C   UNL     1      11.081   9.012  21.237  0.00  0.00    +0.005 A 
ATOM     16  C   UNL     1      10.967   9.007  22.053  0.00  0.00    +0.000 A 
ATOM     17  C   UNL     1      10.743   8.310  22.434  0.00  0.00    +0.000 A 
ATOM     18  C   UNL     1      10.632   7.619  21.997  0.00  0.00    +0.000 A 
ATOM     19  C   UNL     1      10.746   7.625  21.180  0.00  0.00    +0.005 A 
ENDBRANCH  12  14
TORSDOF 1
ENDMDL
MODEL 5
REMARK VINA RESULT:      -7.6     18.482     19.318
REMARK  Name = 
REMARK  1 active torsions:
REMARK  status: ('A' for Active; 'I' for Inactive)
REMARK    1  A    between atoms: C_12  and  C_14
REMARK                            x       y       z     vdW  Elec       q    Type
REMARK                         _______ _______ _______ _____ _____    ______ ____
ROOT
ATOM      1  C   UNL     1      10.440   7.624  22.233  0.00  0.00    +0.117 C 
ATOM      2  N   UNL     1      11.191   7.516  21.909  0.00  0.00    -0.261 N 
ATOM      3  C   UNL     1      11.838   8.018  22.006  0.00  0.00    +0.117 C 
ATOM      4  C   UNL     1      12.473   7.699  21.588  0.00  0.00    +0.116 C 
ATOM      5  C   UNL     1      13.251   7.955  21.485  0.00  0.00    +0.115 C 
ATOM      6  N   UNL     1      13.774   7.511  21.027  0.00  0.00    -0.273 N 
ATOM      7  C   UNL     1      13.519   6.811  20.672  0.00  0.00    +0.115 C 
ATOM      8  C   UNL     1      12.742   6.555  20.774  0.00  0.00    +0.116 C 
ATOM      9  N   UNL     1      12.219   6.999  21.233  0.00  0.00    -0.261 N 
ATOM     10  C   UNL     1      11.426   6.886  21.431  0.00  0.00    +0.307 C 
ATOM     11  O   UNL     1      10.952   6.254  21.193  0.00  0.00    -0.252 OA
ATOM     12  C   UNL     1      14.551   7.767  20.923  0.00  0.00    +0.249 C 
ATOM     13  O   UNL     1      14.806   8.467  21.279  0.00  0.00    -0.270 OA
ENDROOT
BRANCH  12  14
ATOM     14  C   UNL     1      15.074   7.323  20.465  0.00  0.00    +0.054 A 
ATOM     15  C   UNL     1      15.130   7.460  19.654  0.00  0.00    +0.005 A 
ATOM     16  C   UNL     1      15.653   7.016  19.196  0.00  0.00    +0.000 A 
ATOM     17  C   UNL     1      16.121   6.436  19.549  0.00  0.00    +0.000 A 
ATOM     18  C   UNL     1      16.066   6.299  20.361  0.00  0.00    +0.000 A 
ATOM     19  C   UNL     1      15.542   6.743  20.819  0.00  0.00    +0.005 A 
ENDBRANCH  12  14
TORSDOF 1
ENDMDL
MODEL 6
REMARK VINA RESULT:      -7.5     19.963     20.807
REMARK  Name = 
REMARK  1 active torsions:
REMARK  status: ('A' for Active; 'I' for Inactive)
REMARK    1  A    between atoms: C_12  and  C_14
REMARK                            x       y       z     vdW  Elec       q    Type
REMARK                         _______ _______ _______ _____ _____    ______ ____
ROOT
ATOM      1  C   UNL     1      11.678   8.335  17.498  0.00  0.00    +0.117 C 
ATOM      2  N   UNL     1      12.392   8.093  17.833  0.00  0.00    -0.261 N 
ATOM      3  C   UNL     1      12.482   7.702  18.555  0.00  0.00    +0.117 C 
ATOM      4  C   UNL     1      13.287   7.567  18.672  0.00  0.00    +0.116 C 
ATOM      5  C   UNL     1      13.702   7.203  19.286  0.00  0.00    +0.115 C 
ATOM      6  N   UNL     1      14.524   7.147  19.251  0.00  0.00    -0.273 N 
ATOM      7  C   UNL     1      14.931   7.453  18.603  0.00  0.00    +0.115 C 
ATOM      8  C   UNL     1      14.517   7.817  17.989  0.00  0.00    +0.116 C 
ATOM      9  N   UNL     1      13.694   7.873  18.024  0.00  0.00    -0.261 N 
ATOM     10  C   UNL     1      13.142   8.198  17.505  0.00  0.00    +0.307 C 
ATOM     11  O   UNL     1      13.309   8.565  16.785  0.00  0.00    -0.252 OA
ATOM     12  C   UNL     1      14.939   6.784  19.865  0.00  0.00    +0.249 C 
ATOM     13  O   UNL     1      14.531   6.477  20.513  0.00  0.00    -0.270 OA
ENDROOT
BRANCH  12  14
ATOM     14  C   UNL     1      15.761   6.727  19.831  0.00  0.00    +0.054 A 
ATOM     15  C   UNL     1      16.115   6.110  19.413  0.00  0.00    +0.005 A 
ATOM     16  C   UNL     1      16.937   6.053  19.379  0.00  0.00    +0.000 A 
ATOM     17  C   UNL     1      17.405   6.614  19.762  0.00  0.00    +0.000 A 
ATOM     18  C   UNL     1      17.052   7.232  20.179  0.00  0.00    +0.000 A 
ATOM     19  C   UNL     1      16.229   7.288  20.214  0.00  0.00    +0.005 A 
ENDBRANCH  12  14
TORSDOF 1
ENDMDL
