MODEL 1
REMARK VINA RESULT:     -11.7      0.000      0.000
REMARK  Name = 
REMARK  8 active torsions:
REMARK  status: ('A' for Active; 'I' for Inactive)
REMARK    1  A    between atoms: C_2  and  C_3
REMARK    2  A    between atoms: C_3  and  C_4
REMARK    3  A    between atoms: C_9  and  C_10
REMARK    4  A    between atoms: C_10  and  C_11
REMARK    5  A    between atoms: C_14  and  C_15
REMARK    6  A    between atoms: C_15  and  S_16
REMARK    7  A    between atoms: S_16  and  C_17
REMARK    8  A    between atoms: N_24  and  C_25
REMARK                            x       y       z     vdW  Elec       q    Type
REMARK                         _______ _______ _______ _____ _____    ______ ____
ROOT
ATOM      4  C   UNL     1      -0.556  -0.046  24.600  0.00  0.00    +0.012 C 
ATOM      5  C   UNL     1      -0.250  -0.422  23.931  0.00  0.00    +0.019 C 
ATOM      6  C   UNL     1       0.239  -0.007  23.413  0.00  0.00    +0.089 C 
ATOM      7  N   UNL     1       0.423   0.782  23.562  0.00  0.00    -0.218 NA
ATOM      8  C   UNL     1       0.117   1.158  24.230  0.00  0.00    +0.089 C 
ATOM      9  C   UNL     1      -0.373   0.743  24.749  0.00  0.00    +0.024 C 
ENDROOT
BRANCH   4   3
ATOM      3  C   UNL     1      -1.046  -0.462  25.118  0.00  0.00    +0.087 C 
BRANCH   3   2
ATOM      1  O   UNL     1      -1.372  -1.573  24.282  0.00  0.00    -0.273 OA
ATOM      2  C   UNL     1      -1.602  -0.994  24.822  0.00  0.00    +0.241 C 
ATOM     24  N   UNL     1      -2.388  -0.948  25.068  0.00  0.00    -0.207 NA
BRANCH  24  25
ATOM     25  C   UNL     1      -2.945  -1.482  24.773  0.00  0.00    +0.095 C 
ATOM     26  C   UNL     1      -3.517  -1.225  24.237  0.00  0.00    +0.022 C 
ATOM     27  C   UNL     1      -4.074  -1.758  23.942  0.00  0.00    +0.002 C 
ATOM     28  C   UNL     1      -4.058  -2.547  24.183  0.00  0.00    +0.000 C 
ATOM     29  C   UNL     1      -3.485  -2.803  24.718  0.00  0.00    +0.002 C 
ATOM     30  C   UNL     1      -2.928  -2.270  25.013  0.00  0.00    +0.022 C 
ENDBRANCH  24  25
ENDBRANCH   3   2
ENDBRANCH   4   3
BRANCH   9  10
ATOM     10  C   UNL     1      -0.678   1.119  25.416  0.00  0.00    +0.051 C 
BRANCH  10  11
ATOM     11  C   UNL     1      -1.059   1.847  25.342  0.00  0.00    +0.100 A 
ATOM     12  N   UNL     1      -0.698   2.568  25.169  0.00  0.00    -0.082 NA
ATOM     13  O   UNL     1      -1.284   3.149  25.148  0.00  0.00    -0.357 OA
ATOM     14  C   UNL     1      -2.007   2.787  25.308  0.00  0.00    +0.165 A 
ATOM     23  C   UNL     1      -1.869   1.982  25.428  0.00  0.00    +0.054 A 
BRANCH  14  15
ATOM     15  C   UNL     1      -2.741   3.162  25.342  0.00  0.00    +0.129 C 
BRANCH  15  16
ATOM     16  S   UNL     1      -3.332   2.961  24.803  0.00  0.00    -0.105 S 
BRANCH  16  17
ATOM     17  C   UNL     1      -4.125   3.013  25.023  0.00  0.00    +0.026 A 
ATOM     18  C   UNL     1      -4.636   2.381  24.875  0.00  0.00    +0.006 A 
ATOM     19  C   UNL     1      -5.429   2.433  25.096  0.00  0.00    +0.001 A 
ATOM     20  C   UNL     1      -5.712   3.115  25.464  0.00  0.00    +0.000 A 
ATOM     21  C   UNL     1      -5.201   3.746  25.611  0.00  0.00    +0.001 A 
ATOM     22  C   UNL     1      -4.408   3.694  25.391  0.00  0.00    +0.006 A 
ENDBRANCH  16  17
ENDBRANCH  15  16
ENDBRANCH  14  15
ENDBRANCH  10  11
ENDBRANCH   9  10
TORSDOF 8
ENDMDL
MODEL 2
REMARK VINA RESULT:     -11.7      1.194      4.357
REMARK  Name = 
REMARK  8 active torsions:
REMARK  status: ('A' for Active; 'I' for Inactive)
REMARK    1  A    between atoms: C_2  and  C_3
REMARK    2  A    between atoms: C_3  and  C_4
REMARK    3  A    between atoms: C_9  and  C_10
REMARK    4  A    between atoms: C_10  and  C_11
REMARK    5  A    between atoms: C_14  and  C_15
REMARK    6  A    between atoms: C_15  and  S_16
REMARK    7  A    between atoms: S_16  and  C_17
REMARK    8  A    between atoms: N_24  and  C_25
REMARK                            x       y       z     vdW  Elec       q    Type
REMARK                         _______ _______ _______ _____ _____    ______ ____
ROOT
ATOM      4  C   UNL     1      -1.173   2.790  25.100  0.00  0.00    +0.012 C 
ATOM      5  C   UNL     1      -1.035   3.240  25.778  0.00  0.00    +0.019 C 
ATOM      6  C   UNL     1      -0.386   3.071  26.259  0.00  0.00    +0.089 C 
ATOM      7  N   UNL     1       0.124   2.454  26.062  0.00  0.00    -0.218 NA
ATOM      8  C   UNL     1      -0.014   2.005  25.384  0.00  0.00    +0.089 C 
ATOM      9  C   UNL     1      -0.664   2.174  24.903  0.00  0.00    +0.024 C 
ENDROOT
BRANCH   4   3
ATOM      3  C   UNL     1      -1.822   2.959  24.619  0.00  0.00    +0.087 C 
BRANCH   3   2
ATOM      1  O   UNL     1      -2.639   3.372  25.716  0.00  0.00    -0.273 OA
ATOM      2  C   UNL     1      -2.569   3.063  24.955  0.00  0.00    +0.241 C 
ATOM     24  N   UNL     1      -3.244   2.856  24.529  0.00  0.00    -0.207 NA
BRANCH  24  25
ATOM     25  C   UNL     1      -3.992   2.959  24.865  0.00  0.00    +0.095 C 
ATOM     26  C   UNL     1      -4.433   2.302  25.099  0.00  0.00    +0.022 C 
ATOM     27  C   UNL     1      -5.179   2.406  25.435  0.00  0.00    +0.002 C 
ATOM     28  C   UNL     1      -5.485   3.166  25.536  0.00  0.00    +0.000 C 
ATOM     29  C   UNL     1      -5.043   3.822  25.302  0.00  0.00    +0.002 C 
ATOM     30  C   UNL     1      -4.296   3.719  24.967  0.00  0.00    +0.022 C 
ENDBRANCH  24  25
ENDBRANCH   3   2
ENDBRANCH   4   3
BRANCH   9  10
ATOM     10  C   UNL     1      -0.802   1.724  24.225  0.00  0.00    +0.051 C 
BRANCH  10  11
ATOM     11  C   UNL     1      -0.782   0.900  24.264  0.00  0.00    +0.100 A 
ATOM     12  N   UNL     1      -0.103   0.433  24.293  0.00  0.00    -0.082 NA
ATOM     13  O   UNL     1      -0.339  -0.358  24.329  0.00  0.00    -0.357 OA
ATOM     14  C   UNL     1      -1.164  -0.378  24.322  0.00  0.00    +0.165 A 
ATOM     23  C   UNL     1      -1.438   0.399  24.282  0.00  0.00    +0.054 A 
BRANCH  14  15
ATOM     15  C   UNL     1      -1.632  -1.056  24.350  0.00  0.00    +0.129 C 
BRANCH  15  16
ATOM     16  S   UNL     1      -2.371  -1.032  24.718  0.00  0.00    -0.105 S 
BRANCH  16  17
ATOM     17  C   UNL     1      -2.937  -1.605  24.542  0.00  0.00    +0.026 A 
ATOM     18  C   UNL     1      -2.813  -2.390  24.765  0.00  0.00    +0.006 A 
ATOM     19  C   UNL     1      -3.379  -2.963  24.589  0.00  0.00    +0.001 A 
ATOM     20  C   UNL     1      -4.071  -2.752  24.191  0.00  0.00    +0.000 A 
ATOM     21  C   UNL     1      -4.194  -1.967  23.968  0.00  0.00    +0.001 A 
ATOM     22  C   UNL     1      -3.628  -1.394  24.144  0.00  0.00    +0.006 A 
ENDBRANCH  16  17
ENDBRANCH  15  16
ENDBRANCH  14  15
ENDBRANCH  10  11
ENDBRANCH   9  10
TORSDOF 8
ENDMDL
MODEL 3
REMARK VINA RESULT:     -11.3      1.985      5.689
REMARK  Name = 
REMARK  8 active torsions:
REMARK  status: ('A' for Active; 'I' for Inactive)
REMARK    1  A    between atoms: C_2  and  C_3
REMARK    2  A    between atoms: C_3  and  C_4
REMARK    3  A    between atoms: C_9  and  C_10
REMARK    4  A    between atoms: C_10  and  C_11
REMARK    5  A    between atoms: C_14  and  C_15
REMARK    6  A    between atoms: C_15  and  S_16
REMARK    7  A    between atoms: S_16  and  C_17
REMARK    8  A    between atoms: N_24  and  C_25
REMARK                            x       y       z     vdW  Elec       q    Type
REMARK                         _______ _______ _______ _____ _____    ______ ____
ROOT
ATOM      4  C   UNL     1      -4.709   2.935  25.037  0.00  0.00    +0.012 C 
ATOM      5  C   UNL     1      -5.001   3.385  25.665  0.00  0.00    +0.019 C 
ATOM      6  C   UNL     1      -5.570   3.067  26.170  0.00  0.00    +0.089 C 
ATOM      7  N   UNL     1      -5.846   2.300  26.049  0.00  0.00    -0.218 NA
ATOM      8  C   UNL     1      -5.554   1.850  25.422  0.00  0.00    +0.089 C 
ATOM      9  C   UNL     1      -4.985   2.169  24.916  0.00  0.00    +0.024 C 
ENDROOT
BRANCH   4   3
ATOM      3  C   UNL     1      -4.140   3.254  24.532  0.00  0.00    +0.087 C 
BRANCH   3   2
ATOM      1  O   UNL     1      -3.479   3.930  25.602  0.00  0.00    -0.273 OA
ATOM      2  C   UNL     1      -3.464   3.610  24.843  0.00  0.00    +0.241 C 
ATOM     24  N   UNL     1      -2.773   3.644  24.394  0.00  0.00    -0.207 NA
BRANCH  24  25
ATOM     25  C   UNL     1      -2.096   4.000  24.705  0.00  0.00    +0.095 C 
ATOM     26  C   UNL     1      -1.473   3.533  24.977  0.00  0.00    +0.022 C 
ATOM     27  C   UNL     1      -0.796   3.888  25.288  0.00  0.00    +0.002 C 
ATOM     28  C   UNL     1      -0.743   4.711  25.327  0.00  0.00    +0.000 C 
ATOM     29  C   UNL     1      -1.367   5.177  25.055  0.00  0.00    +0.002 C 
ATOM     30  C   UNL     1      -2.043   4.822  24.744  0.00  0.00    +0.022 C 
ENDBRANCH  24  25
ENDBRANCH   3   2
ENDBRANCH   4   3
BRANCH   9  10
ATOM     10  C   UNL     1      -4.693   1.719  24.289  0.00  0.00    +0.051 C 
BRANCH  10  11
ATOM     11  C   UNL     1      -4.500   0.925  24.405  0.00  0.00    +0.100 A 
ATOM     12  N   UNL     1      -5.016   0.332  24.656  0.00  0.00    -0.082 NA
ATOM     13  O   UNL     1      -4.592  -0.375  24.696  0.00  0.00    -0.357 OA
ATOM     14  C   UNL     1      -3.814  -0.218  24.470  0.00  0.00    +0.165 A 
ATOM     23  C   UNL     1      -3.757   0.585  24.290  0.00  0.00    +0.054 A 
BRANCH  14  15
ATOM     15  C   UNL     1      -3.200  -0.768  24.431  0.00  0.00    +0.129 C 
BRANCH  15  16
ATOM     16  S   UNL     1      -2.804  -0.994  25.120  0.00  0.00    -0.105 S 
BRANCH  16  17
ATOM     17  C   UNL     1      -2.072  -1.369  25.069  0.00  0.00    +0.026 A 
ATOM     18  C   UNL     1      -2.013  -2.111  24.711  0.00  0.00    +0.006 A 
ATOM     19  C   UNL     1      -1.281  -2.487  24.660  0.00  0.00    +0.001 A 
ATOM     20  C   UNL     1      -0.607  -2.122  24.967  0.00  0.00    +0.000 A 
ATOM     21  C   UNL     1      -0.666  -1.381  25.325  0.00  0.00    +0.001 A 
ATOM     22  C   UNL     1      -1.399  -1.005  25.376  0.00  0.00    +0.006 A 
ENDBRANCH  16  17
ENDBRANCH  15  16
ENDBRANCH  14  15
ENDBRANCH  10  11
ENDBRANCH   9  10
TORSDOF 8
ENDMDL
MODEL 4
REMARK VINA RESULT:     -11.1      2.018      3.955
REMARK  Name = 
REMARK  8 active torsions:
REMARK  status: ('A' for Active; 'I' for Inactive)
REMARK    1  A    between atoms: C_2  and  C_3
REMARK    2  A    between atoms: C_3  and  C_4
REMARK    3  A    between atoms: C_9  and  C_10
REMARK    4  A    between atoms: C_10  and  C_11
REMARK    5  A    between atoms: C_14  and  C_15
REMARK    6  A    between atoms: C_15  and  S_16
REMARK    7  A    between atoms: S_16  and  C_17
REMARK    8  A    between atoms: N_24  and  C_25
REMARK                            x       y       z     vdW  Elec       q    Type
REMARK                         _______ _______ _______ _____ _____    ______ ____
ROOT
ATOM      4  C   UNL     1      -5.138   1.481  24.883  0.00  0.00    +0.012 C 
ATOM      5  C   UNL     1      -5.592   1.170  25.498  0.00  0.00    +0.019 C 
ATOM      6  C   UNL     1      -5.951   1.676  26.042  0.00  0.00    +0.089 C 
ATOM      7  N   UNL     1      -5.856   2.492  25.971  0.00  0.00    -0.218 NA
ATOM      8  C   UNL     1      -5.402   2.803  25.356  0.00  0.00    +0.089 C 
ATOM      9  C   UNL     1      -5.043   2.296  24.812  0.00  0.00    +0.024 C 
ENDROOT
BRANCH   4   3
ATOM      3  C   UNL     1      -4.780   0.975  24.339  0.00  0.00    +0.087 C 
BRANCH   3   2
ATOM      1  O   UNL     1      -4.714  -0.051  25.331  0.00  0.00    -0.273 OA
ATOM      2  C   UNL     1      -4.537   0.222  24.573  0.00  0.00    +0.241 C 
ATOM     24  N   UNL     1      -4.118  -0.258  24.050  0.00  0.00    -0.207 NA
BRANCH  24  25
ATOM     25  C   UNL     1      -3.875  -1.012  24.284  0.00  0.00    +0.095 C 
ATOM     26  C   UNL     1      -4.256  -1.679  23.984  0.00  0.00    +0.022 C 
ATOM     27  C   UNL     1      -4.014  -2.432  24.218  0.00  0.00    +0.002 C 
ATOM     28  C   UNL     1      -3.390  -2.518  24.753  0.00  0.00    +0.000 C 
ATOM     29  C   UNL     1      -3.011  -1.849  25.053  0.00  0.00    +0.002 C 
ATOM     30  C   UNL     1      -3.253  -1.096  24.819  0.00  0.00    +0.022 C 
ENDBRANCH  24  25
ENDBRANCH   3   2
ENDBRANCH   4   3
BRANCH   9  10
ATOM     10  C   UNL     1      -4.590   2.607  24.197  0.00  0.00    +0.051 C 
BRANCH  10  11
ATOM     11  C   UNL     1      -3.975   3.133  24.362  0.00  0.00    +0.100 A 
ATOM     12  N   UNL     1      -4.053   3.942  24.500  0.00  0.00    -0.082 NA
ATOM     13  O   UNL     1      -3.301   4.250  24.642  0.00  0.00    -0.357 OA
ATOM     14  C   UNL     1      -2.758   3.631  24.590  0.00  0.00    +0.165 A 
ATOM     23  C   UNL     1      -3.175   2.940  24.418  0.00  0.00    +0.054 A 
BRANCH  14  15
ATOM     15  C   UNL     1      -1.942   3.692  24.694  0.00  0.00    +0.129 C 
BRANCH  15  16
ATOM     16  S   UNL     1      -1.617   3.642  25.451  0.00  0.00    -0.105 S 
BRANCH  16  17
ATOM     17  C   UNL     1      -0.924   3.214  25.575  0.00  0.00    +0.026 A 
ATOM     18  C   UNL     1      -0.781   2.862  26.308  0.00  0.00    +0.006 A 
ATOM     19  C   UNL     1      -0.088   2.434  26.432  0.00  0.00    +0.001 A 
ATOM     20  C   UNL     1       0.464   2.356  25.823  0.00  0.00    +0.000 A 
ATOM     21  C   UNL     1       0.321   2.707  25.090  0.00  0.00    +0.001 A 
ATOM     22  C   UNL     1      -0.373   3.136  24.966  0.00  0.00    +0.006 A 
ENDBRANCH  16  17
ENDBRANCH  15  16
ENDBRANCH  14  15
ENDBRANCH  10  11
ENDBRANCH   9  10
TORSDOF 8
ENDMDL
MODEL 5
REMARK VINA RESULT:     -11.1      1.692      3.634
REMARK  Name = 
REMARK  8 active torsions:
REMARK  status: ('A' for Active; 'I' for Inactive)
REMARK    1  A    between atoms: C_2  and  C_3
REMARK    2  A    between atoms: C_3  and  C_4
REMARK    3  A    between atoms: C_9  and  C_10
REMARK    4  A    between atoms: C_10  and  C_11
REMARK    5  A    between atoms: C_14  and  C_15
REMARK    6  A    between atoms: C_15  and  S_16
REMARK    7  A    between atoms: S_16  and  C_17
REMARK    8  A    between atoms: N_24  and  C_25
REMARK                            x       y       z     vdW  Elec       q    Type
REMARK                         _______ _______ _______ _____ _____    ______ ____
ROOT
ATOM      4  C   UNL     1      -3.181  -0.437  24.818  0.00  0.00    +0.012 C 
ATOM      5  C   UNL     1      -3.489  -0.917  25.415  0.00  0.00    +0.019 C 
ATOM      6  C   UNL     1      -2.987  -1.404  25.851  0.00  0.00    +0.089 C 
ATOM      7  N   UNL     1      -2.178  -1.412  25.692  0.00  0.00    -0.218 NA
ATOM      8  C   UNL     1      -1.870  -0.932  25.096  0.00  0.00    +0.089 C 
ATOM      9  C   UNL     1      -2.373  -0.444  24.659  0.00  0.00    +0.024 C 
ENDROOT
BRANCH   4   3
ATOM      3  C   UNL     1      -3.684   0.051  24.382  0.00  0.00    +0.087 C 
BRANCH   3   2
ATOM      1  O   UNL     1      -4.694   0.165  25.385  0.00  0.00    -0.273 OA
ATOM      2  C   UNL     1      -4.263   0.496  24.765  0.00  0.00    +0.241 C 
ATOM     24  N   UNL     1      -4.411   1.271  24.528  0.00  0.00    -0.207 NA
BRANCH  24  25
ATOM     25  C   UNL     1      -4.991   1.717  24.912  0.00  0.00    +0.095 C 
ATOM     26  C   UNL     1      -4.771   2.320  25.431  0.00  0.00    +0.022 C 
ATOM     27  C   UNL     1      -5.351   2.765  25.814  0.00  0.00    +0.002 C 
ATOM     28  C   UNL     1      -6.150   2.607  25.679  0.00  0.00    +0.000 C 
ATOM     29  C   UNL     1      -6.368   2.004  25.160  0.00  0.00    +0.002 C 
ATOM     30  C   UNL     1      -5.789   1.559  24.776  0.00  0.00    +0.022 C 
ENDBRANCH  24  25
ENDBRANCH   3   2
ENDBRANCH   4   3
BRANCH   9  10
ATOM     10  C   UNL     1      -2.065   0.036  24.062  0.00  0.00    +0.051 C 
BRANCH  10  11
ATOM     11  C   UNL     1      -1.451   0.561  24.230  0.00  0.00    +0.100 A 
ATOM     12  N   UNL     1      -0.669   0.356  24.391  0.00  0.00    -0.082 NA
ATOM     13  O   UNL     1      -0.246   1.052  24.527  0.00  0.00    -0.357 OA
ATOM     14  C   UNL     1      -0.768   1.687  24.451  0.00  0.00    +0.165 A 
ATOM     23  C   UNL     1      -1.513   1.383  24.267  0.00  0.00    +0.054 A 
BRANCH  14  15
ATOM     15  C   UNL     1      -0.578   2.484  24.542  0.00  0.00    +0.129 C 
BRANCH  15  16
ATOM     16  S   UNL     1      -0.844   2.898  25.204  0.00  0.00    -0.105 S 
BRANCH  16  17
ATOM     17  C   UNL     1      -0.997   3.707  25.151  0.00  0.00    +0.026 A 
ATOM     18  C   UNL     1      -0.460   4.203  24.766  0.00  0.00    +0.006 A 
ATOM     19  C   UNL     1      -0.613   5.012  24.713  0.00  0.00    +0.001 A 
ATOM     20  C   UNL     1      -1.301   5.325  25.043  0.00  0.00    +0.000 A 
ATOM     21  C   UNL     1      -1.837   4.829  25.427  0.00  0.00    +0.001 A 
ATOM     22  C   UNL     1      -1.684   4.020  25.481  0.00  0.00    +0.006 A 
ENDBRANCH  16  17
ENDBRANCH  15  16
ENDBRANCH  14  15
ENDBRANCH  10  11
ENDBRANCH   9  10
TORSDOF 8
ENDMDL
