MODEL 1
REMARK VINA RESULT:     -14.4      0.000      0.000
REMARK  Name = 
REMARK  5 active torsions:
REMARK  status: ('A' for Active; 'I' for Inactive)
REMARK    1  A    between atoms: C_2  and  N_4
REMARK    2  A    between atoms: C_5  and  C_7
REMARK    3  A    between atoms: C_7  and  C_9
REMARK    4  A    between atoms: C_16  and  N_17
REMARK    5  A    between atoms: C_18  and  C_20
REMARK                            x       y       z     vdW  Elec       q    Type
REMARK                         _______ _______ _______ _____ _____    ______ ____
ROOT
ATOM      9  C   UNL     1      -3.857   3.295  24.650  0.00  0.00    +0.039 C 
ATOM     10  C   UNL     1      -4.494   3.413  25.161  0.00  0.00    +0.003 C 
ATOM     11  C   UNL     1      -4.948   2.771  25.409  0.00  0.00    +0.000 C 
ATOM     12  C   UNL     1      -4.766   2.011  25.145  0.00  0.00    +0.002 C 
ATOM     13  C   UNL     1      -5.403   2.128  25.656  0.00  0.00    +0.000 C 
ATOM     14  C   UNL     1      -5.220   1.368  25.393  0.00  0.00    +0.002 C 
ATOM     15  C   UNL     1      -5.038   0.608  25.129  0.00  0.00    +0.022 C 
ATOM     16  C   UNL     1      -4.401   0.490  24.618  0.00  0.00    +0.095 C 
ATOM     26  C   UNL     1      -3.946   1.133  24.371  0.00  0.00    +0.022 C 
ATOM     27  C   UNL     1      -3.310   1.015  23.860  0.00  0.00    +0.002 C 
ATOM     28  C   UNL     1      -4.129   1.893  24.634  0.00  0.00    +0.032 C 
ATOM     29  C   UNL     1      -3.674   2.536  24.387  0.00  0.00    +0.152 C 
ATOM     30  O   UNL     1      -3.038   2.418  23.876  0.00  0.00    -0.223 OA
ENDROOT
BRANCH  16  17
ATOM     17  N   UNL     1      -4.219  -0.270  24.354  0.00  0.00    -0.207 NA
ATOM     18  C   UNL     1      -4.088  -0.875  24.900  0.00  0.00    +0.241 C 
ATOM     19  O   UNL     1      -4.141  -0.720  25.709  0.00  0.00    -0.273 OA
BRANCH  18  20
ATOM     20  C   UNL     1      -3.905  -1.635  24.637  0.00  0.00    +0.078 C 
ATOM     21  C   UNL     1      -3.317  -2.072  25.016  0.00  0.00    +0.009 C 
ATOM     22  C   UNL     1      -3.134  -2.832  24.752  0.00  0.00    +0.000 C 
ATOM     23  C   UNL     1      -3.538  -3.155  24.111  0.00  0.00    +0.000 C 
ATOM     24  C   UNL     1      -4.127  -2.718  23.732  0.00  0.00    +0.000 C 
ATOM     25  C   UNL     1      -4.310  -1.958  23.995  0.00  0.00    +0.009 C 
ENDBRANCH  18  20
ENDBRANCH  16  17
BRANCH   9   7
ATOM      7  C   UNL     1      -3.402   3.938  24.403  0.00  0.00    +0.081 C 
ATOM      8  C   UNL     1      -3.560   4.301  23.680  0.00  0.00    +0.010 C 
BRANCH   7   5
ATOM      4  N   UNL     1      -2.026   4.286  24.570  0.00  0.00    -0.207 NA
ATOM      5  C   UNL     1      -2.789   4.217  24.879  0.00  0.00    +0.241 C 
ATOM      6  O   UNL     1      -2.937   4.426  25.663  0.00  0.00    -0.273 OA
BRANCH   4   2
ATOM      1  C   UNL     1      -1.302   5.377  25.143  0.00  0.00    +0.023 C 
ATOM      2  C   UNL     1      -1.413   4.564  25.047  0.00  0.00    +0.095 C 
ATOM      3  C   UNL     1      -0.910   4.031  25.427  0.00  0.00    +0.023 C 
ENDBRANCH   4   2
ENDBRANCH   7   5
ENDBRANCH   9   7
TORSDOF 5
ENDMDL
MODEL 2
REMARK VINA RESULT:     -13.5      0.963      5.179
REMARK  Name = 
REMARK  5 active torsions:
REMARK  status: ('A' for Active; 'I' for Inactive)
REMARK    1  A    between atoms: C_2  and  N_4
REMARK    2  A    between atoms: C_5  and  C_7
REMARK    3  A    between atoms: C_7  and  C_9
REMARK    4  A    between atoms: C_16  and  N_17
REMARK    5  A    between atoms: C_18  and  C_20
REMARK                            x       y       z     vdW  Elec       q    Type
REMARK                         _______ _______ _______ _____ _____    ______ ____
ROOT
ATOM      9  C   UNL     1      -4.120  -0.055  24.354  0.00  0.00    +0.039 C 
ATOM     10  C   UNL     1      -4.813   0.105  24.773  0.00  0.00    +0.003 C 
ATOM     11  C   UNL     1      -4.947   0.861  25.073  0.00  0.00    +0.000 C 
ATOM     12  C   UNL     1      -4.390   1.458  24.955  0.00  0.00    +0.002 C 
ATOM     13  C   UNL     1      -5.082   1.617  25.374  0.00  0.00    +0.000 C 
ATOM     14  C   UNL     1      -4.524   2.213  25.256  0.00  0.00    +0.002 C 
ATOM     15  C   UNL     1      -3.967   2.810  25.138  0.00  0.00    +0.022 C 
ATOM     16  C   UNL     1      -3.274   2.650  24.719  0.00  0.00    +0.095 C 
ATOM     26  C   UNL     1      -3.139   1.893  24.418  0.00  0.00    +0.022 C 
ATOM     27  C   UNL     1      -2.447   1.734  24.000  0.00  0.00    +0.002 C 
ATOM     28  C   UNL     1      -3.697   1.298  24.537  0.00  0.00    +0.032 C 
ATOM     29  C   UNL     1      -3.562   0.541  24.235  0.00  0.00    +0.152 C 
ATOM     30  O   UNL     1      -2.871   0.381  23.817  0.00  0.00    -0.223 OA
ENDROOT
BRANCH  16  17
ATOM     17  N   UNL     1      -2.716   3.246  24.601  0.00  0.00    -0.207 NA
ATOM     18  C   UNL     1      -2.426   3.673  25.246  0.00  0.00    +0.241 C 
ATOM     19  O   UNL     1      -2.694   3.503  26.007  0.00  0.00    -0.273 OA
BRANCH  18  20
ATOM     20  C   UNL     1      -1.868   4.268  25.127  0.00  0.00    +0.078 C 
ATOM     21  C   UNL     1      -1.075   4.072  25.009  0.00  0.00    +0.009 C 
ATOM     22  C   UNL     1      -0.516   4.668  24.890  0.00  0.00    +0.000 C 
ATOM     23  C   UNL     1      -0.750   5.458  24.891  0.00  0.00    +0.000 C 
ATOM     24  C   UNL     1      -1.543   5.654  25.009  0.00  0.00    +0.000 C 
ATOM     25  C   UNL     1      -2.102   5.059  25.128  0.00  0.00    +0.009 C 
ENDBRANCH  18  20
ENDBRANCH  16  17
BRANCH   9   7
ATOM      7  C   UNL     1      -3.985  -0.812  24.053  0.00  0.00    +0.081 C 
ATOM      8  C   UNL     1      -4.149  -0.976  23.262  0.00  0.00    +0.010 C 
BRANCH   7   5
ATOM      4  N   UNL     1      -3.150  -1.956  24.245  0.00  0.00    -0.207 NA
ATOM      5  C   UNL     1      -3.686  -1.403  24.544  0.00  0.00    +0.241 C 
ATOM      6  O   UNL     1      -3.922  -1.443  25.333  0.00  0.00    -0.273 OA
BRANCH   4   2
ATOM      1  C   UNL     1      -2.058  -2.530  24.965  0.00  0.00    +0.023 C 
ATOM      2  C   UNL     1      -2.851  -2.547  24.736  0.00  0.00    +0.095 C 
ATOM      3  C   UNL     1      -3.344  -3.154  24.998  0.00  0.00    +0.023 C 
ENDBRANCH   4   2
ENDBRANCH   7   5
ENDBRANCH   9   7
TORSDOF 5
ENDMDL
MODEL 3
REMARK VINA RESULT:     -12.4      1.900      5.924
REMARK  Name = 
REMARK  5 active torsions:
REMARK  status: ('A' for Active; 'I' for Inactive)
REMARK    1  A    between atoms: C_2  and  N_4
REMARK    2  A    between atoms: C_5  and  C_7
REMARK    3  A    between atoms: C_7  and  C_9
REMARK    4  A    between atoms: C_16  and  N_17
REMARK    5  A    between atoms: C_18  and  C_20
REMARK                            x       y       z     vdW  Elec       q    Type
REMARK                         _______ _______ _______ _____ _____    ______ ____
ROOT
ATOM      9  C   UNL     1      -2.000  -0.900  25.151  0.00  0.00    +0.039 C 
ATOM     10  C   UNL     1      -1.246  -1.162  24.945  0.00  0.00    +0.003 C 
ATOM     11  C   UNL     1      -0.667  -0.619  24.724  0.00  0.00    +0.000 C 
ATOM     12  C   UNL     1      -0.841   0.187  24.708  0.00  0.00    +0.002 C 
ATOM     13  C   UNL     1      -0.086  -0.075  24.502  0.00  0.00    +0.000 C 
ATOM     14  C   UNL     1      -0.261   0.731  24.487  0.00  0.00    +0.002 C 
ATOM     15  C   UNL     1      -0.436   1.537  24.472  0.00  0.00    +0.022 C 
ATOM     16  C   UNL     1      -1.190   1.800  24.678  0.00  0.00    +0.095 C 
ATOM     26  C   UNL     1      -1.770   1.256  24.899  0.00  0.00    +0.022 C 
ATOM     27  C   UNL     1      -2.524   1.518  25.105  0.00  0.00    +0.002 C 
ATOM     28  C   UNL     1      -1.595   0.450  24.914  0.00  0.00    +0.032 C 
ATOM     29  C   UNL     1      -2.176  -0.094  25.136  0.00  0.00    +0.152 C 
ATOM     30  O   UNL     1      -2.929   0.168  25.341  0.00  0.00    -0.223 OA
ENDROOT
BRANCH  16  17
ATOM     17  N   UNL     1      -1.365   2.606  24.662  0.00  0.00    -0.207 NA
ATOM     18  C   UNL     1      -0.892   3.138  25.079  0.00  0.00    +0.241 C 
ATOM     19  O   UNL     1      -0.243   2.864  25.510  0.00  0.00    -0.273 OA
BRANCH  18  20
ATOM     20  C   UNL     1      -1.067   3.944  25.064  0.00  0.00    +0.078 C 
ATOM     21  C   UNL     1      -0.545   4.472  24.704  0.00  0.00    +0.009 C 
ATOM     22  C   UNL     1      -0.720   5.279  24.688  0.00  0.00    +0.000 C 
ATOM     23  C   UNL     1      -1.415   5.556  25.032  0.00  0.00    +0.000 C 
ATOM     24  C   UNL     1      -1.937   5.028  25.393  0.00  0.00    +0.000 C 
ATOM     25  C   UNL     1      -1.762   4.222  25.408  0.00  0.00    +0.009 C 
ENDBRANCH  18  20
ENDBRANCH  16  17
BRANCH   9   7
ATOM      7  C   UNL     1      -2.581  -1.444  25.372  0.00  0.00    +0.081 C 
ATOM      8  C   UNL     1      -2.863  -1.453  26.146  0.00  0.00    +0.010 C 
BRANCH   7   5
ATOM      4  N   UNL     1      -3.692  -2.033  24.695  0.00  0.00    -0.207 NA
ATOM      5  C   UNL     1      -2.878  -1.978  24.818  0.00  0.00    +0.241 C 
ATOM      6  O   UNL     1      -2.362  -2.456  24.387  0.00  0.00    -0.273 OA
BRANCH   4   2
ATOM      1  C   UNL     1      -4.423  -2.291  23.494  0.00  0.00    +0.023 C 
ATOM      2  C   UNL     1      -3.989  -2.567  24.140  0.00  0.00    +0.095 C 
ATOM      3  C   UNL     1      -3.854  -3.375  24.232  0.00  0.00    +0.023 C 
ENDBRANCH   4   2
ENDBRANCH   7   5
ENDBRANCH   9   7
TORSDOF 5
ENDMDL
MODEL 4
REMARK VINA RESULT:     -12.0      1.466      2.230
REMARK  Name = 
REMARK  5 active torsions:
REMARK  status: ('A' for Active; 'I' for Inactive)
REMARK    1  A    between atoms: C_2  and  N_4
REMARK    2  A    between atoms: C_5  and  C_7
REMARK    3  A    between atoms: C_7  and  C_9
REMARK    4  A    between atoms: C_16  and  N_17
REMARK    5  A    between atoms: C_18  and  C_20
REMARK                            x       y       z     vdW  Elec       q    Type
REMARK                         _______ _______ _______ _____ _____    ______ ____
ROOT
ATOM      9  C   UNL     1      -1.946   2.943  25.604  0.00  0.00    +0.039 C 
ATOM     10  C   UNL     1      -1.171   2.786  25.841  0.00  0.00    +0.003 C 
ATOM     11  C   UNL     1      -0.860   2.027  25.754  0.00  0.00    +0.000 C 
ATOM     12  C   UNL     1      -1.322   1.425  25.432  0.00  0.00    +0.002 C 
ATOM     13  C   UNL     1      -0.548   1.268  25.668  0.00  0.00    +0.000 C 
ATOM     14  C   UNL     1      -1.011   0.666  25.346  0.00  0.00    +0.002 C 
ATOM     15  C   UNL     1      -1.474   0.064  25.023  0.00  0.00    +0.022 C 
ATOM     16  C   UNL     1      -2.248   0.221  24.787  0.00  0.00    +0.095 C 
ATOM     26  C   UNL     1      -2.561   0.980  24.874  0.00  0.00    +0.022 C 
ATOM     27  C   UNL     1      -3.334   1.137  24.638  0.00  0.00    +0.002 C 
ATOM     28  C   UNL     1      -2.097   1.582  25.196  0.00  0.00    +0.032 C 
ATOM     29  C   UNL     1      -2.409   2.341  25.282  0.00  0.00    +0.152 C 
ATOM     30  O   UNL     1      -3.183   2.498  25.046  0.00  0.00    -0.223 OA
ENDROOT
BRANCH  16  17
ATOM     17  N   UNL     1      -2.712  -0.381  24.465  0.00  0.00    -0.207 NA
ATOM     18  C   UNL     1      -2.817  -1.087  24.879  0.00  0.00    +0.241 C 
ATOM     19  O   UNL     1      -2.458  -1.191  25.615  0.00  0.00    -0.273 OA
BRANCH  18  20
ATOM     20  C   UNL     1      -3.280  -1.689  24.557  0.00  0.00    +0.078 C 
ATOM     21  C   UNL     1      -3.061  -2.477  24.660  0.00  0.00    +0.009 C 
ATOM     22  C   UNL     1      -3.524  -3.079  24.338  0.00  0.00    +0.000 C 
ATOM     23  C   UNL     1      -4.205  -2.893  23.913  0.00  0.00    +0.000 C 
ATOM     24  C   UNL     1      -4.424  -2.103  23.810  0.00  0.00    +0.000 C 
ATOM     25  C   UNL     1      -3.961  -1.502  24.132  0.00  0.00    +0.009 C 
ENDBRANCH  18  20
ENDBRANCH  16  17
BRANCH   9   7
ATOM      7  C   UNL     1      -2.258   3.702  25.691  0.00  0.00    +0.081 C 
ATOM      8  C   UNL     1      -2.811   3.856  26.282  0.00  0.00    +0.010 C 
BRANCH   7   5
ATOM      4  N   UNL     1      -1.477   4.874  25.448  0.00  0.00    -0.207 NA
ATOM      5  C   UNL     1      -2.016   4.307  25.184  0.00  0.00    +0.241 C 
ATOM      6  O   UNL     1      -2.312   4.345  24.415  0.00  0.00    -0.273 OA
BRANCH   4   2
ATOM      1  C   UNL     1      -0.537   5.399  24.509  0.00  0.00    +0.023 C 
ATOM      2  C   UNL     1      -1.235   5.479  24.942  0.00  0.00    +0.095 C 
ATOM      3  C   UNL     1      -1.690   6.163  24.869  0.00  0.00    +0.023 C 
ENDBRANCH   4   2
ENDBRANCH   7   5
ENDBRANCH   9   7
TORSDOF 5
ENDMDL
